@<TRIPOS>MOLECULE
933
   43    45     1     0     0
SMALL
bcc


@<TRIPOS>ATOM
      1 N1         -3.3930    1.7050    1.0460 nb        1 933     -0.622000
      2 C2         -3.5010    0.8840   -0.0040 ca        1 933      0.291900
      3 C3         -2.4270    0.0710   -0.5150 ca        1 933      0.330300
      4 N4         -1.1980    0.0800    0.0450 nb        1 933     -0.616000
      5 C5         -2.1540    1.7160    1.6150 ca        1 933      0.295500
      6 C6         -1.0410    0.8950    1.1110 ca        1 933      0.341800
      7 C7          0.0870    1.1870    1.9720 cc        1 933     -0.321000
      8 C8         -0.3530    2.1230    2.9190 cd        1 933     -0.009100
      9 N9         -1.6860    2.4480    2.7180 na        1 933     -0.274100
     10 C10        -2.6680   -0.8000   -1.6860 cx        1 933     -0.179000
     11 C11        -4.0100   -1.4660   -1.8710 cx        1 933     -0.123400
     12 C12        -3.6010   -0.3510   -2.7850 cx        1 933     -0.123400
     13 C13         1.4630    0.6710    1.9610 c         1 933      0.707300
     14 N14         1.8140   -0.2410    0.9940 n         1 933     -0.554900
     15 O15         2.2860    1.0660    2.8220 o         1 933     -0.644100
     16 C16         3.1410   -0.8140    0.9120 c3        1 933      0.107700
     17 C17         3.8050   -0.5750   -0.4770 c3        1 933     -0.065000
     18 C18         4.0760    0.9140   -0.6490 c3        1 933     -0.088100
     19 C19         5.1350   -1.3150   -0.5280 c3        1 933     -0.088100
     20 C20         2.9250   -1.0540   -1.6200 c3        1 933     -0.088100
     21 C21         3.1360   -2.3010    1.2790 c3        1 933     -0.109100
     22 H1         -4.4950    0.8550   -0.4840 h4        1 933      0.035100
     23 H2          0.2330    2.5710    3.7300 h4        1 933      0.199000
     24 H3         -2.2260    3.0810    3.2500 hn        1 933      0.318700
     25 H4         -1.7700   -1.3810   -1.9920 hc        1 933      0.104700
     26 H5         -4.0290   -2.5010   -2.2560 hc        1 933      0.076700
     27 H6         -4.8080   -1.2900   -1.1280 hc        1 933      0.076700
     28 H7         -4.1040    0.6280   -2.7010 hc        1 933      0.076700
     29 H8         -3.3250   -0.5820   -3.8290 hc        1 933      0.076700
     30 H9          1.1510   -0.5490    0.3260 hn        1 933      0.331500
     31 H10         3.7890   -0.2800    1.6770 h1        1 933      0.086700
     32 H11         4.7370    1.2850    0.1710 hc        1 933      0.036367
     33 H12         4.5840    1.0990   -1.6270 hc        1 933      0.036367
     34 H13         3.1260    1.4980   -0.6320 hc        1 933      0.036367
     35 H14         4.9730   -2.4160   -0.6120 hc        1 933      0.036367
     36 H15         5.7230   -0.9800   -1.4170 hc        1 933      0.036367
     37 H16         5.7350   -1.1060    0.3910 hc        1 933      0.036367
     38 H17         2.0420   -0.3850   -1.7560 hc        1 933      0.036367
     39 H18         3.5090   -1.0510   -2.5730 hc        1 933      0.036367
     40 H19         2.5620   -2.0930   -1.4350 hc        1 933      0.036367
     41 H20         2.6620   -2.9180    0.4800 hc        1 933      0.040367
     42 H21         4.1850   -2.6490    1.4290 hc        1 933      0.040367
     43 H22         2.5780   -2.4670    2.2330 hc        1 933      0.040367
@<TRIPOS>BOND
     1    1    2 ar  
     2    1    5 ar  
     3    2    3 ar  
     4    2   22 1   
     5    3    4 ar  
     6    3   10 1   
     7    4    6 ar  
     8    5    6 ar  
     9    5    9 1   
    10    6    7 1   
    11    7    8 2   
    12    7   13 1   
    13    8    9 1   
    14    8   23 1   
    15    9   24 1   
    16   10   11 1   
    17   10   12 1   
    18   10   25 1   
    19   11   12 1   
    20   11   26 1   
    21   11   27 1   
    22   12   28 1   
    23   12   29 1   
    24   13   14 1   
    25   13   15 2   
    26   14   16 1   
    27   14   30 1   
    28   16   17 1   
    29   16   21 1   
    30   16   31 1   
    31   17   18 1   
    32   17   19 1   
    33   17   20 1   
    34   18   32 1   
    35   18   33 1   
    36   18   34 1   
    37   19   35 1   
    38   19   36 1   
    39   19   37 1   
    40   20   38 1   
    41   20   39 1   
    42   20   40 1   
    43   21   41 1   
    44   21   42 1   
    45   21   43 1   
@<TRIPOS>SUBSTRUCTURE
     1 933         1 TEMP              0 ****  ****    0 ROOT
