@<TRIPOS>MOLECULE
933
   43    36     1     0     0
SMALL
bcc


@<TRIPOS>ATOM
      1 N1          0.9310    0.5330   -4.6960 n1        1 933     -0.093000
      2 C2          1.8810   -0.4090   -4.5390 c1        1 933     -0.108000
      3 C3          2.0570   -1.0230   -3.3000 c1        1 933     -0.027000
      4 N4          1.2780   -0.6740   -2.2600 n1        1 933     -0.093000
      5 C5          0.1400    0.8870   -3.6400 c1        1 933     -0.031000
      6 C6          0.3130    0.2820   -2.4180 c1        1 933     -0.031000
      7 C7         -0.6170    0.8160   -1.5420 c1        1 933     -0.192000
      8 C8         -1.3650    1.7540   -2.2330 c1        1 933      0.018000
      9 N9         -0.9010    1.8000   -3.5240 n1        1 933     -0.188000
     10 C10         3.1020   -1.8890   -2.5860 cx        1 933     -0.124000
     11 C11         3.2270   -3.3210   -3.0880 cx        1 933     -0.202000
     12 C12         4.3040   -2.3000   -3.4240 cx        1 933     -0.202000
     13 C13        -0.7730    1.3570   -0.1200 c1        1 933      0.382000
     14 N14        -1.2860    0.5050    0.9240 n2        1 933     -0.364000
     15 O15        -0.4450    2.5030    0.1360 o         1 933     -0.405000
     16 C16        -1.8040    1.0770    2.1190 c3        1 933      0.031000
     17 C17        -1.0930    0.4660    3.3270 c3        1 933     -0.065000
     18 C18        -1.3400    1.3430    4.5660 c3        1 933     -0.206000
     19 C19         0.4190    0.3870    3.0480 c3        1 933     -0.206000
     20 C20        -1.6420   -0.9500    3.5840 c3        1 933     -0.206000
     21 C21        -3.2870    0.7970    2.2100 c3        1 933     -0.227000
     22 H1          2.4490   -0.6640   -5.2980 ha        1 933      0.172000
     23 H2         -2.1200    2.2680   -1.8730 DU        1 933      0.234000
     24 H3         -1.2230    2.3390   -4.1930 DU        1 933      0.234000
     25 H4          3.2750   -1.7570   -1.6280 hc        1 933      0.144000
     26 H5          2.6280   -3.5670   -3.8250 hc        1 933      0.116000
     27 H6          3.4710   -3.9900   -2.4110 hc        1 933      0.116000
     28 H7          5.1510   -2.3960   -2.9360 hc        1 933      0.116000
     29 H8          4.3080   -1.9750   -4.3500 hc        1 933      0.116000
     30 H9         -1.3240   -0.4040    0.7960 hn        1 933      0.245000
     31 H10        -1.6550    2.0480    2.1080 h1        1 933      0.126000
     32 H11        -0.9430    2.2320    4.4230 hc        1 933      0.075667
     33 H12        -2.3090    1.4370    4.7140 hc        1 933      0.075667
     34 H13        -0.9280    0.9230    5.3520 hc        1 933      0.075667
     35 H14         0.5970   -0.3360    2.4060 hc        1 933      0.075667
     36 H15         0.7270    1.2420    2.6730 hc        1 933      0.075667
     37 H16         0.8990    0.2060    3.8880 hc        1 933      0.075667
     38 H17        -0.9730   -1.4760    4.0800 hc        1 933      0.075667
     39 H18        -1.8320   -1.3880    2.7270 hc        1 933      0.075667
     40 H19        -2.4700   -0.8900    4.1130 hc        1 933      0.075667
     41 H20        -3.7840    1.5070    1.7450 hc        1 933      0.079667
     42 H21        -3.4830   -0.0700    1.7900 hc        1 933      0.079667
     43 H22        -3.5580    0.7720    3.1540 hc        1 933      0.079667
@<TRIPOS>BOND
     1    1    5 1   
     2    2    3 1   
     3    2   22 1   
     4    3   10 1   
     5    4    6 1   
     6    7    8 1   
     7    8    9 1   
     8   10   11 1   
     9   10   12 1   
    10   10   25 1   
    11   11   12 1   
    12   11   26 1   
    13   11   27 1   
    14   12   28 1   
    15   12   29 1   
    16   13   15 1   
    17   14   16 1   
    18   14   30 1   
    19   16   17 1   
    20   16   21 1   
    21   16   31 1   
    22   17   18 1   
    23   17   19 1   
    24   17   20 1   
    25   18   32 1   
    26   18   33 1   
    27   18   34 1   
    28   19   35 1   
    29   19   36 1   
    30   19   37 1   
    31   20   38 1   
    32   20   39 1   
    33   20   40 1   
    34   21   41 1   
    35   21   42 1   
    36   21   43 1   
@<TRIPOS>SUBSTRUCTURE
     1 933         1 TEMP              0 ****  ****    0 ROOT
