@<TRIPOS>MOLECULE
933
   44    46     1     0     0
SMALL
bcc


@<TRIPOS>ATOM
      1 N1          0.0000    0.8420    0.0970 nb        1 933     -0.589000
      2 C2          1.3130    0.6560    0.2320 ca        1 933      0.310900
      3 C3          1.9440    0.0630    1.3970 ca        1 933      0.379300
      4 N4          1.2220   -0.3570    2.4570 nb        1 933     -0.598000
      5 C5         -0.7320    0.4110    1.1700 ca        1 933      0.283500
      6 C6         -0.1170   -0.1930    2.3460 ca        1 933      0.364800
      7 C7         -1.2120   -0.5080    3.2480 cc        1 933     -0.396000
      8 C8         -2.4020   -0.0980    2.6040 cd        1 933     -0.011100
      9 N9         -2.1260    0.4480    1.3750 na        1 933     -0.214100
     10 C10         3.4130   -0.0850    1.4280 cx        1 933     -0.210000
     11 C11         4.1690   -0.3980    0.1560 cx        1 933     -0.109900
     12 C12         4.2940    0.9570    0.7770 cx        1 933     -0.109900
     13 C13        -1.0220   -1.1680    4.5040 c         1 933      0.612300
     14 N14        -2.1190   -0.9380    5.5450 ny        1 933     -0.687800
     15 O15        -0.1120   -1.8930    4.8800 o         1 933     -0.412100
     16 C16        -1.5710   -0.3330    6.8160 c3        1 933      0.134500
     17 C17        -2.5960   -0.4630    7.9760 c3        1 933     -0.071000
     18 C18        -2.7670   -1.9330    8.3410 c3        1 933     -0.106433
     19 C19        -2.0350    0.2740    9.1870 c3        1 933     -0.106433
     20 C20        -3.9460    0.1290    7.6080 c3        1 933     -0.106433
     21 C21        -1.1170    1.0990    6.5790 c3        1 933     -0.129100
     22 H1          1.9340    0.9910   -0.6220 h4        1 933      0.059100
     23 H2         -3.4400   -0.1870    2.9470 h4        1 933      0.179000
     24 H3         -2.7870    0.7850    0.7150 hn        1 933      0.341700
     25 H4          3.7880   -0.5510    2.3660 hc        1 933      0.117700
     26 H5          3.6140   -0.5120   -0.7920 hc        1 933      0.085700
     27 H6          5.0160   -1.1050    0.2200 hc        1 933      0.085700
     28 H7          5.2330    1.2340    1.2900 hc        1 933      0.085700
     29 H8          3.8300    1.8270    0.2780 hc        1 933      0.085700
     30 H9         -2.5440   -1.8410    5.7810 hn        1 933      0.446800
     31 H10        -0.6630   -0.9600    7.0850 hx        1 933      0.119700
     32 H11        -3.3240   -2.4960    7.5540 hc        1 933      0.054589
     33 H12        -1.7750   -2.4190    8.5060 hc        1 933      0.054589
     34 H13        -3.3570   -2.0160    9.2880 hc        1 933      0.054589
     35 H14        -0.9830   -0.0400    9.3880 hc        1 933      0.054589
     36 H15        -2.6530    0.0380   10.0880 hc        1 933      0.054589
     37 H16        -2.0650    1.3790    9.0270 hc        1 933      0.054589
     38 H17        -4.5880    0.1830    8.5240 hc        1 933      0.054589
     39 H18        -3.8380    1.1630    7.2030 hc        1 933      0.054589
     40 H19        -4.4830   -0.5040    6.8610 hc        1 933      0.054589
     41 H20        -0.5220    1.4350    7.4650 hc        1 933      0.075033
     42 H21        -0.4530    1.1700    5.6810 hc        1 933      0.075033
     43 H22        -1.9810    1.7940    6.4490 hc        1 933      0.075033
     44 H142       -2.8410   -0.3180    5.1720 hn        1 933      0.446800
@<TRIPOS>BOND
     1    1    2 ar  
     2    1    5 ar  
     3    2    3 ar  
     4    2   22 1   
     5    3    4 ar  
     6    3   10 1   
     7    4    6 ar  
     8    5    6 ar  
     9    5    9 1   
    10    6    7 1   
    11    7    8 2   
    12    7   13 1   
    13    8    9 1   
    14    8   23 1   
    15    9   24 1   
    16   10   11 1   
    17   10   12 1   
    18   10   25 1   
    19   11   12 1   
    20   11   26 1   
    21   11   27 1   
    22   12   28 1   
    23   12   29 1   
    24   13   14 1   
    25   13   15 2   
    26   14   16 1   
    27   14   30 1   
    28   14   44 1   
    29   16   17 1   
    30   16   21 1   
    31   16   31 1   
    32   17   18 1   
    33   17   19 1   
    34   17   20 1   
    35   18   32 1   
    36   18   33 1   
    37   18   34 1   
    38   19   35 1   
    39   19   36 1   
    40   19   37 1   
    41   20   38 1   
    42   20   39 1   
    43   20   40 1   
    44   21   41 1   
    45   21   42 1   
    46   21   43 1   
@<TRIPOS>SUBSTRUCTURE
     1 933         1 TEMP              0 ****  ****    0 ROOT
