@<TRIPOS>MOLECULE
933
   44    46     1     0     0
SMALL
bcc


@<TRIPOS>ATOM
      1 N1          0.0080    0.7950    0.0870 nb        1 933     -0.589000
      2 C2          1.3230    0.6390    0.2330 ca        1 933      0.310900
      3 C3          1.9590    0.0740    1.4100 ca        1 933      0.379300
      4 N4          1.2390   -0.3470    2.4710 nb        1 933     -0.598000
      5 C5         -0.7220    0.3640    1.1620 ca        1 933      0.283500
      6 C6         -0.1020   -0.2120    2.3490 ca        1 933      0.364800
      7 C7         -1.1960   -0.5370    3.2500 cc        1 933     -0.396000
      8 C8         -2.3910   -0.1600    2.5930 cd        1 933     -0.011100
      9 N9         -2.1180    0.3740    1.3590 na        1 933     -0.214100
     10 C10         3.4310   -0.0430    1.4520 cx        1 933     -0.210000
     11 C11         4.2010   -0.3560    0.1890 cx        1 933     -0.109900
     12 C12         4.2940    1.0090    0.7920 cx        1 933     -0.109900
     13 C13        -1.0010   -1.1760    4.5160 c         1 933      0.612300
     14 N14        -2.1080   -0.9540    5.5460 n4        1 933     -0.687800
     15 O15        -0.0790   -1.8780    4.9060 o         1 933     -0.412100
     16 C16        -1.5800   -0.3250    6.8140 c3        1 933      0.134500
     17 C17        -2.6100   -0.4590    7.9680 c3        1 933     -0.071000
     18 C18        -2.7590   -1.9270    8.3490 c3        1 933     -0.106433
     19 C19        -2.0700    0.3020    9.1750 c3        1 933     -0.106433
     20 C20        -3.9680    0.1060    7.5850 c3        1 933     -0.106433
     21 C21        -1.1490    1.1130    6.5620 c3        1 933     -0.129100
     22 H1          1.9430    0.9740   -0.6210 h4        1 933      0.059100
     23 H2         -3.4280   -0.2660    2.9310 h4        1 933      0.179000
     24 H3         -2.7810    0.6900    0.6900 hn        1 933      0.341700
     25 H4          3.8090   -0.4880    2.3980 hc        1 933      0.117700
     26 H5          5.0630   -1.0450    0.2680 hc        1 933      0.085700
     27 H6          3.6540   -0.4940   -0.7610 hc        1 933      0.085700
     28 H7          5.2240    1.3120    1.3080 hc        1 933      0.085700
     29 H8          3.8150    1.8620    0.2800 hc        1 933      0.085700
     30 H9         -2.5180   -1.8620    5.7900 hn        1 933      0.446800
     31 H10        -0.6630   -0.9330    7.0970 hx        1 933      0.119700
     32 H11        -3.3020   -2.5080    7.5650 hc        1 933      0.054589
     33 H12        -3.3530   -2.0090    9.2930 hc        1 933      0.054589
     34 H13        -1.7610   -2.3940    8.5250 hc        1 933      0.054589
     35 H14        -1.0140    0.0070    9.3860 hc        1 933      0.054589
     36 H15        -2.6900    0.0650   10.0750 hc        1 933      0.054589
     37 H16        -2.1180    1.4040    9.0020 hc        1 933      0.054589
     38 H17        -4.6160    0.1600    8.4960 hc        1 933      0.054589
     39 H18        -3.8740    1.1370    7.1690 hc        1 933      0.054589
     40 H19        -4.4890   -0.5440    6.8410 hc        1 933      0.054589
     41 H20        -0.4800    1.1840    5.6680 hc        1 933      0.075033
     42 H21        -0.5660    1.4700    7.4490 hc        1 933      0.075033
     43 H22        -2.0240    1.7910    6.4180 hc        1 933      0.075033
     44 H142       -2.8390   -0.3510    5.1620 hn        1 933      0.446800
@<TRIPOS>BOND
     1    1    2 ar  
     2    1    5 ar  
     3    2    3 ar  
     4    2   22 1   
     5    3    4 ar  
     6    3   10 1   
     7    4    6 ar  
     8    5    6 ar  
     9    5    9 1   
    10    6    7 1   
    11    7    8 2   
    12    7   13 1   
    13    8    9 1   
    14    8   23 1   
    15    9   24 1   
    16   10   11 1   
    17   10   12 1   
    18   10   25 1   
    19   11   12 1   
    20   11   26 1   
    21   11   27 1   
    22   12   28 1   
    23   12   29 1   
    24   13   14 1   
    25   13   15 2   
    26   14   16 1   
    27   14   30 1   
    28   14   44 1   
    29   16   17 1   
    30   16   21 1   
    31   16   31 1   
    32   17   18 1   
    33   17   19 1   
    34   17   20 1   
    35   18   32 1   
    36   18   33 1   
    37   18   34 1   
    38   19   35 1   
    39   19   36 1   
    40   19   37 1   
    41   20   38 1   
    42   20   39 1   
    43   20   40 1   
    44   21   41 1   
    45   21   42 1   
    46   21   43 1   
@<TRIPOS>SUBSTRUCTURE
     1 933         1 TEMP              0 ****  ****    0 ROOT
