@<TRIPOS>MOLECULE
935
   54    56     1     0     0
SMALL
bcc


@<TRIPOS>ATOM
      1 N1         -0.0100    0.4580   -0.0140 nb        1 935     -0.657000
      2 C2          1.2360   -0.0730    0.0330 cp        1 935      0.469800
      3 C3          1.8060   -0.5680    1.2300 ca        1 935     -0.229300
      4 C4          1.0630   -0.5040    2.4060 ca        1 935     -0.093000
      5 C5         -0.2190    0.0440    2.3710 ca        1 935     -0.220300
      6 C6         -0.7200    0.5140    1.1370 ca        1 935      0.313000
      7 C7          2.0260   -0.1390   -1.2090 cp        1 935     -0.192500
      8 C8          1.4240   -0.5040   -2.4200 ca        1 935     -0.013000
      9 C9          2.1800   -0.5810   -3.5880 ca        1 935     -0.211300
     10 C10         3.5580   -0.2770   -3.5510 ca        1 935      0.192100
     11 C11         4.1600    0.0990   -2.3400 ca        1 935     -0.220000
     12 C12         3.3930    0.1660   -1.1820 ca        1 935     -0.050000
     13 O13         4.2190   -0.3800   -4.7500 os        1 935     -0.315900
     14 C14         5.6190   -0.0590   -4.7370 c3        1 935      0.130400
     15 C15         6.0840   -0.2350   -6.1730 c3        1 935     -0.090400
     16 C16         7.6010   -0.0730   -6.2250 c3        1 935      0.174800
     17 N17         8.1310    0.0420   -7.5770 n3        1 935     -0.727600
     18 C18        -2.0910    1.0970    1.1130 ce        1 935      0.366200
     19 N19        -2.7380    1.6160    0.1470 n2        1 935     -0.735100
     20 C20         1.5240   -0.9890   -4.9000 c3        1 935      0.705200
     21 F21         0.1830   -1.2790   -4.8010 f         1 935     -0.234967
     22 F22         1.5820   -0.0360   -5.8870 f         1 935     -0.234967
     23 F23         2.0590   -2.1140   -5.4780 f         1 935     -0.234967
     24 C24         8.4710   -1.0390   -9.8060 c3        1 935      0.167800
     25 N25         9.8880   -0.7080   -9.7830 n3        1 935     -0.732600
     26 C26        10.1600    0.4700   -8.9730 c3        1 935      0.167800
     27 C27         9.5490    0.3800   -7.5620 c3        1 935      0.166800
     28 C28         7.8490   -1.1250   -8.3990 c3        1 935      0.166800
     29 C29        10.4540   -0.6090  -11.1090 c3        1 935      0.157100
     30 H3          2.8140   -1.0040    1.2210 ha        1 935      0.148000
     31 H4          1.4810   -0.8830    3.3510 ha        1 935      0.144000
     32 H5         -0.8310    0.1110    3.2810 ha        1 935      0.149000
     33 H8          0.3450   -0.7340   -2.4570 ha        1 935      0.170000
     34 H11         5.2300    0.3450   -2.2980 ha        1 935      0.147000
     35 H12         3.8680    0.4700   -0.2360 ha        1 935      0.142000
     36 H14         6.1540   -0.7620   -4.0460 h1        1 935      0.043700
     37 H14A        5.7570    0.9980   -4.3900 h1        1 935      0.043700
     38 H15         5.7810   -1.2510   -6.5380 hc        1 935      0.071700
     39 H15A        5.5770    0.5220   -6.8260 hc        1 935      0.071700
     40 H16         8.0700   -0.9360   -5.6640 h1        1 935      0.030200
     41 H16A        7.8800    0.8740   -5.6790 h1        1 935      0.030200
     42 H24         8.3620   -2.0490  -10.2910 h1        1 935      0.037950
     43 H24A        7.8790   -0.2960  -10.4170 h1        1 935      0.037950
     44 H26         9.7870    1.4140   -9.4690 h1        1 935      0.037950
     45 H26A       11.2770    0.5580   -8.8580 h1        1 935      0.037950
     46 H27        10.1480   -0.3620   -6.9560 h1        1 935      0.037950
     47 H27A        9.6570    1.3900   -7.0770 h1        1 935      0.037950
     48 H28         6.7330   -1.1930   -8.5270 h1        1 935      0.037950
     49 H28A        8.2030   -2.0770   -7.9050 h1        1 935      0.037950
     50 H29        11.5590   -0.4380  -11.0180 h1        1 935      0.032700
     51 H29A       10.0130    0.2250  -11.7230 h1        1 935      0.032700
     52 H29B       10.2810   -1.5770  -11.6480 h1        1 935      0.032700
     53 H18        -2.5990    1.0580    2.1000 h4        1 935      0.016800
     54 HN19       -2.2950    1.6580   -0.7470 hn        1 935      0.406400
@<TRIPOS>BOND
     1    1    2 ar  
     2    1    6 ar  
     3    2    3 ar  
     4    2    7 1   
     5    3    4 ar  
     6    3   30 1   
     7    4    5 ar  
     8    4   31 1   
     9    5    6 ar  
    10    5   32 1   
    11    6   18 1   
    12    7    8 ar  
    13    7   12 ar  
    14    8    9 ar  
    15    8   33 1   
    16    9   10 ar  
    17    9   20 1   
    18   10   11 ar  
    19   10   13 1   
    20   11   12 ar  
    21   11   34 1   
    22   12   35 1   
    23   13   14 1   
    24   14   15 1   
    25   14   36 1   
    26   14   37 1   
    27   15   16 1   
    28   15   38 1   
    29   15   39 1   
    30   16   17 1   
    31   16   40 1   
    32   16   41 1   
    33   17   27 1   
    34   17   28 1   
    35   18   19 2   
    36   18   53 1   
    37   19   54 1   
    38   20   21 1   
    39   20   22 1   
    40   20   23 1   
    41   24   25 1   
    42   24   28 1   
    43   24   42 1   
    44   24   43 1   
    45   25   26 1   
    46   25   29 1   
    47   26   27 1   
    48   26   44 1   
    49   26   45 1   
    50   27   46 1   
    51   27   47 1   
    52   28   48 1   
    53   28   49 1   
    54   29   50 1   
    55   29   51 1   
    56   29   52 1   
@<TRIPOS>SUBSTRUCTURE
     1 935         1 TEMP              0 ****  ****    0 ROOT
