@<TRIPOS>MOLECULE
935
   54    48     1     0     0
SMALL
bcc


@<TRIPOS>ATOM
      1 N1         -4.2910    0.7310    4.6090 n1        1 935     -0.131000
      2 C2         -3.7960   -0.4510    4.1450 c1        1 935     -0.025000
      3 C3         -3.9920   -1.6150    4.8650 c1        1 935     -0.088500
      4 C4         -4.6830   -1.5800    6.0420 c1        1 935     -0.129500
      5 C5         -5.1770   -0.3990    6.5050 c1        1 935     -0.129500
      6 C6         -4.9780    0.7670    5.7790 c1        1 935     -0.045000
      7 C7         -3.0940   -0.4870    2.9510 c1        1 935     -0.025000
      8 C8         -3.7700   -0.6680    1.7550 c1        1 935     -0.088500
      9 C9         -3.0640   -0.6790    0.5450 c1        1 935     -0.204000
     10 C10        -1.6930   -0.5090    0.5440 c1        1 935      0.147000
     11 C11        -1.0130   -0.3260    1.7490 c1        1 935     -0.129500
     12 C12        -1.7150   -0.3150    2.9510 c1        1 935     -0.129500
     13 O13        -0.9940   -0.3390   -0.7080 os        1 935     -0.199000
     14 C14         0.3810   -0.7450   -0.6690 c3        1 935     -0.020000
     15 C15         1.0050   -0.5780   -2.0700 c3        1 935     -0.170000
     16 C16         2.5290   -0.6320   -1.9600 c3        1 935     -0.061000
     17 N17         3.1270    0.0320   -3.1250 n3        1 935     -0.257000
     18 C18        -5.5600    2.0750    6.2740 c2        1 935     -0.021000
     19 N19        -4.9970    2.7040    7.2600 n1        1 935     -0.203000
     20 C20        -3.8120   -0.7780   -0.7680 c3        1 935      0.484000
     21 F21        -5.1300   -0.8120   -0.5290 f         1 935     -0.163667
     22 F22        -3.5220    0.2880   -1.5280 f         1 935     -0.163667
     23 F23        -3.4450   -1.8960   -1.4070 f         1 935     -0.163667
     24 C24         4.9280   -0.2510   -4.9160 c3        1 935     -0.089000
     25 N25         4.8500    1.0160   -4.8510 n3        1 935     -0.259000
     26 C26         4.9040    1.7360   -3.8020 c3        1 935     -0.089000
     27 C27         4.1460    1.0920   -2.6510 c3        1 935     -0.089500
     28 C28         4.1730   -0.9090   -3.7760 c3        1 935     -0.089500
     29 C29         5.6860    1.6070   -5.8880 c3        1 935     -0.119000
     30 H3         -3.6400   -2.4550    4.5350 ha        1 935      0.159000
     31 H4         -4.8230   -2.4070    6.5540 ha        1 935      0.145500
     32 H5         -5.6660   -0.3730    7.3370 ha        1 935      0.145500
     33 H8         -4.7440   -0.7890    1.7560 ha        1 935      0.159000
     34 H11        -0.0470   -0.2050    1.7500 ha        1 935      0.145500
     35 H12        -1.2360   -0.1860    3.8000 ha        1 935      0.145500
     36 H14         0.4370   -1.6820   -0.3970 h1        1 935      0.082500
     37 H14A        0.8640   -0.1920   -0.0310 h1        1 935      0.082500
     38 H15         0.6950   -1.2960   -2.6510 hc        1 935      0.111000
     39 H15A        0.7350    0.2860   -2.4470 hc        1 935      0.111000
     40 H16         2.8140   -0.1770   -1.1440 h1        1 935      0.068000
     41 H16A        2.8240   -1.5730   -1.9320 h1        1 935      0.068000
     42 H24         4.5470   -0.5530   -5.7700 h1        1 935      0.087750
     43 H24A        5.8750   -0.5190   -4.8720 h1        1 935      0.087750
     44 H26         5.8470    1.8560   -3.5410 h1        1 935      0.087750
     45 H26A        4.5110    2.6100   -3.9950 h1        1 935      0.087750
     46 H27         3.6670    1.7930   -2.1550 h1        1 935      0.089250
     47 H27A        4.7910    0.6620   -2.0480 h1        1 935      0.089250
     48 H28         3.7120   -1.7040   -4.1200 h1        1 935      0.089250
     49 H28A        4.8150   -1.1880   -3.0920 h1        1 935      0.089250
     50 H29         5.1120    2.0760   -6.5500 h1        1 935      0.071000
     51 H29A        6.1980    0.8990   -6.3420 h1        1 935      0.071000
     52 H29B        6.3030    2.2450   -5.4840 h1        1 935      0.071000
     53 H18        -6.3540    2.4430    5.8530 h4        1 935      0.146000
     54 HN19       -4.2410    2.3530    7.6610 DU        1 935      0.162000
@<TRIPOS>BOND
     1    1    6 1   
     2    2    3 1   
     3    3   30 1   
     4    4    5 1   
     5    4   31 1   
     6    5   32 1   
     7    6   18 1   
     8    7    8 1   
     9    8   33 1   
    10    9   10 1   
    11    9   20 1   
    12   10   13 1   
    13   11   12 1   
    14   11   34 1   
    15   12   35 1   
    16   13   14 1   
    17   14   15 1   
    18   14   36 1   
    19   14   37 1   
    20   15   16 1   
    21   15   38 1   
    22   15   39 1   
    23   16   17 1   
    24   16   40 1   
    25   16   41 1   
    26   17   27 1   
    27   17   28 1   
    28   18   19 1   
    29   18   53 1   
    30   20   21 1   
    31   20   22 1   
    32   20   23 1   
    33   24   25 1   
    34   24   28 1   
    35   24   42 1   
    36   24   43 1   
    37   25   26 1   
    38   25   29 1   
    39   26   27 1   
    40   26   44 1   
    41   26   45 1   
    42   27   46 1   
    43   27   47 1   
    44   28   48 1   
    45   28   49 1   
    46   29   50 1   
    47   29   51 1   
    48   29   52 1   
@<TRIPOS>SUBSTRUCTURE
     1 935         1 TEMP              0 ****  ****    0 ROOT
