@<TRIPOS>MOLECULE
935
   54    56     1     0     0
SMALL
bcc


@<TRIPOS>ATOM
      1 N1         -0.0070    0.4650   -0.0120 nb        1 935     -0.657000
      2 C2          1.2380   -0.0670    0.0340 cp        1 935      0.469800
      3 C3          1.8090   -0.5610    1.2320 ca        1 935     -0.229300
      4 C4          1.0670   -0.4960    2.4080 ca        1 935     -0.093000
      5 C5         -0.2150    0.0520    2.3740 ca        1 935     -0.220300
      6 C6         -0.7170    0.5210    1.1400 ca        1 935      0.313000
      7 C7          2.0280   -0.1340   -1.2080 cp        1 935     -0.192500
      8 C8          1.4250   -0.4980   -2.4180 ca        1 935     -0.013000
      9 C9          2.1800   -0.5760   -3.5870 ca        1 935     -0.211300
     10 C10         3.5580   -0.2730   -3.5510 ca        1 935      0.192100
     11 C11         4.1610    0.1030   -2.3410 ca        1 935     -0.220000
     12 C12         3.3950    0.1710   -1.1820 ca        1 935     -0.050000
     13 O13         4.2180   -0.3760   -4.7500 os        1 935     -0.315900
     14 C14         5.6190   -0.0580   -4.7380 c3        1 935      0.130400
     15 C15         6.0830   -0.2340   -6.1740 c3        1 935     -0.090400
     16 C16         7.6010   -0.0770   -6.2260 c3        1 935      0.174800
     17 N17         8.1310    0.0370   -7.5780 n3        1 935     -0.727600
     18 C18        -2.0870    1.1050    1.1160 ce        1 935      0.366200
     19 N19        -2.7350    1.6240    0.1500 n2        1 935     -0.735100
     20 C20         1.5230   -0.9840   -4.8980 c3        1 935      0.705200
     21 F21         0.1820   -1.2740   -4.7990 f         1 935     -0.234967
     22 F22         1.5810   -0.0320   -5.8850 f         1 935     -0.234967
     23 F23         2.0580   -2.1100   -5.4760 f         1 935     -0.234967
     24 C24         8.4660   -1.0450   -9.8080 c3        1 935      0.167800
     25 N25         9.8850   -0.7180   -9.7850 n3        1 935     -0.732600
     26 C26        10.1610    0.4580   -8.9740 c3        1 935      0.167800
     27 C27         9.5500    0.3690   -7.5640 c3        1 935      0.166800
     28 C28         7.8450   -1.1290   -8.4010 c3        1 935      0.166800
     29 C29        10.4510   -0.6210  -11.1110 c3        1 935      0.157100
     30 H3          2.8170   -0.9980    1.2220 ha        1 935      0.148000
     31 H4          1.4850   -0.8760    3.3530 ha        1 935      0.144000
     32 H5         -0.8260    0.1190    3.2840 ha        1 935      0.149000
     33 H8          0.3460   -0.7280   -2.4540 ha        1 935      0.170000
     34 H11         5.2310    0.3490   -2.2990 ha        1 935      0.147000
     35 H12         3.8710    0.4760   -0.2360 ha        1 935      0.142000
     36 H14         5.7580    1.0000   -4.3910 h1        1 935      0.043700
     37 H14A        6.1530   -0.7610   -4.0460 h1        1 935      0.043700
     38 H15         5.7770   -1.2500   -6.5390 hc        1 935      0.071700
     39 H15A        5.5770    0.5240   -6.8270 hc        1 935      0.071700
     40 H16         7.8820    0.8700   -5.6810 h1        1 935      0.030200
     41 H16A        8.0680   -0.9420   -5.6660 h1        1 935      0.030200
     42 H24         7.8770   -0.2990  -10.4190 h1        1 935      0.037950
     43 H24A        8.3540   -2.0540  -10.2930 h1        1 935      0.037950
     44 H26        11.2780    0.5430   -8.8600 h1        1 935      0.037950
     45 H26A        9.7910    1.4030   -9.4700 h1        1 935      0.037950
     46 H27        10.1460   -0.3740   -6.9580 h1        1 935      0.037950
     47 H27A        9.6610    1.3790   -7.0790 h1        1 935      0.037950
     48 H28         8.1940   -2.0830   -7.9080 h1        1 935      0.037950
     49 H28A        6.7280   -1.1930   -8.5290 h1        1 935      0.037950
     50 H29        11.5560   -0.4540  -11.0200 h1        1 935      0.032700
     51 H29A       10.2740   -1.5880  -11.6500 h1        1 935      0.032700
     52 H29B       10.0130    0.2140  -11.7240 h1        1 935      0.032700
     53 H18        -2.5950    1.0670    2.1040 h4        1 935      0.016800
     54 HN19       -2.2920    1.6650   -0.7440 hn        1 935      0.406400
@<TRIPOS>BOND
     1    1    2 ar  
     2    1    6 ar  
     3    2    3 ar  
     4    2    7 1   
     5    3    4 ar  
     6    3   30 1   
     7    4    5 ar  
     8    4   31 1   
     9    5    6 ar  
    10    5   32 1   
    11    6   18 1   
    12    7    8 ar  
    13    7   12 ar  
    14    8    9 ar  
    15    8   33 1   
    16    9   10 ar  
    17    9   20 1   
    18   10   11 ar  
    19   10   13 1   
    20   11   12 ar  
    21   11   34 1   
    22   12   35 1   
    23   13   14 1   
    24   14   15 1   
    25   14   36 1   
    26   14   37 1   
    27   15   16 1   
    28   15   38 1   
    29   15   39 1   
    30   16   17 1   
    31   16   40 1   
    32   16   41 1   
    33   17   27 1   
    34   17   28 1   
    35   18   19 2   
    36   18   53 1   
    37   19   54 1   
    38   20   21 1   
    39   20   22 1   
    40   20   23 1   
    41   24   25 1   
    42   24   28 1   
    43   24   42 1   
    44   24   43 1   
    45   25   26 1   
    46   25   29 1   
    47   26   27 1   
    48   26   44 1   
    49   26   45 1   
    50   27   46 1   
    51   27   47 1   
    52   28   48 1   
    53   28   49 1   
    54   29   50 1   
    55   29   51 1   
    56   29   52 1   
@<TRIPOS>SUBSTRUCTURE
     1 935         1 TEMP              0 ****  ****    0 ROOT
