@<TRIPOS>MOLECULE
935
   54    56     1     0     0
SMALL
bcc


@<TRIPOS>ATOM
      1 N1          5.5030    0.1900    0.3400 nb        1 935     -0.652000
      2 C2          4.6350    1.0750   -0.2060 cp        1 935      0.461800
      3 C3          5.0580    2.2920   -0.7950 ca        1 935     -0.227300
      4 C4          6.4170    2.5950   -0.8080 ca        1 935     -0.102000
      5 C5          7.3220    1.6960   -0.2410 ca        1 935     -0.199300
      6 C6          6.8230    0.5020    0.3210 ca        1 935      0.352000
      7 C7          3.1960    0.7590   -0.1880 cp        1 935     -0.187500
      8 C8          2.7470   -0.5410   -0.4490 ca        1 935     -0.014000
      9 C9          1.3840   -0.8310   -0.4460 ca        1 935     -0.211300
     10 C10         0.4520    0.1920   -0.1670 ca        1 935      0.191100
     11 C11         0.9010    1.4930    0.1050 ca        1 935     -0.219000
     12 C12         2.2650    1.7670    0.0930 ca        1 935     -0.050000
     13 O13        -0.8670   -0.1880   -0.1870 os        1 935     -0.316900
     14 C14        -1.8310    0.8360    0.1070 c3        1 935      0.130400
     15 C15        -3.1830    0.1460    0.0350 c3        1 935     -0.090400
     16 C16        -4.2820    1.1980    0.1740 c3        1 935      0.173800
     17 N17        -5.6080    0.6340    0.3830 n3        1 935     -0.727600
     18 C18         7.7540   -0.4950    0.9250 ce        1 935      0.373200
     19 N19         8.9300   -0.1720    1.3130 n2        1 935     -0.763100
     20 C20         0.9000   -2.2440   -0.7400 c3        1 935      0.705200
     21 F21         1.9030   -3.1440   -1.0180 f         1 935     -0.235967
     22 F22         0.2060   -2.8350    0.2870 f         1 935     -0.235967
     23 F23         0.0620   -2.3450   -1.8230 f         1 935     -0.235967
     24 C24        -7.4730   -0.7610   -0.5310 c3        1 935      0.167800
     25 N25        -8.4410    0.2830   -0.2280 n3        1 935     -0.732600
     26 C26        -8.0090    1.1240    0.8790 c3        1 935      0.167800
     27 C27        -6.5820    1.6730    0.6920 c3        1 935      0.166800
     28 C28        -6.0420   -0.2210   -0.7130 c3        1 935      0.166800
     29 C29        -9.7750   -0.2380   -0.0370 c3        1 935      0.157100
     30 H3          4.3220    2.9730   -1.2420 ha        1 935      0.146000
     31 H4          6.7750    3.5320   -1.2600 ha        1 935      0.143000
     32 H5          8.3990    1.9130   -0.2300 ha        1 935      0.166000
     33 H8          3.4720   -1.3470   -0.6570 ha        1 935      0.170000
     34 H11         0.1880    2.2980    0.3310 ha        1 935      0.147000
     35 H12         2.6130    2.7880    0.3170 ha        1 935      0.142000
     36 H14        -1.6370    1.2470    1.1320 h1        1 935      0.043700
     37 H14A       -1.7470    1.6530   -0.6550 h1        1 935      0.043700
     38 H15        -3.2720   -0.3910   -0.9450 hc        1 935      0.071200
     39 H15A       -3.2560   -0.6210    0.8480 hc        1 935      0.071200
     40 H16        -4.0510    1.8410    1.0720 h1        1 935      0.030200
     41 H16A       -4.2510    1.8670   -0.7370 h1        1 935      0.030200
     42 H24        -7.4580   -1.5600    0.2670 h1        1 935      0.037950
     43 H24A       -7.7820   -1.2450   -1.4990 h1        1 935      0.037950
     44 H26        -8.7100    2.0030    0.9380 h1        1 935      0.037950
     45 H26A       -8.0580    0.5750    1.8650 h1        1 935      0.037950
     46 H27        -6.2730    2.1580    1.6600 h1        1 935      0.037950
     47 H27A       -6.6050    2.4730   -0.1050 h1        1 935      0.037950
     48 H28        -5.9800    0.3130   -1.7060 h1        1 935      0.037950
     49 H28A       -5.3480   -1.1070   -0.7510 h1        1 935      0.037950
     50 H29        -9.8640   -0.9260    0.8490 h1        1 935      0.032700
     51 H29A      -10.4810    0.6210    0.1060 h1        1 935      0.032700
     52 H29B      -10.0750   -0.8040   -0.9580 h1        1 935      0.032700
     53 H18         7.3210   -1.5190    1.0040 h4        1 935     -0.011200
     54 HN19        9.4690   -0.9190    1.7010 hn        1 935      0.394400
@<TRIPOS>BOND
     1    1    2 ar  
     2    1    6 ar  
     3    2    3 ar  
     4    2    7 1   
     5    3    4 ar  
     6    3   30 1   
     7    4    5 ar  
     8    4   31 1   
     9    5    6 ar  
    10    5   32 1   
    11    6   18 1   
    12    7    8 ar  
    13    7   12 ar  
    14    8    9 ar  
    15    8   33 1   
    16    9   10 ar  
    17    9   20 1   
    18   10   11 ar  
    19   10   13 1   
    20   11   12 ar  
    21   11   34 1   
    22   12   35 1   
    23   13   14 1   
    24   14   15 1   
    25   14   36 1   
    26   14   37 1   
    27   15   16 1   
    28   15   38 1   
    29   15   39 1   
    30   16   17 1   
    31   16   40 1   
    32   16   41 1   
    33   17   27 1   
    34   17   28 1   
    35   18   19 2   
    36   18   53 1   
    37   19   54 1   
    38   20   21 1   
    39   20   22 1   
    40   20   23 1   
    41   24   25 1   
    42   24   28 1   
    43   24   42 1   
    44   24   43 1   
    45   25   26 1   
    46   25   29 1   
    47   26   27 1   
    48   26   44 1   
    49   26   45 1   
    50   27   46 1   
    51   27   47 1   
    52   28   48 1   
    53   28   49 1   
    54   29   50 1   
    55   29   51 1   
    56   29   52 1   
@<TRIPOS>SUBSTRUCTURE
     1 935         1 TEMP              0 ****  ****    0 ROOT
