@<TRIPOS>MOLECULE
936
   42    37     1     0     0
SMALL
bcc


@<TRIPOS>ATOM
      1 C1         -1.6810   -0.3940   -4.2860 c1        1 936     -0.307000
      2 C2         -0.1670   -0.4620   -4.2800 c1        1 936      0.341000
      3 C3          0.6050   -0.5020   -2.9310 c2        1 936     -0.109000
      4 C4         -0.1050   -0.4710   -1.7060 c1        1 936     -0.178000
      5 C5         -1.6640   -0.3940   -1.7080 c1        1 936      0.331000
      6 C6         -2.4190   -0.3700   -3.0200 c2        1 936      0.066000
      7 N7          1.9540   -0.4900   -2.6430 n2        1 936     -0.061000
      8 C8          2.1010   -0.4520   -1.2560 c1        1 936     -0.036000
      9 C9          0.8200   -0.4400   -0.6820 c1        1 936     -0.135000
     10 O10        -2.2870   -0.4500   -0.6410 o         1 936     -0.257000
     11 O11         0.4470   -0.4100   -5.3310 o         1 936     -0.298000
     12 C12         2.9410   -0.3470   -3.6700 c2        1 936     -0.136000
     13 C19         0.5930   -0.6380    0.8100 c2        1 936      0.033000
     14 O20         0.3690    0.6120    1.4190 os        1 936     -0.210000
     15 C24         0.1520    0.5400    2.8020 c2        1 936      0.130000
     16 C25         1.2400    0.5730    3.6790 c2        1 936     -0.177000
     17 C26         1.0270    0.6260    5.0400 c1        1 936     -0.039000
     18 C27        -0.2840    0.6450    5.5460 c1        1 936     -0.176000
     19 C28        -1.3590    0.6120    4.6810 c1        1 936     -0.027000
     20 C29        -1.1420    0.5590    3.3000 c1        1 936     -0.211000
     21 N34        -0.5050    0.5920    6.9780 no        1 936      0.574000
     22 O35        -1.7850    0.5600    7.4730 o         1 936     -0.366500
     23 O36         0.4620    0.6000    7.7570 o         1 936     -0.366500
     24 C37         3.5250   -0.4640   -0.7300 c2        1 936     -0.136000
     25 O44        -3.8520   -0.5270   -3.0250 os        1 936     -0.175000
     26 C45        -4.5700    0.6740   -3.3680 c3        1 936     -0.087000
     27 H11        -2.1790   -0.3800   -5.1550 ha        1 936      0.165000
     28 H121        3.8400   -0.5440   -3.2940 ha        1 936      0.107500
     29 H122        2.7470   -0.9750   -4.4020 ha        1 936      0.107500
     30 H123        2.9230    0.5770   -4.0160 ha        1 936      0.107500
     31 H191       -0.1910   -1.2130    0.9490 h4        1 936      0.124000
     32 H192        1.3980   -1.0690    1.2160 h4        1 936      0.124000
     33 H251        2.1740    0.5590    3.3200 ha        1 936      0.159000
     34 H261        1.8000    0.6500    5.6620 ha        1 936      0.170000
     35 H281       -2.2790    0.6250    5.0370 ha        1 936      0.172000
     36 H291       -1.9230    0.5350    2.6690 ha        1 936      0.169000
     37 H371        3.9160   -1.3350   -0.8810 ha        1 936      0.107500
     38 H372        4.0510    0.2140   -1.1960 ha        1 936      0.107500
     39 H373        3.5200   -0.2730    0.2170 ha        1 936      0.107500
     40 H451       -4.4260    0.8840   -4.3220 h1        1 936      0.094667
     41 H452       -5.5440    0.5370   -3.2020 h1        1 936      0.094667
     42 H453       -4.2410    1.4270   -2.8100 h1        1 936      0.094667
@<TRIPOS>BOND
     1    1    6 1   
     2    1   27 1   
     3    2    3 1   
     4    2   11 1   
     5    3    4 1   
     6    3    7 1   
     7    4    9 1   
     8    5    6 1   
     9    5   10 1   
    10    6   25 1   
    11    7    8 1   
    12    8    9 1   
    13   12   28 1   
    14   12   29 1   
    15   12   30 1   
    16   13   14 1   
    17   13   31 1   
    18   13   32 1   
    19   14   15 1   
    20   15   16 1   
    21   15   20 1   
    22   16   17 1   
    23   16   33 1   
    24   17   34 1   
    25   18   19 1   
    26   18   21 1   
    27   19   35 1   
    28   20   36 1   
    29   21   22 1   
    30   21   23 1   
    31   24   37 1   
    32   24   38 1   
    33   24   39 1   
    34   25   26 1   
    35   26   40 1   
    36   26   41 1   
    37   26   42 1   
@<TRIPOS>SUBSTRUCTURE
     1 936         1 TEMP              0 ****  ****    0 ROOT
