@<TRIPOS>MOLECULE
936
   42    44     1     0     0
SMALL
bcc


@<TRIPOS>ATOM
      1 C1          0.1690    0.0630   -0.2250 cc        1 936     -0.328200
      2 C2          1.6280    0.2010   -0.1780 c         1 936      0.619900
      3 C3          2.1920    0.1450    1.1760 cc        1 936     -0.155900
      4 C4          1.3990   -0.0470    2.3370 cd        1 936     -0.192600
      5 C5         -0.0430   -0.2110    2.2750 c         1 936      0.610900
      6 C6         -0.5930   -0.1180    0.8770 cd        1 936      0.091900
      7 N7          3.5210    0.2600    1.5660 na        1 936      0.003900
      8 C8          3.5890    0.1490    2.9600 cc        1 936     -0.065600
      9 C9          2.2810   -0.0440    3.4620 cd        1 936     -0.110300
     10 O10        -0.7710   -0.4160    3.2480 o         1 936     -0.490100
     11 O11         2.3130    0.3540   -1.1990 o         1 936     -0.540100
     12 C12         4.6500    0.4890    0.7170 c3        1 936     -0.002400
     13 C19         1.8760   -0.2470    4.8650 c3        1 936      0.191700
     14 O20         2.4720    0.8080    5.6490 os        1 936     -0.323900
     15 C24         2.0830    0.8720    6.9630 ca        1 936      0.176100
     16 C25         2.6060    1.9730    7.6760 ca        1 936     -0.197500
     17 C26         2.2960    2.1320    9.0170 ca        1 936     -0.030500
     18 C27         1.4620    1.1920    9.6540 ca        1 936     -0.221200
     19 C28         0.9390    0.1000    8.9450 ca        1 936     -0.030500
     20 C29         1.2500   -0.0610    7.5990 ca        1 936     -0.197500
     21 N34         1.1350    1.3610   11.0890 no        1 936      0.319200
     22 O35         1.5870    2.3030   11.6850 o         1 936     -0.215000
     23 O36         0.4250    0.5510   11.6250 o         1 936     -0.215000
     24 C37         4.8510    0.2280    3.7180 c3        1 936     -0.041800
     25 O44        -1.9550   -0.2470    0.8830 os        1 936     -0.290900
     26 C45        -2.6120   -0.1750   -0.3820 c3        1 936      0.102700
     27 H11        -0.2670    0.1210   -1.2350 ha        1 936      0.164000
     28 H121        5.4760   -0.2180    0.9990 h1        1 936      0.073033
     29 H122        5.0140    1.5440    0.8500 h1        1 936      0.073033
     30 H123        4.3630    0.3280   -0.3580 h1        1 936      0.073033
     31 H191        2.2580   -1.2320    5.2520 h1        1 936      0.069700
     32 H192        0.7550   -0.2010    4.9600 h1        1 936      0.069700
     33 H251        3.2510    2.6960    7.1560 ha        1 936      0.159500
     34 H261        2.6980    2.9890    9.5840 ha        1 936      0.172000
     35 H281        0.2830   -0.6290    9.4520 ha        1 936      0.172000
     36 H291        0.8340   -0.9190    7.0510 ha        1 936      0.159500
     37 H371        5.5180   -0.6360    3.4680 hc        1 936      0.061033
     38 H372        5.3990    1.1760    3.4860 hc        1 936      0.061033
     39 H373        4.6210    0.2060    4.8140 hc        1 936      0.061033
     40 H451       -2.4330    0.8180   -0.8600 h1        1 936      0.054700
     41 H452       -2.2680   -1.0030   -1.0480 h1        1 936      0.054700
     42 H453       -3.6930   -0.3000   -0.1140 h1        1 936      0.054700
@<TRIPOS>BOND
     1    1    2 1   
     2    1    6 2   
     3    1   27 1   
     4    2    3 1   
     5    2   11 2   
     6    3    4 2   
     7    3    7 1   
     8    4    5 1   
     9    4    9 1   
    10    5    6 1   
    11    5   10 2   
    12    6   25 1   
    13    7    8 1   
    14    7   12 1   
    15    8    9 2   
    16    8   24 1   
    17    9   13 1   
    18   12   28 1   
    19   12   29 1   
    20   12   30 1   
    21   13   14 1   
    22   13   31 1   
    23   13   32 1   
    24   14   15 1   
    25   15   16 ar  
    26   15   20 ar  
    27   16   17 ar  
    28   16   33 1   
    29   17   18 ar  
    30   17   34 1   
    31   18   19 ar  
    32   18   21 1   
    33   19   20 ar  
    34   19   35 1   
    35   20   36 1   
    36   21   22 1   
    37   21   23 1   
    38   24   37 1   
    39   24   38 1   
    40   24   39 1   
    41   25   26 1   
    42   26   40 1   
    43   26   41 1   
    44   26   42 1   
@<TRIPOS>SUBSTRUCTURE
     1 936         1 TEMP              0 ****  ****    0 ROOT
