@<TRIPOS>MOLECULE
936
   42    44     1     0     0
SMALL
bcc


@<TRIPOS>ATOM
      1 C1          0.1600   -0.0170   -0.2170 cc        1 936     -0.328200
      2 C2          1.6150    0.1640   -0.1770 c         1 936      0.619900
      3 C3          2.1850    0.1370    1.1760 cc        1 936     -0.155900
      4 C4          1.4010   -0.0670    2.3400 cd        1 936     -0.193600
      5 C5         -0.0340   -0.2740    2.2850 c         1 936      0.610900
      6 C6         -0.5920   -0.2110    0.8890 cd        1 936      0.091900
      7 N7          3.5110    0.2940    1.5590 na        1 936      0.003900
      8 C8          3.5880    0.1990    2.9540 cc        1 936     -0.065600
      9 C9          2.2870   -0.0280    3.4620 cd        1 936     -0.110300
     10 O10        -0.7540   -0.4900    3.2640 o         1 936     -0.490100
     11 O11         2.2920    0.3280   -1.2020 o         1 936     -0.540100
     12 C12         4.6300    0.5490    0.7040 c3        1 936     -0.002400
     13 C19         1.8930   -0.2300    4.8680 c3        1 936      0.191700
     14 O20         2.4640    0.8460    5.6420 os        1 936     -0.323900
     15 C24         2.0810    0.9090    6.9580 ca        1 936      0.176100
     16 C25         2.5820    2.0260    7.6620 ca        1 936     -0.197500
     17 C26         2.2770    2.1850    9.0040 ca        1 936     -0.030500
     18 C27         1.4700    1.2290    9.6510 ca        1 936     -0.221200
     19 C28         0.9680    0.1210    8.9510 ca        1 936     -0.030500
     20 C29         1.2760   -0.0410    7.6040 ca        1 936     -0.197500
     21 N34         1.1470    1.3980   11.0870 no        1 936      0.319200
     22 O35         1.5810    2.3530   11.6750 o         1 936     -0.215000
     23 O36         0.4590    0.5750   11.6320 o         1 936     -0.215000
     24 C37         4.8490    0.3210    3.7070 c3        1 936     -0.041800
     25 O44        -1.9500   -0.3800    0.9010 os        1 936     -0.290900
     26 C45        -2.6130   -0.3400   -0.3620 c3        1 936      0.102700
     27 H11        -0.2800    0.0180   -1.2270 ha        1 936      0.164000
     28 H121        4.3440    0.3680   -0.3680 h1        1 936      0.073033
     29 H122        5.4770   -0.1310    0.9900 h1        1 936      0.073033
     30 H123        4.9620    1.6160    0.8250 h1        1 936      0.073033
     31 H191        0.7720   -0.2120    4.9670 h1        1 936      0.069700
     32 H192        2.3010   -1.2010    5.2620 h1        1 936      0.069700
     33 H251        3.2070    2.7610    7.1330 ha        1 936      0.159500
     34 H261        2.6620    3.0550    9.5630 ha        1 936      0.172000
     35 H281        0.3330   -0.6210    9.4660 ha        1 936      0.172000
     36 H291        0.8770   -0.9110    7.0640 ha        1 936      0.159500
     37 H371        5.3680    1.2820    3.4640 hc        1 936      0.061033
     38 H372        4.6250    0.3020    4.8030 hc        1 936      0.061033
     39 H373        5.5400   -0.5260    3.4610 hc        1 936      0.061033
     40 H451       -2.4650    0.6540   -0.8500 h1        1 936      0.054700
     41 H452       -3.6880   -0.4950   -0.0890 h1        1 936      0.054700
     42 H453       -2.2470   -1.1630   -1.0220 h1        1 936      0.054700
@<TRIPOS>BOND
     1    1    2 1   
     2    1    6 2   
     3    1   27 1   
     4    2    3 1   
     5    2   11 2   
     6    3    4 2   
     7    3    7 1   
     8    4    5 1   
     9    4    9 1   
    10    5    6 1   
    11    5   10 2   
    12    6   25 1   
    13    7    8 1   
    14    7   12 1   
    15    8    9 2   
    16    8   24 1   
    17    9   13 1   
    18   12   28 1   
    19   12   29 1   
    20   12   30 1   
    21   13   14 1   
    22   13   31 1   
    23   13   32 1   
    24   14   15 1   
    25   15   16 ar  
    26   15   20 ar  
    27   16   17 ar  
    28   16   33 1   
    29   17   18 ar  
    30   17   34 1   
    31   18   19 ar  
    32   18   21 1   
    33   19   20 ar  
    34   19   35 1   
    35   20   36 1   
    36   21   22 1   
    37   21   23 1   
    38   24   37 1   
    39   24   38 1   
    40   24   39 1   
    41   25   26 1   
    42   26   40 1   
    43   26   41 1   
    44   26   42 1   
@<TRIPOS>SUBSTRUCTURE
     1 936         1 TEMP              0 ****  ****    0 ROOT
