@<TRIPOS>MOLECULE
936
   42    44     1     0     0
SMALL
bcc


@<TRIPOS>ATOM
      1 C1          4.7740    1.1270    0.0960 cc        1 936     -0.328200
      2 C2          4.6710   -0.3240    0.2860 c         1 936      0.619900
      3 C3          3.3170   -0.8590    0.0980 cc        1 936     -0.155900
      4 C4          2.2080   -0.0480   -0.2570 cd        1 936     -0.192600
      5 C5          2.3280    1.3830   -0.4720 c         1 936      0.610900
      6 C6          3.7210    1.9050   -0.2410 cd        1 936      0.091900
      7 N7          2.8800   -2.1720    0.2210 na        1 936      0.003900
      8 C8          1.5060   -2.2130   -0.0460 cc        1 936     -0.065600
      9 C9          1.0660   -0.9030   -0.3480 cd        1 936     -0.110300
     10 O10         1.4050    2.1250   -0.8150 o         1 936     -0.490100
     11 O11         5.6480   -1.0250    0.5820 o         1 936     -0.540100
     12 C12         3.6660   -3.3090    0.5910 c3        1 936     -0.002400
     13 C19        -0.2930   -0.4750   -0.7270 c3        1 936      0.191700
     14 O20        -1.2080   -1.0080    0.2530 os        1 936     -0.323900
     15 C24        -2.5110   -0.5880    0.1500 ca        1 936      0.176100
     16 C25        -3.3590   -1.0490    1.1800 ca        1 936     -0.197500
     17 C26        -4.7010   -0.7030    1.1700 ca        1 936     -0.030500
     18 C27        -5.2030    0.1050    0.1320 ca        1 936     -0.221200
     19 C28        -4.3590    0.5670   -0.8910 ca        1 936     -0.030500
     20 C29        -3.0130    0.2190   -0.8820 ca        1 936     -0.197500
     21 N34        -6.6390    0.4710    0.1200 no        1 936      0.319200
     22 O35        -7.3510    0.0700    1.0030 o         1 936     -0.215000
     23 O36        -7.0590    1.1590   -0.7730 o         1 936     -0.215000
     24 C37         0.7090   -3.4530   -0.0050 c3        1 936     -0.041800
     25 O44         3.7680    3.2600   -0.4250 os        1 936     -0.290900
     26 C45         5.0340    3.8900   -0.2350 c3        1 936      0.102700
     27 H11         5.7820    1.5400    0.2510 ha        1 936      0.164000
     28 H121        3.4050   -3.6230    1.6380 h1        1 936      0.073033
     29 H122        3.4420   -4.1590   -0.1090 h1        1 936      0.073033
     30 H123        4.7590   -3.0550    0.5410 h1        1 936      0.073033
     31 H191       -0.3620    0.6480   -0.7360 h1        1 936      0.069700
     32 H192       -0.5760   -0.8890   -1.7340 h1        1 936      0.069700
     33 H251       -2.9430   -1.6750    1.9820 ha        1 936      0.159500
     34 H261       -5.3730   -1.0570    1.9710 ha        1 936      0.172000
     35 H281       -4.7620    1.2030   -1.6980 ha        1 936      0.172000
     36 H291       -2.3590    0.5870   -1.6860 ha        1 936      0.159500
     37 H371        0.8170   -3.9640    0.9850 hc        1 936      0.061033
     38 H372       -0.3700   -3.1990   -0.1610 hc        1 936      0.061033
     39 H373        1.0370   -4.1620   -0.8070 hc        1 936      0.061033
     40 H451        4.8120    4.9700   -0.4330 h1        1 936      0.054700
     41 H452        5.3910    3.7430    0.8130 h1        1 936      0.054700
     42 H453        5.7800    3.4950   -0.9660 h1        1 936      0.054700
@<TRIPOS>BOND
     1    1    2 1   
     2    1    6 2   
     3    1   27 1   
     4    2    3 1   
     5    2   11 2   
     6    3    4 2   
     7    3    7 1   
     8    4    5 1   
     9    4    9 1   
    10    5    6 1   
    11    5   10 2   
    12    6   25 1   
    13    7    8 1   
    14    7   12 1   
    15    8    9 2   
    16    8   24 1   
    17    9   13 1   
    18   12   28 1   
    19   12   29 1   
    20   12   30 1   
    21   13   14 1   
    22   13   31 1   
    23   13   32 1   
    24   14   15 1   
    25   15   16 ar  
    26   15   20 ar  
    27   16   17 ar  
    28   16   33 1   
    29   17   18 ar  
    30   17   34 1   
    31   18   19 ar  
    32   18   21 1   
    33   19   20 ar  
    34   19   35 1   
    35   20   36 1   
    36   21   22 1   
    37   21   23 1   
    38   24   37 1   
    39   24   38 1   
    40   24   39 1   
    41   25   26 1   
    42   26   40 1   
    43   26   41 1   
    44   26   42 1   
@<TRIPOS>SUBSTRUCTURE
     1 936         1 TEMP              0 ****  ****    0 ROOT
