@<TRIPOS>MOLECULE
936
   42    44     1     0     0
SMALL
bcc


@<TRIPOS>ATOM
      1 C1          0.1590    0.0130   -0.2180 cc        1 936     -0.328200
      2 C2          1.6160    0.1710   -0.1770 c         1 936      0.619900
      3 C3          2.1850    0.1320    1.1760 cc        1 936     -0.155900
      4 C4          1.3980   -0.0610    2.3400 cd        1 936     -0.192600
      5 C5         -0.0410   -0.2460    2.2840 c         1 936      0.610900
      6 C6         -0.5970   -0.1700    0.8880 cd        1 936      0.091900
      7 N7          3.5130    0.2680    1.5610 na        1 936      0.003900
      8 C8          3.5880    0.1680    2.9550 cc        1 936     -0.065600
      9 C9          2.2840   -0.0390    3.4630 cd        1 936     -0.110300
     10 O10        -0.7640   -0.4520    3.2620 o         1 936     -0.490100
     11 O11         2.2960    0.3250   -1.2010 o         1 936     -0.540100
     12 C12         4.6360    0.5060    0.7070 c3        1 936     -0.002400
     13 C19         1.8850   -0.2370    4.8680 c3        1 936      0.191700
     14 O20         2.4710    0.8300    5.6430 os        1 936     -0.323900
     15 C24         2.0860    0.8980    6.9590 ca        1 936      0.176100
     16 C25         2.5990    2.0100    7.6630 ca        1 936     -0.197500
     17 C26         2.2930    2.1720    9.0040 ca        1 936     -0.030500
     18 C27         1.4730    1.2270    9.6500 ca        1 936     -0.221200
     19 C28         0.9590    0.1250    8.9500 ca        1 936     -0.030500
     20 C29         1.2680   -0.0410    7.6030 ca        1 936     -0.197500
     21 N34         1.1490    1.4010   11.0850 no        1 936      0.319200
     22 O35         1.5930    2.3510   11.6740 o         1 936     -0.215000
     23 O36         0.4500    0.5870   11.6290 o         1 936     -0.215000
     24 C37         4.8500    0.2690    3.7090 c3        1 936     -0.041800
     25 O44        -1.9570   -0.3180    0.8990 os        1 936     -0.290900
     26 C45        -2.6190   -0.2640   -0.3640 c3        1 936      0.102700
     27 H11        -0.2800    0.0570   -1.2270 ha        1 936      0.164000
     28 H121        5.4730   -0.1880    0.9920 h1        1 936      0.073033
     29 H122        4.9860    1.5670    0.8290 h1        1 936      0.073033
     30 H123        4.3490    0.3310   -0.3660 h1        1 936      0.073033
     31 H191        2.2800   -1.2140    5.2610 h1        1 936      0.069700
     32 H192        0.7650   -0.2040    4.9660 h1        1 936      0.069700
     33 H251        3.2340    2.7360    7.1360 ha        1 936      0.159500
     34 H261        2.6870    3.0380    9.5640 ha        1 936      0.172000
     35 H281        0.3140   -0.6090    9.4640 ha        1 936      0.172000
     36 H291        0.8590   -0.9070    7.0620 ha        1 936      0.159500
     37 H371        5.5280   -0.5880    3.4630 hc        1 936      0.061033
     38 H372        5.3850    1.2220    3.4690 hc        1 936      0.061033
     39 H373        4.6250    0.2520    4.8050 hc        1 936      0.061033
     40 H451       -2.4540    0.7280   -0.8500 h1        1 936      0.054700
     41 H452       -2.2660   -1.0920   -1.0260 h1        1 936      0.054700
     42 H453       -3.6970   -0.4020   -0.0930 h1        1 936      0.054700
@<TRIPOS>BOND
     1    1    2 1   
     2    1    6 2   
     3    1   27 1   
     4    2    3 1   
     5    2   11 2   
     6    3    4 2   
     7    3    7 1   
     8    4    5 1   
     9    4    9 1   
    10    5    6 1   
    11    5   10 2   
    12    6   25 1   
    13    7    8 1   
    14    7   12 1   
    15    8    9 2   
    16    8   24 1   
    17    9   13 1   
    18   12   28 1   
    19   12   29 1   
    20   12   30 1   
    21   13   14 1   
    22   13   31 1   
    23   13   32 1   
    24   14   15 1   
    25   15   16 ar  
    26   15   20 ar  
    27   16   17 ar  
    28   16   33 1   
    29   17   18 ar  
    30   17   34 1   
    31   18   19 ar  
    32   18   21 1   
    33   19   20 ar  
    34   19   35 1   
    35   20   36 1   
    36   21   22 1   
    37   21   23 1   
    38   24   37 1   
    39   24   38 1   
    40   24   39 1   
    41   25   26 1   
    42   26   40 1   
    43   26   41 1   
    44   26   42 1   
@<TRIPOS>SUBSTRUCTURE
     1 936         1 TEMP              0 ****  ****    0 ROOT
