@<TRIPOS>MOLECULE
937
   66    70     1     0     0
SMALL
bcc


@<TRIPOS>ATOM
      1 N1         -0.3280   -0.9510    0.5310 nb        1 937     -0.686000
      2 C2          1.0500   -0.8170    0.3740 ca        1 937      0.879900
      3 N3          1.9210   -0.4720    1.3980 nb        1 937     -0.764000
      4 C4         -0.8110   -0.7580    1.7600 ca        1 937      0.474200
      5 C5         -0.0100   -0.4250    2.8810 ca        1 937     -0.334900
      6 C6          1.3760   -0.2920    2.6190 ca        1 937      0.532800
      7 C7          0.3120   -0.4100    5.3920 c3        1 937     -0.026100
      8 C8         -0.6190   -0.1740    4.2090 c3        1 937     -0.019100
      9 C9          1.6850    0.0020    5.0860 cc        1 937     -0.095600
     10 C10         2.2050    0.0490    3.7690 cd        1 937     -0.173800
     11 N11         3.5500    0.4550    3.8620 na        1 937      0.228400
     12 N12         3.8990    0.6740    5.1100 nd        1 937     -0.498800
     13 C13         2.7920    0.4030    5.9130 cc        1 937      0.157800
     14 N14         1.6320   -1.1240   -0.8780 nh        1 937     -0.676300
     15 C15         2.7760    0.5200    7.3450 c         1 937      0.512600
     16 O16         1.8690    0.3400    8.1440 o         1 937     -0.425100
     17 C17         0.9650   -0.7360   -2.0720 ca        1 937      0.141600
     18 C18        -0.1760   -1.4100   -2.5190 ca        1 937     -0.141000
     19 C19        -0.7890   -1.0760   -3.7560 ca        1 937      0.187600
     20 C20        -0.2100   -0.0460   -4.5370 ca        1 937     -0.186000
     21 C21         0.9150    0.6380   -4.0980 ca        1 937     -0.069000
     22 C22         1.4960    0.3090   -2.8750 ca        1 937     -0.005900
     23 O23         2.5310    1.0920   -2.3620 os        1 937     -0.373900
     24 C24         3.8360    0.8160   -2.8020 c3        1 937      0.811700
     25 F25         4.0100    1.0930   -4.1140 f         1 937     -0.216967
     26 F26         4.6260    1.6280   -2.0520 f         1 937     -0.216967
     27 F27         4.1890   -0.4720   -2.5530 f         1 937     -0.216967
     28 N28         4.0980    0.9400    7.9770 n4        1 937     -0.755400
     29 C29         4.4610    0.6880    2.7370 c3        1 937     -0.013700
     30 C30         4.2320    2.0440    2.0390 c3        1 937      0.123400
     31 O31         5.2540    2.2180    1.0870 oh        1 937     -0.575800
     32 N32        -1.9860   -1.7100   -4.1330 nh        1 937     -0.641000
     33 C33        -2.6460   -1.2180   -5.3310 c3        1 937      0.189800
     34 C34        -4.0550   -1.8130   -5.5290 c3        1 937      0.164300
     35 N35        -4.0730   -3.2640   -5.4320 n3        1 937     -0.731600
     36 C36        -3.4590   -3.7280   -4.1980 c3        1 937      0.164300
     37 C37        -2.0430   -3.1570   -3.9850 c3        1 937      0.189800
     38 C38        -5.3890   -3.8220   -5.6460 c3        1 937      0.155100
     39 H4         -1.9080   -0.8730    1.8660 h4        1 937      0.046100
     40 H14         2.6200   -0.9370   -0.9190 hn        1 937      0.434800
     41 H81C       -0.9760    0.8940    4.2320 hc        1 937      0.071700
     42 H82C       -1.5260   -0.8260    4.3380 hc        1 937      0.071700
     43 H71C       -0.0740    0.1420    6.2920 hc        1 937      0.081700
     44 H72C        0.3180   -1.5060    5.6570 hc        1 937      0.081700
     45 H291        5.5260    0.6560    3.1110 h1        1 937      0.107200
     46 H292        4.3220   -0.1570    2.0050 h1        1 937      0.107200
     47 H281        4.8250    0.2570    7.7400 hn        1 937      0.469133
     48 H282        4.3800    1.8550    7.6120 hn        1 937      0.469133
     49 H18        -0.6080   -2.2000   -1.8820 ha        1 937      0.167000
     50 H20        -0.6350    0.2320   -5.5140 ha        1 937      0.152000
     51 H21         1.3600    1.4390   -4.7100 ha        1 937      0.160000
     52 H301        4.3590    2.8910    2.7660 h1        1 937      0.066200
     53 H302        3.2130    2.0900    1.5760 h1        1 937      0.066200
     54 H31         4.9750    1.7910    0.2660 ho        1 937      0.422000
     55 H331       -2.0290   -1.4360   -6.2510 h1        1 937      0.049200
     56 H332       -2.7660   -0.1020   -5.2360 h1        1 937      0.049200
     57 H371       -1.3380   -3.6550   -4.7120 h1        1 937      0.049200
     58 H372       -1.7270   -3.4380   -2.9420 h1        1 937      0.049200
     59 H341       -4.3970   -1.5300   -6.5640 h1        1 937      0.043950
     60 H342       -4.7570   -1.3340   -4.7860 h1        1 937      0.043950
     61 H361       -4.0910   -3.4780   -3.2950 h1        1 937      0.043950
     62 H362       -3.3660   -4.8480   -4.2560 h1        1 937      0.043950
     63 H381       -6.1370   -3.5120   -4.8660 h1        1 937      0.037700
     64 H382       -5.7610   -3.4890   -6.6510 h1        1 937      0.037700
     65 H383       -5.3100   -4.9410   -5.6430 h1        1 937      0.037700
     66 H283        3.9980    0.9940    8.9960 hn        1 937      0.469133
@<TRIPOS>BOND
     1    1    2 ar  
     2    1    4 ar  
     3    2    3 ar  
     4    2   14 1   
     5    3    6 ar  
     6    4    5 ar  
     7    4   39 1   
     8    5    6 ar  
     9    5    8 1   
    10    6   10 1   
    11    7    8 1   
    12    7    9 1   
    13    7   43 1   
    14    7   44 1   
    15    8   41 1   
    16    8   42 1   
    17    9   10 2   
    18    9   13 1   
    19   10   11 1   
    20   11   12 1   
    21   11   29 1   
    22   12   13 2   
    23   13   15 1   
    24   14   17 1   
    25   14   40 1   
    26   15   16 2   
    27   15   28 1   
    28   17   18 ar  
    29   17   22 ar  
    30   18   19 ar  
    31   18   49 1   
    32   19   20 ar  
    33   19   32 1   
    34   20   21 ar  
    35   20   50 1   
    36   21   22 ar  
    37   21   51 1   
    38   22   23 1   
    39   23   24 1   
    40   24   25 1   
    41   24   26 1   
    42   24   27 1   
    43   28   47 1   
    44   28   48 1   
    45   28   66 1   
    46   29   30 1   
    47   29   45 1   
    48   29   46 1   
    49   30   31 1   
    50   30   52 1   
    51   30   53 1   
    52   31   54 1   
    53   32   33 1   
    54   32   37 1   
    55   33   34 1   
    56   33   55 1   
    57   33   56 1   
    58   34   35 1   
    59   34   59 1   
    60   34   60 1   
    61   35   36 1   
    62   35   38 1   
    63   36   37 1   
    64   36   61 1   
    65   36   62 1   
    66   37   57 1   
    67   37   58 1   
    68   38   63 1   
    69   38   64 1   
    70   38   65 1   
@<TRIPOS>SUBSTRUCTURE
     1 937         1 TEMP              0 ****  ****    0 ROOT
