@<TRIPOS>MOLECULE
937
   67    71     1     0     0
SMALL
bcc


@<TRIPOS>ATOM
      1 N1         -0.2870   -1.2970    0.6540 nb        1 937     -0.630000
      2 C2          1.0720   -1.1340    0.5350 ca        1 937      0.726900
      3 N3          1.9340   -0.7110    1.5100 nb        1 937     -0.664000
      4 C4         -0.8100   -0.9410    1.8420 ca        1 937      0.457200
      5 C5         -0.0370   -0.4260    2.9120 ca        1 937     -0.228900
      6 C6          1.3660   -0.3520    2.6860 ca        1 937      0.528800
      7 C7          0.2120    0.1380    5.3840 c3        1 937     -0.032100
      8 C8         -0.6820    0.0700    4.1520 c3        1 937     -0.043100
      9 C9          1.6120    0.4170    5.0490 cc        1 937     -0.077600
     10 C10         2.1790    0.1450    3.7800 cd        1 937     -0.209800
     11 N11         3.5490    0.4700    3.8460 na        1 937      0.221400
     12 N12         3.8670    0.9330    5.0360 nd        1 937     -0.466800
     13 C13         2.7180    0.9230    5.8190 cc        1 937      0.172800
     14 N14         1.7100   -1.4410   -0.7850 n4        1 937     -0.609100
     15 C15         2.6490    1.3650    7.1930 c         1 937      0.504600
     16 O16         1.6800    1.4110    7.9350 o         1 937     -0.402100
     17 C17         0.9840   -0.8690   -1.9260 ca        1 937      0.014600
     18 C18        -0.1160   -1.5460   -2.4580 ca        1 937     -0.184000
     19 C19        -0.8100   -1.0230   -3.5900 ca        1 937      0.233600
     20 C20        -0.3140    0.1900   -4.1590 ca        1 937     -0.159000
     21 C21         0.7710    0.8540   -3.6200 ca        1 937     -0.048000
     22 C22         1.4300    0.3420   -2.4950 ca        1 937      0.021100
     23 O23         2.4370    1.0690   -1.8740 os        1 937     -0.370900
     24 C24         3.7450    0.9390   -2.3920 c3        1 937      0.822700
     25 F25         3.8130    1.1240   -3.7270 f         1 937     -0.206967
     26 F26         4.4780    1.8710   -1.7440 f         1 937     -0.206967
     27 F27         4.2210   -0.2990   -2.0740 f         1 937     -0.206967
     28 N28         3.9530    1.8400    7.8040 n4        1 937     -0.749400
     29 C29         4.5340    0.2670    2.7760 c3        1 937     -0.003700
     30 C30         4.3440    1.1790    1.5470 c3        1 937      0.130400
     31 O31         4.4020    0.3810    0.3810 oh        1 937     -0.613800
     32 N32        -1.9470   -1.6370   -4.0810 nh        1 937     -0.629000
     33 C33        -2.4540   -1.2030   -5.3720 c3        1 937      0.199300
     34 C34        -3.7520   -1.8870   -5.8400 c3        1 937      0.159300
     35 N35        -3.7560   -3.3170   -5.5810 n3        1 937     -0.729600
     36 C36        -3.5770   -3.5720   -4.1630 c3        1 937      0.159300
     37 C37        -2.2650   -2.9750   -3.6180 c3        1 937      0.199300
     38 C38        -4.9030   -3.9940   -6.1430 c3        1 937      0.152100
     39 H4         -1.9090   -1.0690    1.9350 h4        1 937      0.077100
     40 H14         1.7490   -2.4650   -0.8870 hn        1 937      0.489300
     41 H81C       -1.0810    1.1020    3.9300 hc        1 937      0.095200
     42 H82C       -1.5710   -0.5750    4.3990 hc        1 937      0.095200
     43 H71C       -0.1870    0.9220    6.0870 hc        1 937      0.098200
     44 H72C        0.1690   -0.8430    5.9390 hc        1 937      0.098200
     45 H291        5.5650    0.4300    3.2050 h1        1 937      0.105200
     46 H292        4.4470   -0.8120    2.4560 h1        1 937      0.105200
     47 H281        4.3190    2.6370    7.2720 hn        1 937      0.476800
     48 H282        4.6450    1.0840    7.7820 hn        1 937      0.476800
     49 H18        -0.4520   -2.4850   -1.9890 ha        1 937      0.163000
     50 H20        -0.7910    0.6270   -5.0530 ha        1 937      0.175000
     51 H21         1.1400    1.7910   -4.0720 ha        1 937      0.182000
     52 H301        5.1330    1.9760    1.5400 h1        1 937      0.076200
     53 H302        3.3320    1.6670    1.5240 h1        1 937      0.076200
     54 H31         5.3180    0.3660    0.0730 ho        1 937      0.427000
     55 H331       -2.6790   -0.0990   -5.3080 h1        1 937      0.053700
     56 H332       -1.6570   -1.3640   -6.1570 h1        1 937      0.053700
     57 H371       -2.3710   -2.9440   -2.4940 h1        1 937      0.053700
     58 H372       -1.4170   -3.6730   -3.8800 h1        1 937      0.053700
     59 H341       -3.8300   -1.7260   -6.9520 h1        1 937      0.055700
     60 H342       -4.6290   -1.3690   -5.3520 h1        1 937      0.055700
     61 H361       -3.5280   -4.6860   -4.0050 h1        1 937      0.055700
     62 H362       -4.4360   -3.1700   -3.5500 h1        1 937      0.055700
     63 H381       -4.9240   -3.8050   -7.2480 h1        1 937      0.048367
     64 H382       -4.7900   -5.0960   -5.9680 h1        1 937      0.048367
     65 H383       -5.8790   -3.6560   -5.6990 h1        1 937      0.048367
     66 H142        2.6790   -1.0510   -0.7790 hn        1 937      0.489300
     67 H283        3.7960    2.1270    8.7800 hn        1 937      0.476800
@<TRIPOS>BOND
     1    1    2 ar  
     2    1    4 ar  
     3    2    3 ar  
     4    2   14 1   
     5    3    6 ar  
     6    4    5 ar  
     7    4   39 1   
     8    5    6 ar  
     9    5    8 1   
    10    6   10 1   
    11    7    8 1   
    12    7    9 1   
    13    7   43 1   
    14    7   44 1   
    15    8   41 1   
    16    8   42 1   
    17    9   10 2   
    18    9   13 1   
    19   10   11 1   
    20   11   12 1   
    21   11   29 1   
    22   12   13 2   
    23   13   15 1   
    24   14   17 1   
    25   14   40 1   
    26   14   66 1   
    27   15   16 2   
    28   15   28 1   
    29   17   18 ar  
    30   17   22 ar  
    31   18   19 ar  
    32   18   49 1   
    33   19   20 ar  
    34   19   32 1   
    35   20   21 ar  
    36   20   50 1   
    37   21   22 ar  
    38   21   51 1   
    39   22   23 1   
    40   23   24 1   
    41   24   25 1   
    42   24   26 1   
    43   24   27 1   
    44   28   47 1   
    45   28   48 1   
    46   28   67 1   
    47   29   30 1   
    48   29   45 1   
    49   29   46 1   
    50   30   31 1   
    51   30   52 1   
    52   30   53 1   
    53   31   54 1   
    54   32   33 1   
    55   32   37 1   
    56   33   34 1   
    57   33   55 1   
    58   33   56 1   
    59   34   35 1   
    60   34   59 1   
    61   34   60 1   
    62   35   36 1   
    63   35   38 1   
    64   36   37 1   
    65   36   61 1   
    66   36   62 1   
    67   37   57 1   
    68   37   58 1   
    69   38   63 1   
    70   38   64 1   
    71   38   65 1   
@<TRIPOS>SUBSTRUCTURE
     1 937         1 TEMP              0 ****  ****    0 ROOT
