@<TRIPOS>MOLECULE
937
   66    70     1     0     0
SMALL
bcc


@<TRIPOS>ATOM
      1 N1         -0.3250   -0.9580    0.5310 nb        1 937     -0.686000
      2 C2          1.0520   -0.8170    0.3730 ca        1 937      0.879900
      3 N3          1.9220   -0.4680    1.3960 nb        1 937     -0.764000
      4 C4         -0.8080   -0.7690    1.7620 ca        1 937      0.474200
      5 C5         -0.0080   -0.4320    2.8820 ca        1 937     -0.334900
      6 C6          1.3770   -0.2920    2.6190 ca        1 937      0.532800
      7 C7          0.3170   -0.4170    5.3920 c3        1 937     -0.026100
      8 C8         -0.6160   -0.1850    4.2100 c3        1 937     -0.019100
      9 C9          1.6870    0.0030    5.0860 cc        1 937     -0.095600
     10 C10         2.2060    0.0540    3.7680 cd        1 937     -0.173800
     11 N11         3.5480    0.4670    3.8590 na        1 937      0.228400
     12 N12         3.8970    0.6870    5.1080 nd        1 937     -0.498800
     13 C13         2.7930    0.4090    5.9110 cc        1 937      0.157800
     14 N14         1.6340   -1.1200   -0.8790 nu        1 937     -0.676300
     15 C15         2.7780    0.5260    7.3430 c         1 937      0.512600
     16 O16         1.8730    0.3400    8.1430 o         1 937     -0.425100
     17 C17         0.9650   -0.7330   -2.0730 ca        1 937      0.141600
     18 C18        -0.1740   -1.4120   -2.5190 ca        1 937     -0.141000
     19 C19        -0.7900   -1.0790   -3.7550 ca        1 937      0.187600
     20 C20        -0.2160   -0.0460   -4.5350 ca        1 937     -0.186000
     21 C21         0.9060    0.6430   -4.0970 ca        1 937     -0.069000
     22 C22         1.4900    0.3150   -2.8750 ca        1 937     -0.005900
     23 O23         2.5230    1.1020   -2.3620 os        1 937     -0.373900
     24 C24         3.8280    0.8320   -2.8040 c3        1 937      0.811700
     25 F25         3.9990    1.1100   -4.1160 f         1 937     -0.216967
     26 F26         4.6150    1.6460   -2.0540 f         1 937     -0.216967
     27 F27         4.1870   -0.4560   -2.5570 f         1 937     -0.216967
     28 N28         4.0990    0.9520    7.9740 nz        1 937     -0.755400
     29 C29         4.4570    0.7050    2.7340 c3        1 937     -0.013700
     30 C30         4.2200    2.0610    2.0370 c3        1 937      0.123400
     31 O31         5.2400    2.2410    1.0850 oh        1 937     -0.575800
     32 N32        -1.9850   -1.7180   -4.1310 nh        1 937     -0.641000
     33 C33        -2.6480   -1.2270   -5.3280 c3        1 937      0.189800
     34 C34        -4.0540   -1.8270   -5.5250 c3        1 937      0.164300
     35 N35        -4.0660   -3.2790   -5.4300 n3        1 937     -0.731600
     36 C36        -3.4500   -3.7410   -4.1970 c3        1 937      0.164300
     37 C37        -2.0350   -3.1650   -3.9850 c3        1 937      0.189800
     38 C38        -5.3800   -3.8420   -5.6430 c3        1 937      0.155100
     39 H4         -1.9040   -0.8900    1.8690 h4        1 937      0.046100
     40 H14         2.6210   -0.9280   -0.9210 hn        1 937      0.434800
     41 H81C       -0.9790    0.8810    4.2350 hc        1 937      0.071700
     42 H82C       -1.5200   -0.8420    4.3400 hc        1 937      0.071700
     43 H71C       -0.0710    0.1330    6.2930 hc        1 937      0.081700
     44 H72C        0.3290   -1.5130    5.6560 hc        1 937      0.081700
     45 H291        4.3220   -0.1390    2.0020 h1        1 937      0.107200
     46 H292        5.5230    0.6790    3.1070 h1        1 937      0.107200
     47 H281        4.3750    1.8690    7.6090 hn        1 937      0.469133
     48 H282        4.8290    0.2740    7.7360 hn        1 937      0.469133
     49 H18        -0.6020   -2.2040   -1.8820 ha        1 937      0.167000
     50 H20        -0.6430    0.2320   -5.5110 ha        1 937      0.152000
     51 H21         1.3480    1.4460   -4.7090 ha        1 937      0.160000
     52 H301        4.3430    2.9080    2.7650 h1        1 937      0.066200
     53 H302        3.2000    2.1010    1.5750 h1        1 937      0.066200
     54 H31         4.9630    1.8130    0.2630 ho        1 937      0.422000
     55 H331       -2.7720   -0.1110   -5.2310 h1        1 937      0.049200
     56 H332       -2.0310   -1.4410   -6.2490 h1        1 937      0.049200
     57 H371       -1.7170   -3.4460   -2.9430 h1        1 937      0.049200
     58 H372       -1.3290   -3.6590   -4.7140 h1        1 937      0.049200
     59 H341       -4.3990   -1.5440   -6.5590 h1        1 937      0.043950
     60 H342       -4.7580   -1.3520   -4.7810 h1        1 937      0.043950
     61 H361       -3.3510   -4.8620   -4.2570 h1        1 937      0.043950
     62 H362       -4.0800   -3.4950   -3.2930 h1        1 937      0.043950
     63 H381       -6.1280   -3.5360   -4.8610 h1        1 937      0.037700
     64 H382       -5.2970   -4.9600   -5.6420 h1        1 937      0.037700
     65 H383       -5.7550   -3.5090   -6.6460 h1        1 937      0.037700
     66 H283        3.9990    1.0050    8.9940 hn        1 937      0.469133
@<TRIPOS>BOND
     1    1    2 ar  
     2    1    4 ar  
     3    2    3 ar  
     4    2   14 1   
     5    3    6 ar  
     6    4    5 ar  
     7    4   39 1   
     8    5    6 ar  
     9    5    8 1   
    10    6   10 1   
    11    7    8 1   
    12    7    9 1   
    13    7   43 1   
    14    7   44 1   
    15    8   41 1   
    16    8   42 1   
    17    9   10 2   
    18    9   13 1   
    19   10   11 1   
    20   11   12 1   
    21   11   29 1   
    22   12   13 2   
    23   13   15 1   
    24   14   17 1   
    25   14   40 1   
    26   15   16 2   
    27   15   28 1   
    28   17   18 ar  
    29   17   22 ar  
    30   18   19 ar  
    31   18   49 1   
    32   19   20 ar  
    33   19   32 1   
    34   20   21 ar  
    35   20   50 1   
    36   21   22 ar  
    37   21   51 1   
    38   22   23 1   
    39   23   24 1   
    40   24   25 1   
    41   24   26 1   
    42   24   27 1   
    43   28   47 1   
    44   28   48 1   
    45   28   66 1   
    46   29   30 1   
    47   29   45 1   
    48   29   46 1   
    49   30   31 1   
    50   30   52 1   
    51   30   53 1   
    52   31   54 1   
    53   32   33 1   
    54   32   37 1   
    55   33   34 1   
    56   33   55 1   
    57   33   56 1   
    58   34   35 1   
    59   34   59 1   
    60   34   60 1   
    61   35   36 1   
    62   35   38 1   
    63   36   37 1   
    64   36   61 1   
    65   36   62 1   
    66   37   57 1   
    67   37   58 1   
    68   38   63 1   
    69   38   64 1   
    70   38   65 1   
@<TRIPOS>SUBSTRUCTURE
     1 937         1 TEMP              0 ****  ****    0 ROOT
