@<TRIPOS>MOLECULE
937
   65    69     1     0     0
SMALL
bcc


@<TRIPOS>ATOM
      1 N1          0.2830    1.7290    0.0070 nb        1 937     -0.710000
      2 C2          0.5480    0.4600    0.4950 ca        1 937      0.854900
      3 N3          1.8010   -0.1330    0.5130 nb        1 937     -0.756000
      4 C4          1.3380    2.4170   -0.4570 ca        1 937      0.454200
      5 C5          2.6570    1.9220   -0.4720 ca        1 937     -0.322900
      6 C6          2.8290    0.6050    0.0430 ca        1 937      0.559800
      7 C7          5.1460    2.3860   -0.4980 c3        1 937     -0.015100
      8 C8          3.7680    2.7150   -1.0540 c3        1 937     -0.020100
      9 C9          5.2890    0.9530   -0.2290 cc        1 937     -0.141600
     10 C10         4.1920    0.1010    0.0430 cd        1 937     -0.210800
     11 N11         4.7190   -1.1780    0.2950 na        1 937      0.157400
     12 N12         6.0440   -1.1800    0.1690 nd        1 937     -0.483800
     13 C13         6.4430    0.0990   -0.1360 cc        1 937      0.249800
     14 N14        -0.5080   -0.2840    1.0990 nh        1 937     -0.679300
     15 C15         7.8410    0.5340   -0.3550 c         1 937      0.603600
     16 O16         8.1010    1.6960   -0.7360 o         1 937     -0.621100
     17 C17        -1.7930   -0.2730    0.4990 ca        1 937      0.156600
     18 C18        -2.6010    0.8720    0.5260 ca        1 937     -0.141000
     19 C19        -3.9230    0.8510    0.0150 ca        1 937      0.176600
     20 C20        -4.4250   -0.3600   -0.5180 ca        1 937     -0.192000
     21 C21        -3.6320   -1.4990   -0.5620 ca        1 937     -0.076000
     22 C22        -2.3290   -1.4590   -0.0710 ca        1 937     -0.004900
     23 O23        -1.4870   -2.5560   -0.2590 os        1 937     -0.367900
     24 C24        -1.5680   -3.6060    0.6700 c3        1 937      0.808700
     25 F25        -2.7480   -4.2670    0.5910 f         1 937     -0.217300
     26 F26        -0.5540   -4.4420    0.3330 f         1 937     -0.217300
     27 F27        -1.3760   -3.1780    1.9440 f         1 937     -0.217300
     28 N28         8.8560   -0.3590   -0.1290 n         1 937     -0.662000
     29 C29         3.9530   -2.3920    0.5400 c3        1 937      0.007300
     30 C30         3.3530   -3.0070   -0.7370 c3        1 937      0.115400
     31 O31         2.6060   -4.1520   -0.3870 oh        1 937     -0.587800
     32 N32        -4.6710    2.0470   -0.0200 nh        1 937     -0.640000
     33 C33        -5.9400    2.0090   -0.7240 c3        1 937      0.188800
     34 C34        -6.5600    3.4100   -0.9060 c3        1 937      0.163800
     35 N35        -6.6330    4.1640    0.3360 n3        1 937     -0.732600
     36 C36        -5.3480    4.2130    1.0180 c3        1 937      0.163800
     37 C37        -4.7200    2.8180    1.2140 c3        1 937      0.188800
     38 C38        -7.2160    5.4740    0.1560 c3        1 937      0.156100
     39 H4          1.1090    3.4290   -0.8420 h4        1 937      0.033100
     40 H14        -0.2250   -1.2160    1.3550 hn        1 937      0.426800
     41 H81C        3.7720    2.5350   -2.1660 hc        1 937      0.057200
     42 H82C        3.5700    3.8090   -0.8980 hc        1 937      0.057200
     43 H71C        5.9410    2.7230   -1.2190 hc        1 937      0.080200
     44 H72C        5.3160    2.9520    0.4600 hc        1 937      0.080200
     45 H291        4.6240   -3.1590    1.0220 h1        1 937      0.088200
     46 H292        3.1320   -2.1440    1.2680 h1        1 937      0.088200
     47 H281        8.6810   -1.2870    0.1600 hn        1 937      0.319500
     48 H282        9.7900   -0.0720   -0.2830 hn        1 937      0.319500
     49 H18        -2.1850    1.8060    0.9390 ha        1 937      0.171000
     50 H20        -5.4520   -0.4280   -0.9070 ha        1 937      0.144000
     51 H21        -4.0230   -2.4400   -0.9800 ha        1 937      0.154000
     52 H301        2.7200   -2.2620   -1.2850 h1        1 937      0.061700
     53 H302        4.1640   -3.3870   -1.4150 h1        1 937      0.061700
     54 H31         1.7710   -3.8530   -0.0060 ho        1 937      0.408000
     55 H331       -5.7620    1.5850   -1.7520 h1        1 937      0.047950
     56 H332       -6.6860    1.3510   -0.1900 h1        1 937      0.047950
     57 H371       -5.3050    2.2650    2.0050 h1        1 937      0.047950
     58 H372       -3.6740    2.9740    1.5960 h1        1 937      0.047950
     59 H341       -5.9760    3.9630   -1.6990 h1        1 937      0.041450
     60 H342       -7.6100    3.2680   -1.2860 h1        1 937      0.041450
     61 H361       -4.6090    4.8690    0.4720 h1        1 937      0.041450
     62 H362       -5.5160    4.6540    2.0390 h1        1 937      0.041450
     63 H381       -8.2360    5.3560   -0.2950 h1        1 937      0.034700
     64 H382       -7.3190    5.9630    1.1600 h1        1 937      0.034700
     65 H383       -6.6060    6.1460   -0.5090 h1        1 937      0.034700
@<TRIPOS>BOND
     1    1    2 ar  
     2    1    4 ar  
     3    2    3 ar  
     4    2   14 1   
     5    3    6 ar  
     6    4    5 ar  
     7    4   39 1   
     8    5    6 ar  
     9    5    8 1   
    10    6   10 1   
    11    7    8 1   
    12    7    9 1   
    13    7   43 1   
    14    7   44 1   
    15    8   41 1   
    16    8   42 1   
    17    9   10 2   
    18    9   13 1   
    19   10   11 1   
    20   11   12 1   
    21   11   29 1   
    22   12   13 2   
    23   13   15 1   
    24   14   17 1   
    25   14   40 1   
    26   15   16 2   
    27   15   28 1   
    28   17   18 ar  
    29   17   22 ar  
    30   18   19 ar  
    31   18   49 1   
    32   19   20 ar  
    33   19   32 1   
    34   20   21 ar  
    35   20   50 1   
    36   21   22 ar  
    37   21   51 1   
    38   22   23 1   
    39   23   24 1   
    40   24   25 1   
    41   24   26 1   
    42   24   27 1   
    43   28   47 1   
    44   28   48 1   
    45   29   30 1   
    46   29   45 1   
    47   29   46 1   
    48   30   31 1   
    49   30   52 1   
    50   30   53 1   
    51   31   54 1   
    52   32   33 1   
    53   32   37 1   
    54   33   34 1   
    55   33   55 1   
    56   33   56 1   
    57   34   35 1   
    58   34   59 1   
    59   34   60 1   
    60   35   36 1   
    61   35   38 1   
    62   36   37 1   
    63   36   61 1   
    64   36   62 1   
    65   37   57 1   
    66   37   58 1   
    67   38   63 1   
    68   38   64 1   
    69   38   65 1   
@<TRIPOS>SUBSTRUCTURE
     1 937         1 TEMP              0 ****  ****    0 ROOT
