@<TRIPOS>MOLECULE
937
   65    61     1     0     0
SMALL
bcc


@<TRIPOS>ATOM
      1 N1         -1.3430    0.3290    0.7600 n1        1 937     -0.203000
      2 C2          0.0550    0.3810    0.7490 c1        1 937      0.154000
      3 N3          0.7420    0.5120    1.9120 n1        1 937     -0.226000
      4 C4         -2.0050    0.4080    1.9130 c1        1 937     -0.006000
      5 C5         -1.3120    0.5410    3.0970 c1        1 937     -0.194000
      6 C6          0.0780    0.5930    3.0840 c1        1 937      0.126000
      7 C7         -1.3150    0.8070    5.6090 c3        1 937     -0.100000
      8 C8         -2.0580    0.6820    4.3810 c3        1 937     -0.103000
      9 C9          0.1690    0.6680    5.5760 c2        1 937     -0.068000
     10 C10         0.8400    0.6580    4.3680 c1        1 937     -0.121500
     11 N11         2.1860    0.7730    4.6330 n2        1 937     -0.065500
     12 N12         2.3470    0.8540    6.0060 n2        1 937     -0.065500
     13 C13         1.1050    0.7890    6.5850 c1        1 937     -0.121500
     14 N14         0.7940    0.3290   -0.4170 n3        1 937     -0.218000
     15 C15         0.9400    1.0400    8.0640 c1        1 937      0.387000
     16 O16         0.2640    1.9470    8.4400 o         1 937     -0.380000
     17 C17         0.1460    0.4450   -1.6690 c2        1 937      0.093000
     18 C18        -0.1950   -0.7020   -2.3870 c2        1 937     -0.145000
     19 C19        -0.8210   -0.5840   -3.6360 c1        1 937      0.094000
     20 C20        -1.0980    0.6660   -4.1560 c1        1 937     -0.134000
     21 C21        -0.7610    1.8090   -3.4460 c1        1 937     -0.134000
     22 C22        -0.1350    1.7020   -2.1960 c1        1 937     -0.050000
     23 O23         0.0230    2.8450   -1.3990 os        1 937     -0.248000
     24 C24         0.7960    3.8220   -1.9820 c3        1 937      0.524000
     25 F25         1.0950    4.7520   -1.0780 f         1 937     -0.146333
     26 F26         1.9210    3.2760   -2.4480 f         1 937     -0.146333
     27 F27         0.1330    4.3700   -2.9690 f         1 937     -0.146333
     28 N28         1.4650    0.1090    9.0060 n3        1 937     -0.424000
     29 C29         3.2910    1.0010    3.7790 c2        1 937     -0.051000
     30 C30         4.4060    1.6960    4.5620 c3        1 937     -0.022000
     31 O31         5.5060    0.8930    4.6010 oh        1 937     -0.323000
     32 N32        -1.1240   -1.7830   -4.4250 n3        1 937     -0.243000
     33 C33        -0.1800   -1.8980   -5.4860 c3        1 937     -0.049000
     34 C34        -0.5190   -3.0120   -6.4360 c3        1 937     -0.073000
     35 N35        -1.8700   -2.9340   -6.9090 n3        1 937     -0.258000
     36 C36        -2.8160   -2.8210   -5.8520 c3        1 937     -0.073000
     37 C37        -2.4730   -1.7060   -4.8960 c3        1 937     -0.049000
     38 C38        -2.1710   -4.0910   -7.7110 c3        1 937     -0.120000
     39 H4         -3.0040    0.3720    1.9190 ha        1 937      0.167000
     40 H14         1.7330    0.2330   -0.3780 hn        1 937      0.241000
     41 H81C       -2.6490    1.4960    4.3010 hc        1 937      0.095500
     42 H82C       -2.6490   -0.1120    4.4710 hc        1 937      0.095500
     43 H71C       -1.5100    1.6550    5.9700 hc        1 937      0.118500
     44 H72C       -1.6550    0.1380    6.2220 hc        1 937      0.118500
     45 H291        3.0210    1.5560    3.0500 ha        1 937      0.127500
     46 H292        3.6300    0.1160    3.4210 ha        1 937      0.127500
     47 H281        2.1030   -0.4780    8.7550 hn        1 937      0.231500
     48 H282        1.1750    0.1180    9.8460 hn        1 937      0.231500
     49 H18        -0.0040   -1.5700   -2.0260 ha        1 937      0.166000
     50 H20        -1.5240    0.7440   -5.0060 ha        1 937      0.148500
     51 H21        -0.9680    2.7290   -3.8350 ha        1 937      0.148500
     52 H301        4.0940    1.8810    5.4990 h1        1 937      0.102000
     53 H302        4.6240    2.4960    4.1470 h1        1 937      0.102000
     54 H31         6.1620    1.3050    5.0700 ho        1 937      0.213000
     55 H331        0.7290   -2.0690   -5.0940 h1        1 937      0.087500
     56 H332       -0.1570   -1.0230   -6.0030 h1        1 937      0.087500
     57 H371       -2.6040   -0.8400   -5.3590 h1        1 937      0.087500
     58 H372       -3.1050   -1.7510   -4.0920 h1        1 937      0.087500
     59 H341        0.1000   -2.9710   -7.2160 h1        1 937      0.080250
     60 H342       -0.3970   -3.8500   -5.9860 h1        1 937      0.080250
     61 H361       -2.8460   -3.6600   -5.3640 h1        1 937      0.080250
     62 H362       -3.6800   -2.6490   -6.2270 h1        1 937      0.080250
     63 H381       -2.9950   -4.4790   -7.4140 h1        1 937      0.073667
     64 H382       -2.2570   -3.8190   -8.6710 h1        1 937      0.073667
     65 H383       -1.4710   -4.7290   -7.6240 h1        1 937      0.073667
@<TRIPOS>BOND
     1    1    4 1   
     2    2    3 1   
     3    2   14 1   
     4    4   39 1   
     5    5    6 1   
     6    5    8 1   
     7    7    8 1   
     8    7    9 1   
     9    7   43 1   
    10    7   44 1   
    11    8   41 1   
    12    8   42 1   
    13    9   10 1   
    14    9   13 1   
    15   10   11 1   
    16   11   12 1   
    17   12   13 1   
    18   14   17 1   
    19   14   40 1   
    20   15   16 1   
    21   15   28 1   
    22   17   18 1   
    23   17   22 1   
    24   18   19 1   
    25   18   49 1   
    26   19   32 1   
    27   20   21 1   
    28   20   50 1   
    29   21   51 1   
    30   22   23 1   
    31   23   24 1   
    32   24   25 1   
    33   24   26 1   
    34   24   27 1   
    35   28   47 1   
    36   28   48 1   
    37   29   30 1   
    38   29   45 1   
    39   29   46 1   
    40   30   31 1   
    41   30   52 1   
    42   30   53 1   
    43   31   54 1   
    44   32   33 1   
    45   32   37 1   
    46   33   34 1   
    47   33   55 1   
    48   33   56 1   
    49   34   35 1   
    50   34   59 1   
    51   34   60 1   
    52   35   36 1   
    53   35   38 1   
    54   36   37 1   
    55   36   61 1   
    56   36   62 1   
    57   37   57 1   
    58   37   58 1   
    59   38   63 1   
    60   38   64 1   
    61   38   65 1   
@<TRIPOS>SUBSTRUCTURE
     1 937         1 TEMP              0 ****  ****    0 ROOT
