@<TRIPOS>MOLECULE
939
   58    61     1     0     0
SMALL
bcc


@<TRIPOS>ATOM
      1 N1          0.5570    1.4040    0.5750 nb        1 939     -0.731000
      2 C2          0.8920    0.2200   -0.0640 ca        1 939      0.871900
      3 N3          2.1890   -0.2190   -0.2890 nb        1 939     -0.765000
      4 C4          3.1920    0.5920    0.1260 ca        1 939      0.566800
      5 C5          2.9330    1.8270    0.7720 ca        1 939     -0.396600
      6 C6          1.5870    2.1690    0.9710 ca        1 939      0.461200
      7 N7         -0.1330   -0.6030   -0.5960 nh        1 939     -0.697300
      8 C8          4.5820    0.1940   -0.0700 cc        1 939     -0.213800
      9 N9          5.0420   -0.8360   -0.9130 na        1 939     -0.017100
     10 C10         6.4200   -0.9030   -0.8140 cc        1 939     -0.106300
     11 C11         6.8620    0.0780    0.0990 cd        1 939     -0.228600
     12 C12         5.7020    0.7700    0.5660 cd        1 939     -0.089000
     13 C13         8.2290    0.3860    0.5210 c         1 939      0.704700
     14 N14         9.2470   -0.4470    0.1080 n         1 939     -0.679000
     15 O15         8.5020    1.3800    1.2290 o         1 939     -0.619100
     16 C16        -1.4660   -0.5170   -0.1360 ca        1 939      0.176600
     17 C17        -2.1220   -1.6700    0.3750 ca        1 939     -0.007900
     18 C18        -3.4670   -1.6330    0.7390 ca        1 939     -0.074000
     19 C19        -4.1910   -0.4560    0.6150 ca        1 939     -0.196000
     20 C20        -3.5760    0.7190    0.1210 ca        1 939      0.177600
     21 C21        -2.2130    0.6650   -0.2570 ca        1 939     -0.149000
     22 O22        -1.3770   -2.8210    0.6370 os        1 939     -0.362900
     23 C23        -1.4480   -3.8630   -0.3010 c3        1 939      0.808700
     24 F24        -0.8820   -3.5010   -1.4820 f         1 939     -0.218633
     25 F25        -0.7290   -4.8760    0.2400 f         1 939     -0.218633
     26 F26        -2.7160   -4.2860   -0.5270 f         1 939     -0.218633
     27 C27         4.2560   -1.6810   -1.7580 c3        1 939      0.020600
     28 N28        -4.2610    1.9530    0.0660 nh        1 939     -0.640000
     29 C29        -5.5900    1.9930    0.6520 c3        1 939      0.189800
     30 C30        -6.1500    3.4260    0.7530 c3        1 939      0.163800
     31 N31        -6.0710    4.1560   -0.5040 n3        1 939     -0.732600
     32 C32        -4.7310    4.1230   -1.0690 c3        1 939      0.163800
     33 C33        -4.1620    2.6950   -1.1810 c3        1 939      0.189800
     34 C34        -6.5960    5.4980   -0.3990 c3        1 939      0.156100
     35 H6          1.3070    3.1110    1.4790 h4        1 939      0.031100
     36 H7          0.1610   -1.5470   -0.7770 hn        1 939      0.441800
     37 H5          3.7440    2.4850    1.1010 ha        1 939      0.164000
     38 H12         5.7080    1.5850    1.2870 ha        1 939      0.176000
     39 H10         6.9950   -1.6260   -1.3950 h4        1 939      0.168000
     40 H271        3.6020   -1.0590   -2.4260 h1        1 939      0.063700
     41 H272        4.9360   -2.3100   -2.3930 h1        1 939      0.063700
     42 H273        3.6080   -2.3550   -1.1350 h1        1 939      0.063700
     43 H141        9.0580   -1.2860   -0.3710 hn        1 939      0.307000
     44 H142       10.1690   -0.2730    0.4230 hn        1 939      0.307000
     45 H21        -1.7160    1.5720   -0.6380 ha        1 939      0.166000
     46 H18        -3.9470   -2.5490    1.1190 ha        1 939      0.152000
     47 H19        -5.2520   -0.4640    0.9050 ha        1 939      0.143000
     48 H291       -6.3170    1.3620    0.0630 h1        1 939      0.046950
     49 H292       -5.5280    1.5820    1.6990 h1        1 939      0.046950
     50 H331       -3.0790    2.7870   -1.4720 h1        1 939      0.046950
     51 H332       -4.7030    2.1530   -2.0110 h1        1 939      0.046950
     52 H301       -7.2360    3.3460    1.0380 h1        1 939      0.041200
     53 H302       -5.6110    3.9670    1.5850 h1        1 939      0.041200
     54 H321       -4.7850    4.5490   -2.1100 h1        1 939      0.041200
     55 H322       -4.0090    4.7540   -0.4720 h1        1 939      0.041200
     56 H341       -6.0120    6.1520    0.3060 h1        1 939      0.034367
     57 H342       -6.5830    5.9700   -1.4160 h1        1 939      0.034367
     58 H343       -7.6570    5.4430   -0.0390 h1        1 939      0.034367
@<TRIPOS>BOND
     1    1    2 ar  
     2    1    6 ar  
     3    2    3 ar  
     4    2    7 1   
     5    3    4 ar  
     6    4    5 ar  
     7    4    8 1   
     8    5    6 ar  
     9    5   37 1   
    10    6   35 1   
    11    7   16 1   
    12    7   36 1   
    13    8    9 1   
    14    8   12 2   
    15    9   10 1   
    16    9   27 1   
    17   10   11 2   
    18   10   39 1   
    19   11   12 1   
    20   11   13 1   
    21   12   38 1   
    22   13   14 1   
    23   13   15 2   
    24   14   43 1   
    25   14   44 1   
    26   16   17 ar  
    27   16   21 ar  
    28   17   18 ar  
    29   17   22 1   
    30   18   19 ar  
    31   18   46 1   
    32   19   20 ar  
    33   19   47 1   
    34   20   21 ar  
    35   20   28 1   
    36   21   45 1   
    37   22   23 1   
    38   23   24 1   
    39   23   25 1   
    40   23   26 1   
    41   27   40 1   
    42   27   41 1   
    43   27   42 1   
    44   28   29 1   
    45   28   33 1   
    46   29   30 1   
    47   29   48 1   
    48   29   49 1   
    49   30   31 1   
    50   30   52 1   
    51   30   53 1   
    52   31   32 1   
    53   31   34 1   
    54   32   33 1   
    55   32   54 1   
    56   32   55 1   
    57   33   50 1   
    58   33   51 1   
    59   34   56 1   
    60   34   57 1   
    61   34   58 1   
@<TRIPOS>SUBSTRUCTURE
     1 939         1 TEMP              0 ****  ****    0 ROOT
