@<TRIPOS>MOLECULE
939
   59    62     1     0     0
SMALL
bcc


@<TRIPOS>ATOM
      1 N1         -0.2250    0.6350    0.3290 nb        1 939     -0.700000
      2 C2          1.1520    0.4630    0.1900 ca        1 939      0.889900
      3 N3          2.0240    0.2550    1.2510 nb        1 939     -0.772000
      4 C4          1.4800    0.2430    2.4920 ca        1 939      0.526800
      5 C5          0.1030    0.4270    2.7200 ca        1 939     -0.395600
      6 C6         -0.7030    0.6160    1.5750 ca        1 939      0.477200
      7 N7          1.7390    0.5710   -1.0850 nu        1 939     -0.689300
      8 C8          2.3500   -0.0040    3.6460 cc        1 939     -0.149800
      9 N9          3.7420    0.2320    3.6930 na        1 939      0.033900
     10 C10         4.2160   -0.1390    4.9240 cc        1 939     -0.084300
     11 C11         3.1290   -0.6280    5.7040 cd        1 939     -0.314600
     12 C12         1.9490   -0.5360    4.8800 cd        1 939     -0.072000
     13 C13         3.1110   -1.1310    7.0310 c         1 939      0.617700
     14 N14         4.4790   -1.2210    7.7210 nz        1 939     -0.769400
     15 O15         2.1930   -1.5180    7.7410 o         1 939     -0.435100
     16 C16         0.9810    0.3660   -2.2650 ca        1 939      0.154600
     17 C17         1.3170   -0.6900   -3.1530 ca        1 939     -0.001900
     18 C18         0.6400   -0.8520   -4.3610 ca        1 939     -0.069000
     19 C19        -0.3830    0.0170   -4.7090 ca        1 939     -0.186000
     20 C20        -0.7610    1.0760   -3.8470 ca        1 939      0.186600
     21 C21        -0.0560    1.2360   -2.6260 ca        1 939     -0.146000
     22 O22         2.2470   -1.6490   -2.7500 os        1 939     -0.366900
     23 C23         3.5540   -1.5350   -3.2530 c3        1 939      0.810700
     24 F24         4.1720   -0.4390   -2.7370 f         1 939     -0.216633
     25 F25         4.1970   -2.6440   -2.8150 f         1 939     -0.216633
     26 F26         3.6040   -1.4830   -4.6050 f         1 939     -0.216633
     27 C27         4.5580    0.7720    2.6400 c3        1 939     -0.001400
     28 N28        -1.8570    1.9120   -4.1320 nh        1 939     -0.641000
     29 C29        -2.6440    1.5880   -5.3110 c3        1 939      0.189800
     30 C30        -3.9450    2.4100   -5.4060 c3        1 939      0.163800
     31 N31        -3.7220    3.8400   -5.2560 n3        1 939     -0.732600
     32 C32        -2.9740    4.1440   -4.0460 c3        1 939      0.163800
     33 C33        -1.6630    3.3410   -3.9370 c3        1 939      0.189800
     34 C34        -4.9390    4.6100   -5.3680 c3        1 939      0.156100
     35 H6         -1.7970    0.7560    1.6700 h4        1 939      0.046100
     36 H7          2.6720    0.2030   -1.1470 hn        1 939      0.446800
     37 H5         -0.3300    0.4260    3.7250 ha        1 939      0.160000
     38 H12         0.9430   -0.8360    5.1720 ha        1 939      0.194000
     39 H10         5.2730   -0.0350    5.1830 h4        1 939      0.174000
     40 H271        4.6490    0.0200    1.8080 h1        1 939      0.087700
     41 H272        5.5780    1.0140    3.0420 h1        1 939      0.087700
     42 H273        4.0830    1.7080    2.2370 h1        1 939      0.087700
     43 H141        5.0950   -1.8380    7.1880 hn        1 939      0.460133
     44 H142        4.9020   -0.2930    7.7780 hn        1 939      0.460133
     45 H21        -0.3370    2.0470   -1.9340 ha        1 939      0.162000
     46 H18         0.9340   -1.6720   -5.0370 ha        1 939      0.159000
     47 H19        -0.8880   -0.1360   -5.6750 ha        1 939      0.151000
     48 H291       -2.0460    1.7470   -6.2550 h1        1 939      0.048200
     49 H292       -2.9390    0.5020   -5.2520 h1        1 939      0.048200
     50 H331       -1.2460    3.5220   -2.9080 h1        1 939      0.048200
     51 H332       -0.9260    3.7450   -4.6900 h1        1 939      0.048200
     52 H301       -4.6780    2.0180   -4.6420 h1        1 939      0.043450
     53 H302       -4.3820    2.2330   -6.4290 h1        1 939      0.043450
     54 H321       -2.7000    5.2360   -4.0730 h1        1 939      0.043450
     55 H322       -3.5890    3.9620   -3.1160 h1        1 939      0.043450
     56 H341       -5.6830    4.3890   -4.5540 h1        1 939      0.037367
     57 H342       -5.4160    4.3860   -6.3580 h1        1 939      0.037367
     58 H343       -4.6800    5.7000   -5.3300 h1        1 939      0.037367
     59 H143        4.3600   -1.5980    8.6690 hn        1 939      0.460133
@<TRIPOS>BOND
     1    1    2 ar  
     2    1    6 ar  
     3    2    3 ar  
     4    2    7 1   
     5    3    4 ar  
     6    4    5 ar  
     7    4    8 1   
     8    5    6 ar  
     9    5   37 1   
    10    6   35 1   
    11    7   16 1   
    12    7   36 1   
    13    8    9 1   
    14    8   12 2   
    15    9   10 1   
    16    9   27 1   
    17   10   11 2   
    18   10   39 1   
    19   11   12 1   
    20   11   13 1   
    21   12   38 1   
    22   13   14 1   
    23   13   15 2   
    24   14   43 1   
    25   14   44 1   
    26   14   59 1   
    27   16   17 ar  
    28   16   21 ar  
    29   17   18 ar  
    30   17   22 1   
    31   18   19 ar  
    32   18   46 1   
    33   19   20 ar  
    34   19   47 1   
    35   20   21 ar  
    36   20   28 1   
    37   21   45 1   
    38   22   23 1   
    39   23   24 1   
    40   23   25 1   
    41   23   26 1   
    42   27   40 1   
    43   27   41 1   
    44   27   42 1   
    45   28   29 1   
    46   28   33 1   
    47   29   30 1   
    48   29   48 1   
    49   29   49 1   
    50   30   31 1   
    51   30   52 1   
    52   30   53 1   
    53   31   32 1   
    54   31   34 1   
    55   32   33 1   
    56   32   54 1   
    57   32   55 1   
    58   33   50 1   
    59   33   51 1   
    60   34   56 1   
    61   34   57 1   
    62   34   58 1   
@<TRIPOS>SUBSTRUCTURE
     1 939         1 TEMP              0 ****  ****    0 ROOT
