@<TRIPOS>MOLECULE
939
   59    62     1     0     0
SMALL
bcc


@<TRIPOS>ATOM
      1 N1         -0.2270    0.6370    0.3280 nb        1 939     -0.700000
      2 C2          1.1510    0.4610    0.1900 ca        1 939      0.889900
      3 N3          2.0210    0.2490    1.2520 nb        1 939     -0.772000
      4 C4          1.4760    0.2370    2.4920 ca        1 939      0.526800
      5 C5          0.0990    0.4230    2.7190 ca        1 939     -0.395600
      6 C6         -0.7050    0.6160    1.5740 ca        1 939      0.477200
      7 N7          1.7390    0.5700   -1.0840 nh        1 939     -0.689300
      8 C8          2.3450   -0.0160    3.6460 cc        1 939     -0.149800
      9 N9          3.7370    0.2170    3.6950 na        1 939      0.033900
     10 C10         4.2090   -0.1570    4.9250 cc        1 939     -0.084300
     11 C11         3.1210   -0.6450    5.7040 cd        1 939     -0.314600
     12 C12         1.9410   -0.5480    4.8790 cd        1 939     -0.072000
     13 C13         3.1000   -1.1510    7.0300 c         1 939      0.617700
     14 N14         4.4670   -1.2460    7.7210 n4        1 939     -0.769400
     15 O15         2.1810   -1.5370    7.7380 o         1 939     -0.435100
     16 C16         0.9810    0.3680   -2.2660 ca        1 939      0.154600
     17 C17         1.3150   -0.6870   -3.1540 ca        1 939     -0.001900
     18 C18         0.6390   -0.8460   -4.3640 ca        1 939     -0.069000
     19 C19        -0.3820    0.0260   -4.7100 ca        1 939     -0.186000
     20 C20        -0.7580    1.0840   -3.8480 ca        1 939      0.186600
     21 C21        -0.0540    1.2420   -2.6260 ca        1 939     -0.146000
     22 O22         2.2430   -1.6490   -2.7520 os        1 939     -0.366900
     23 C23         3.5510   -1.5370   -3.2540 c3        1 939      0.810700
     24 F24         4.1710   -0.4430   -2.7360 f         1 939     -0.216633
     25 F25         4.1910   -2.6490   -2.8180 f         1 939     -0.216633
     26 F26         3.6020   -1.4820   -4.6060 f         1 939     -0.216633
     27 C27         4.5550    0.7580    2.6430 c3        1 939     -0.001400
     28 N28        -1.8520    1.9240   -4.1330 nh        1 939     -0.641000
     29 C29        -2.6390    1.6030   -5.3120 c3        1 939      0.189800
     30 C30        -3.9380    2.4280   -5.4070 c3        1 939      0.164300
     31 N31        -3.7110    3.8570   -5.2550 n3        1 939     -0.732600
     32 C32        -2.9640    4.1580   -4.0440 c3        1 939      0.164300
     33 C33        -1.6540    3.3520   -3.9350 c3        1 939      0.189800
     34 C34        -4.9270    4.6300   -5.3670 c3        1 939      0.156100
     35 H6         -1.7990    0.7590    1.6690 h4        1 939      0.046100
     36 H7          2.6710    0.2000   -1.1460 hn        1 939      0.446800
     37 H5         -0.3350    0.4220    3.7240 ha        1 939      0.160000
     38 H12         0.9340   -0.8470    5.1700 ha        1 939      0.194000
     39 H10         5.2660   -0.0570    5.1850 h4        1 939      0.174000
     40 H271        4.0830    1.6950    2.2420 h1        1 939      0.087700
     41 H272        4.6460    0.0070    1.8100 h1        1 939      0.087700
     42 H273        5.5750    0.9960    3.0460 h1        1 939      0.087700
     43 H141        5.0820   -1.8630    7.1860 hn        1 939      0.460133
     44 H142        4.8920   -0.3200    7.7800 hn        1 939      0.460133
     45 H21        -0.3330    2.0510   -1.9330 ha        1 939      0.162000
     46 H18         0.9320   -1.6650   -5.0400 ha        1 939      0.159000
     47 H19        -0.8870   -0.1250   -5.6770 ha        1 939      0.151000
     48 H291       -2.9360    0.5170   -5.2540 h1        1 939      0.048200
     49 H292       -2.0400    1.7610   -6.2550 h1        1 939      0.048200
     50 H331       -0.9160    3.7550   -4.6880 h1        1 939      0.048200
     51 H332       -1.2380    3.5310   -2.9060 h1        1 939      0.048200
     52 H301       -4.3740    2.2530   -6.4300 h1        1 939      0.043450
     53 H302       -4.6730    2.0360   -4.6440 h1        1 939      0.043450
     54 H321       -3.5790    3.9770   -3.1150 h1        1 939      0.043450
     55 H322       -2.6870    5.2490   -4.0700 h1        1 939      0.043450
     56 H341       -5.6720    4.4100   -4.5530 h1        1 939      0.037367
     57 H342       -5.4040    4.4080   -6.3570 h1        1 939      0.037367
     58 H343       -4.6650    5.7200   -5.3280 h1        1 939      0.037367
     59 H143        4.3470   -1.6260    8.6670 hn        1 939      0.460133
@<TRIPOS>BOND
     1    1    2 ar  
     2    1    6 ar  
     3    2    3 ar  
     4    2    7 1   
     5    3    4 ar  
     6    4    5 ar  
     7    4    8 1   
     8    5    6 ar  
     9    5   37 1   
    10    6   35 1   
    11    7   16 1   
    12    7   36 1   
    13    8    9 1   
    14    8   12 2   
    15    9   10 1   
    16    9   27 1   
    17   10   11 2   
    18   10   39 1   
    19   11   12 1   
    20   11   13 1   
    21   12   38 1   
    22   13   14 1   
    23   13   15 2   
    24   14   43 1   
    25   14   44 1   
    26   14   59 1   
    27   16   17 ar  
    28   16   21 ar  
    29   17   18 ar  
    30   17   22 1   
    31   18   19 ar  
    32   18   46 1   
    33   19   20 ar  
    34   19   47 1   
    35   20   21 ar  
    36   20   28 1   
    37   21   45 1   
    38   22   23 1   
    39   23   24 1   
    40   23   25 1   
    41   23   26 1   
    42   27   40 1   
    43   27   41 1   
    44   27   42 1   
    45   28   29 1   
    46   28   33 1   
    47   29   30 1   
    48   29   48 1   
    49   29   49 1   
    50   30   31 1   
    51   30   52 1   
    52   30   53 1   
    53   31   32 1   
    54   31   34 1   
    55   32   33 1   
    56   32   54 1   
    57   32   55 1   
    58   33   50 1   
    59   33   51 1   
    60   34   56 1   
    61   34   57 1   
    62   34   58 1   
@<TRIPOS>SUBSTRUCTURE
     1 939         1 TEMP              0 ****  ****    0 ROOT
