@<TRIPOS>MOLECULE
939
   60    63     1     0     0
SMALL
bcc


@<TRIPOS>ATOM
      1 N1         -0.0540    1.9810    0.6680 nb        1 939     -0.649000
      2 C2          1.2740    1.7160    0.4430 ca        1 939      0.735900
      3 N3          2.1400    1.0460    1.2660 nb        1 939     -0.693000
      4 C4          1.6110    0.5860    2.4360 ca        1 939      0.553800
      5 C5          0.2430    0.7840    2.7480 ca        1 939     -0.303600
      6 C6         -0.5450    1.4990    1.8260 ca        1 939      0.475200
      7 N7          1.8410    2.2250   -0.8490 n4        1 939     -0.607100
      8 C8          2.4560   -0.1080    3.4040 cc        1 939     -0.201800
      9 N9          3.7710   -0.5820    3.1920 na        1 939      0.028900
     10 C10         4.2200   -1.1750    4.3440 cc        1 939     -0.051300
     11 C11         3.2010   -1.0930    5.3320 cd        1 939     -0.305600
     12 C12         2.0870   -0.4140    4.7280 cd        1 939     -0.041000
     13 C13         3.1760   -1.5550    6.6840 c         1 939      0.609700
     14 N14         4.4310   -2.2590    7.1880 n4        1 939     -0.762400
     15 O15         2.2890   -1.4750    7.5220 o         1 939     -0.410100
     16 C16         1.2220    1.5900   -2.0220 ca        1 939      0.009600
     17 C17         1.8920    0.5350   -2.6740 ca        1 939      0.031100
     18 C18         1.3580    0.0150   -3.8600 ca        1 939     -0.062000
     19 C19         0.1670    0.5010   -4.3640 ca        1 939     -0.152000
     20 C20        -0.5630    1.5370   -3.7010 ca        1 939      0.232600
     21 C21         0.0190    2.0930   -2.5240 ca        1 939     -0.187000
     22 O22         3.1440    0.1580   -2.1970 os        1 939     -0.390900
     23 C23         3.3140   -1.1730   -1.7590 c3        1 939      0.827700
     24 F24         3.1570   -2.0700   -2.7540 f         1 939     -0.205633
     25 F25         4.5840   -1.2050   -1.2880 f         1 939     -0.205633
     26 F26         2.4670   -1.4590   -0.7360 f         1 939     -0.205633
     27 C27         4.5520   -0.4790    1.9900 c3        1 939     -0.003400
     28 N28        -1.8010    1.9490   -4.1540 nh        1 939     -0.627000
     29 C29        -2.2150    1.5370   -5.4860 c3        1 939      0.198800
     30 C30        -3.6320    1.9720   -5.9030 c3        1 939      0.159800
     31 N31        -3.9340    3.3400   -5.5180 n3        1 939     -0.729600
     32 C32        -3.8000    3.4980   -4.0810 c3        1 939      0.159800
     33 C33        -2.3860    3.1460   -3.5790 c3        1 939      0.198800
     34 C34        -5.2030    3.8100   -6.0280 c3        1 939      0.152100
     35 H6         -1.6210    1.7020    2.0120 h4        1 939      0.082100
     36 H7          2.8580    2.0370   -0.8770 hn        1 939      0.486300
     37 H5         -0.2030    0.3950    3.6750 ha        1 939      0.191000
     38 H12         1.1470   -0.1840    5.2290 ha        1 939      0.197000
     39 H10         5.2200   -1.6190    4.4030 h4        1 939      0.189000
     40 H271        4.7790    0.6010    1.7780 h1        1 939      0.088367
     41 H272        5.5170   -1.0390    2.1180 h1        1 939      0.088367
     42 H273        3.9850   -0.9220    1.1230 h1        1 939      0.088367
     43 H141        4.2920   -2.5440    8.1680 hn        1 939      0.469800
     44 H142        4.6190   -3.0910    6.6230 hn        1 939      0.469800
     45 H21        -0.4790    2.9270   -2.0010 ha        1 939      0.168000
     46 H18         1.9030   -0.7870   -4.3890 ha        1 939      0.185000
     47 H19        -0.2050    0.0690   -5.3090 ha        1 939      0.177000
     48 H291       -2.2010    0.4090   -5.5260 h1        1 939      0.054450
     49 H292       -1.4770    1.9350   -6.2430 h1        1 939      0.054450
     50 H331       -1.7060    4.0260   -3.7750 h1        1 939      0.054450
     51 H332       -2.4700    2.9970   -2.4630 h1        1 939      0.054450
     52 H301       -3.6850    1.8990   -7.0270 h1        1 939      0.056200
     53 H302       -4.3760    1.2390   -5.4720 h1        1 939      0.056200
     54 H321       -3.9860    4.5790   -3.8220 h1        1 939      0.056200
     55 H322       -4.5500    2.8710   -3.5140 h1        1 939      0.056200
     56 H341       -5.1930    3.7210   -7.1460 h1        1 939      0.048700
     57 H342       -6.0820    3.2360   -5.6270 h1        1 939      0.048700
     58 H343       -5.3220    4.8910   -5.7540 h1        1 939      0.048700
     59 H72         1.6770    3.2420   -0.8920 hn        1 939      0.486300
     60 H143        5.2340   -1.6280    7.1350 hn        1 939      0.469800
@<TRIPOS>BOND
     1    1    2 ar  
     2    1    6 ar  
     3    2    3 ar  
     4    2    7 1   
     5    3    4 ar  
     6    4    5 ar  
     7    4    8 1   
     8    5    6 ar  
     9    5   37 1   
    10    6   35 1   
    11    7   16 1   
    12    7   36 1   
    13    7   59 1   
    14    8    9 1   
    15    8   12 2   
    16    9   10 1   
    17    9   27 1   
    18   10   11 2   
    19   10   39 1   
    20   11   12 1   
    21   11   13 1   
    22   12   38 1   
    23   13   14 1   
    24   13   15 2   
    25   14   43 1   
    26   14   44 1   
    27   14   60 1   
    28   16   17 ar  
    29   16   21 ar  
    30   17   18 ar  
    31   17   22 1   
    32   18   19 ar  
    33   18   46 1   
    34   19   20 ar  
    35   19   47 1   
    36   20   21 ar  
    37   20   28 1   
    38   21   45 1   
    39   22   23 1   
    40   23   24 1   
    41   23   25 1   
    42   23   26 1   
    43   27   40 1   
    44   27   41 1   
    45   27   42 1   
    46   28   29 1   
    47   28   33 1   
    48   29   30 1   
    49   29   48 1   
    50   29   49 1   
    51   30   31 1   
    52   30   52 1   
    53   30   53 1   
    54   31   32 1   
    55   31   34 1   
    56   32   33 1   
    57   32   54 1   
    58   32   55 1   
    59   33   50 1   
    60   33   51 1   
    61   34   56 1   
    62   34   57 1   
    63   34   58 1   
@<TRIPOS>SUBSTRUCTURE
     1 939         1 TEMP              0 ****  ****    0 ROOT
