@<TRIPOS>MOLECULE
939
   58    52     1     0     0
SMALL
bcc


@<TRIPOS>ATOM
      1 N1         -0.3240   -0.4690    1.4740 n1        1 939     -0.212000
      2 C2          0.6470    0.4500    1.2100 c1        1 939      0.159000
      3 N3          1.2230    1.1560    2.2400 n1        1 939     -0.240000
      4 C4          0.8280    0.9410    3.5110 c1        1 939      0.134000
      5 C5         -0.1480    0.0180    3.7770 c1        1 939     -0.267000
      6 C6         -0.7230   -0.6870    2.7510 c1        1 939     -0.004000
      7 N7          1.0710    0.6780   -0.1350 n3        1 939     -0.221000
      8 C8          1.5190    1.6630    4.6520 c2        1 939     -0.082000
      9 N9          1.1980    2.9080    5.1330 n2        1 939     -0.084000
     10 C10         2.0500    3.1970    6.1590 c1        1 939     -0.081000
     11 C11         2.9140    2.1170    6.3190 c1        1 939     -0.207000
     12 C12         2.5870    1.1790    5.3940 c1        1 939     -0.088000
     13 C13         4.0610    2.0210    7.3300 c1        1 939      0.379000
     14 N14         4.3210    3.1080    8.2240 n3        1 939     -0.440000
     15 O15         4.7380    1.0190    7.3830 o         1 939     -0.381000
     16 C16         0.7320   -0.2510   -1.1540 c2        1 939      0.108000
     17 C17         1.5910   -1.3040   -1.4500 c2        1 939     -0.068000
     18 C18         1.2450   -2.2320   -2.4260 c1        1 939     -0.064000
     19 C19         0.0410   -2.1080   -3.1060 c1        1 939     -0.208000
     20 C20        -0.8130   -1.0630   -2.8130 c1        1 939      0.123000
     21 C21        -0.4630   -0.1280   -1.8290 c1        1 939     -0.173000
     22 O22         2.7510   -1.4760   -0.7150 os        1 939     -0.245000
     23 C23         3.9190   -1.3770   -1.4730 c3        1 939      0.522000
     24 F24         4.9120   -0.9000   -0.7060 f         1 939     -0.148000
     25 F25         4.2540   -2.5870   -1.9350 f         1 939     -0.148000
     26 F26         3.7160   -0.5570   -2.4910 f         1 939     -0.148000
     27 C27         0.1360    3.7220    4.6860 c2        1 939     -0.079000
     28 N28        -2.0750   -0.9430   -3.5080 n3        1 939     -0.266000
     29 C29        -1.8140   -0.6950   -5.0180 c3        1 939     -0.049500
     30 C30        -3.0890   -0.6800   -5.8400 c3        1 939     -0.081500
     31 N31        -4.0400   -1.2540   -5.2290 n3        1 939     -0.261000
     32 C32        -3.9730   -2.3230   -4.5210 c3        1 939     -0.081500
     33 C33        -2.7080   -2.3520   -3.6880 c3        1 939     -0.049500
     34 C34        -5.2050   -1.3160   -6.0960 c3        1 939     -0.120000
     35 H6         -1.4100   -1.3370    2.9370 ha        1 939      0.166000
     36 H7          1.5810    1.4130   -0.3370 hn        1 939      0.240000
     37 H5         -0.4340   -0.1390    4.6930 ha        1 939      0.164000
     38 H12         3.0260    0.3160    5.2730 DU        1 939      0.172000
     39 H10         2.0540    4.0140    6.6860 DU        1 939      0.172000
     40 H271       -0.7280    3.3270    4.9720 ha        1 939      0.103333
     41 H272        0.1600    3.7830    3.7030 ha        1 939      0.103333
     42 H273        0.2270    4.6060    5.0660 ha        1 939      0.103333
     43 H141        3.9240    3.9250    8.0810 hn        1 939      0.221000
     44 H142        4.9010    2.9990    8.9150 hn        1 939      0.221000
     45 H21        -1.0670    0.6130   -1.6220 ha        1 939      0.165000
     46 H18         1.8560   -2.9810   -2.6360 ha        1 939      0.151000
     47 H19        -0.2040   -2.7630   -3.7950 ha        1 939      0.142000
     48 H291       -1.2240   -1.4070   -5.3600 h1        1 939      0.092500
     49 H292       -1.3580    0.1770   -5.1230 h1        1 939      0.092500
     50 H331       -2.9210   -2.7230   -2.7950 h1        1 939      0.092500
     51 H332       -2.0520   -2.9400   -4.1280 h1        1 939      0.092500
     52 H301       -3.3430    0.2590   -6.0250 h1        1 939      0.090750
     53 H302       -2.9270   -1.1470   -6.6990 h1        1 939      0.090750
     54 H321       -3.9850   -3.1100   -5.1210 h1        1 939      0.090750
     55 H322       -4.7600   -2.3620   -3.9180 h1        1 939      0.090750
     56 H341       -4.9380   -1.1100   -7.0180 h1        1 939      0.073333
     57 H342       -5.5940   -2.2230   -6.0610 h1        1 939      0.073333
     58 H343       -5.8660   -0.6680   -5.7980 h1        1 939      0.073333
@<TRIPOS>BOND
     1    1    6 1   
     2    2    3 1   
     3    2    7 1   
     4    4    5 1   
     5    4    8 1   
     6    5   37 1   
     7    6   35 1   
     8    7   16 1   
     9    7   36 1   
    10    8    9 1   
    11    8   12 1   
    12    9   10 1   
    13   10   11 1   
    14   11   12 1   
    15   13   14 1   
    16   13   15 1   
    17   14   43 1   
    18   14   44 1   
    19   16   17 1   
    20   16   21 1   
    21   17   18 1   
    22   17   22 1   
    23   18   46 1   
    24   19   20 1   
    25   19   47 1   
    26   20   28 1   
    27   21   45 1   
    28   22   23 1   
    29   23   24 1   
    30   23   25 1   
    31   23   26 1   
    32   27   40 1   
    33   27   41 1   
    34   27   42 1   
    35   28   29 1   
    36   28   33 1   
    37   29   30 1   
    38   29   48 1   
    39   29   49 1   
    40   30   31 1   
    41   30   52 1   
    42   30   53 1   
    43   31   32 1   
    44   31   34 1   
    45   32   33 1   
    46   32   54 1   
    47   32   55 1   
    48   33   50 1   
    49   33   51 1   
    50   34   56 1   
    51   34   57 1   
    52   34   58 1   
@<TRIPOS>SUBSTRUCTURE
     1 939         1 TEMP              0 ****  ****    0 ROOT
