@<TRIPOS>MOLECULE
93A
   36    34     1     0     0
SMALL
bcc


@<TRIPOS>ATOM
      1 O21        -4.5290    1.7900    1.7070 o         1 93A     -0.949000
      2 S16        -3.2530    2.3990    1.3690 ss        1 93A      2.939000
      3 O20        -3.4860    3.6390    0.6700 o         1 93A     -0.949000
      4 N17        -2.4860    2.6980    2.6710 n2        1 93A     -0.841000
      5 C18        -1.2380    3.1290    2.5720 c2        1 93A      0.418000
      6 O19        -0.7260    3.7270    3.4960 o         1 93A     -0.433000
      7 C13        -0.3090    2.4730    1.4180 c2        1 93A     -0.273000
      8 N12         0.9820    2.5410    1.1190 n2        1 93A     -0.093000
      9 C11         1.2160    1.7150   -0.0180 c1        1 93A     -0.142000
     10 N15        -2.4850    1.4540    0.4530 n2        1 93A     -0.756000
     11 C14        -0.9530    1.5650    0.4390 c2        1 93A      0.146000
     12 N10        -0.0140    1.1330   -0.4000 n2        1 93A     -0.178000
     13 C5         -0.2300    0.3380   -1.5280 c2        1 93A      0.139000
     14 O1         -0.6890   -0.8210   -1.1760 os        1 93A     -0.288000
     15 C4          1.1940    0.0550   -2.3080 c3        1 93A     -0.080000
     16 O7          0.9310   -0.3490   -3.7150 oh        1 93A     -0.376000
     17 C3          1.7350   -0.8590   -1.7070 c3        1 93A      0.165000
     18 O6          2.5040   -1.7400   -2.6740 oh        1 93A     -0.702000
     19 C2          0.5230   -1.6900   -1.0380 c3        1 93A     -0.054000
     20 C5'         0.7820   -1.9370    0.2790 c3        1 93A      0.012000
     21 O5'         1.4030   -3.1720    0.4020 os        1 93A     -0.763000
     22 P           0.9540   -4.1290    1.5840 p5        1 93A      1.727500
     23 O1P         1.1250   -3.4190    2.8960 o         1 93A     -0.753833
     24 O2P         1.7970   -5.3640    1.5730 o         1 93A     -0.753833
     25 O3P        -0.5060   -4.5110    1.4000 o         1 93A     -0.753833
     26 H17        -2.9460    2.7850    3.4730 hn        1 93A      0.208000
     27 H11         2.0790    1.5710   -0.4560 DU        1 93A      0.191000
     28 H15        -2.9320    1.0250   -0.2600 hn        1 93A      0.281000
     29 H5         -0.8570    0.7760   -2.1290 h4        1 93A      0.099000
     30 H4          1.7440    0.8370   -2.2860 h1        1 93A      0.085000
     31 HO7         1.2540    0.2860   -4.2780 ho        1 93A      0.237000
     32 H3          2.3530   -0.4950   -0.9910 h1        1 93A     -0.017000
     33 HO6         3.3550   -1.7490   -2.4490 ho        1 93A      0.257000
     34 H2          0.3930   -2.5080   -1.5060 h1        1 93A      0.113000
     35 H5'1        1.3590   -1.2490    0.6270 h1        1 93A      0.070500
     36 H5'2       -0.0440   -1.9430    0.7730 h1        1 93A      0.070500
@<TRIPOS>BOND
     1    1    2 1   
     2    2    3 1   
     3    4    5 1   
     4    4   26 1   
     5    5    6 1   
     6    5    7 1   
     7    7    8 1   
     8    7   11 1   
     9    8    9 1   
    10    9   12 1   
    11   10   11 1   
    12   10   28 1   
    13   11   12 1   
    14   13   14 1   
    15   13   15 1   
    16   13   29 1   
    17   14   19 1   
    18   15   16 1   
    19   15   17 1   
    20   15   30 1   
    21   16   31 1   
    22   17   18 1   
    23   17   19 1   
    24   17   32 1   
    25   18   33 1   
    26   19   20 1   
    27   19   34 1   
    28   20   21 1   
    29   20   35 1   
    30   20   36 1   
    31   21   22 1   
    32   22   23 1   
    33   22   24 1   
    34   22   25 1   
@<TRIPOS>SUBSTRUCTURE
     1 93A         1 TEMP              0 ****  ****    0 ROOT
