@<TRIPOS>MOLECULE
93A
   36    38     1     0     0
SMALL
bcc


@<TRIPOS>ATOM
      1 O21         1.7800    0.7140   -0.5650 o         1 93A     -0.656800
      2 S16         2.7490   -0.2200   -0.1530 s6        1 93A      1.607500
      3 O20         4.0420    0.0880   -0.6290 o         1 93A     -0.656800
      4 N17         2.7870   -0.2760    1.4900 n         1 93A     -0.709300
      5 C18         2.2140   -1.2340    2.3610 c         1 93A      0.682000
      6 O19         2.2700   -1.0340    3.5830 o         1 93A     -0.606500
      7 C13         1.6230   -2.3850    1.6960 cc        1 93A      0.148800
      8 N12         0.9280   -3.4480    2.2840 nc        1 93A     -0.614000
      9 C11         0.6070   -4.2720    1.2680 cd        1 93A      0.428400
     10 N15         2.3230   -1.7310   -0.6190 nh        1 93A     -0.749500
     11 C14         1.7060   -2.5920    0.2750 cd        1 93A      0.078000
     12 N10         1.0480   -3.7920    0.0180 na        1 93A     -0.183900
     13 C5          0.8500   -4.3700   -1.3060 c3        1 93A      0.215800
     14 O1          0.0750   -5.5470   -1.1870 os        1 93A     -0.435600
     15 C4          2.1830   -4.7150   -2.0480 c3        1 93A      0.090100
     16 O7          2.4410   -3.6970   -2.9900 oh        1 93A     -0.647800
     17 C3          1.9530   -6.1330   -2.6130 c3        1 93A      0.138100
     18 O6          1.9430   -6.0640   -4.0200 oh        1 93A     -0.692800
     19 C2          0.5800   -6.5800   -2.0790 c3        1 93A      0.067100
     20 C5'         0.6140   -7.9370   -1.3290 c3        1 93A      0.238400
     21 O5'         0.2600   -8.9480   -2.1750 os        1 93A     -0.554200
     22 P           1.6190   -9.8450   -2.8130 p5        1 93A      1.337900
     23 O1P         2.2980  -10.2930   -1.5540 o         1 93A     -0.929167
     24 O2P         0.9830  -10.8680   -3.6980 o         1 93A     -0.929167
     25 O3P         2.3120   -8.6810   -3.5010 o         1 93A     -0.929167
     26 H17         3.2700    0.4460    1.9800 hn        1 93A      0.340500
     27 H11         0.0710   -5.2310    1.3340 h5        1 93A      0.100100
     28 H15         2.5240   -2.1070   -1.5270 hn        1 93A      0.507800
     29 H5          0.2580   -3.6080   -1.9010 h2        1 93A      0.061700
     30 H4          3.0620   -4.7130   -1.3480 h1        1 93A      0.067700
     31 HO7         2.2460   -4.0420   -3.8740 ho        1 93A      0.449000
     32 H3          2.7660   -6.8370   -2.2740 h1        1 93A      0.131700
     33 HO6         2.0750   -6.9970   -4.3240 ho        1 93A      0.521000
     34 H2         -0.1610   -6.6410   -2.9220 h1        1 93A      0.077700
     35 H5'1        1.6400   -8.1060   -0.8960 h1        1 93A      0.002700
     36 H5'2       -0.1350   -7.8610   -0.4860 h1        1 93A      0.002700
@<TRIPOS>BOND
     1    1    2 2   
     2    2    3 2   
     3    2    4 1   
     4    2   10 1   
     5    4    5 1   
     6    4   26 1   
     7    5    6 2   
     8    5    7 1   
     9    7    8 1   
    10    7   11 2   
    11    8    9 2   
    12    9   12 1   
    13    9   27 1   
    14   10   11 1   
    15   10   28 1   
    16   11   12 1   
    17   12   13 1   
    18   13   14 1   
    19   13   15 1   
    20   13   29 1   
    21   14   19 1   
    22   15   16 1   
    23   15   17 1   
    24   15   30 1   
    25   16   31 1   
    26   17   18 1   
    27   17   19 1   
    28   17   32 1   
    29   18   33 1   
    30   19   20 1   
    31   19   34 1   
    32   20   21 1   
    33   20   35 1   
    34   20   36 1   
    35   21   22 1   
    36   22   23 1   
    37   22   24 1   
    38   22   25 1   
@<TRIPOS>SUBSTRUCTURE
     1 93A         1 TEMP              0 ****  ****    0 ROOT
