@<TRIPOS>MOLECULE
93A
   36    38     1     0     0
SMALL
bcc


@<TRIPOS>ATOM
      1 O21         2.0590    0.6360   -0.6540 o         1 93A     -0.658300
      2 S16         2.9110   -0.3590   -0.1390 s6        1 93A      1.607500
      3 O20         4.2650   -0.1450   -0.4770 o         1 93A     -0.658300
      4 N17         2.7730   -0.3970    1.4990 ns        1 93A     -0.709300
      5 C18         2.0250   -1.2910    2.3050 c         1 93A      0.682000
      6 O19         1.9600   -1.0770    3.5240 o         1 93A     -0.608500
      7 C13         1.4140   -2.3960    1.5830 cc        1 93A      0.148800
      8 N12         0.5680   -3.3870    2.0930 nc        1 93A     -0.615000
      9 C11         0.2950   -4.1960    1.0500 cd        1 93A      0.429400
     10 N15         2.4290   -1.8400   -0.6400 nu        1 93A     -0.749500
     11 C14         1.6420   -2.6310    0.1820 cd        1 93A      0.077000
     12 N10         0.9160   -3.7740   -0.1440 na        1 93A     -0.182900
     13 C5          0.8050   -4.3370   -1.4850 c3        1 93A      0.216800
     14 O1         -0.1180   -5.4090   -1.4710 os        1 93A     -0.435600
     15 C4          2.1660   -4.8410   -2.0720 c3        1 93A      0.101100
     16 O7          2.6550   -3.8560   -2.9560 oh        1 93A     -0.650800
     17 C3          1.8280   -6.2060   -2.6930 c3        1 93A      0.100100
     18 O6          1.8610   -6.1010   -4.0990 oh        1 93A     -0.686800
     19 C2          0.4110   -6.5510   -2.1990 c3        1 93A      0.065100
     20 C5'         0.4180   -7.8080   -1.2910 c3        1 93A      0.217400
     21 O5'         0.4300   -8.9460   -2.0450 os        1 93A     -0.559200
     22 P           2.0010   -9.6270   -2.3960 p5        1 93A      1.331900
     23 O1P         2.7730   -9.2320   -1.1680 o         1 93A     -0.925833
     24 O2P         1.7140  -11.0710   -2.6450 o         1 93A     -0.925833
     25 O3P         2.3560   -8.7540   -3.5860 o         1 93A     -0.925833
     26 H17         3.2680    0.2810    2.0370 hn        1 93A      0.340500
     27 H11        -0.3200   -5.1080    1.0610 h5        1 93A      0.098100
     28 H15         2.7190   -2.2560   -1.5060 hn        1 93A      0.508800
     29 H5          0.3770   -3.5150   -2.1380 h2        1 93A      0.061700
     30 H4          2.9470   -4.9620   -1.2740 h1        1 93A      0.081700
     31 HO7         2.5470   -4.1810   -3.8620 ho        1 93A      0.447000
     32 H3          2.5410   -7.0360   -2.3620 h1        1 93A      0.176700
     33 HO6         2.0720   -7.0130   -4.4140 ho        1 93A      0.509000
     34 H2         -0.2880   -6.7000   -3.0640 h1        1 93A      0.073700
     35 H5'1        1.3080   -7.7650   -0.6010 h1        1 93A      0.008200
     36 H5'2       -0.5310   -7.7710   -0.6800 h1        1 93A      0.008200
@<TRIPOS>BOND
     1    1    2 2   
     2    2    3 2   
     3    2    4 1   
     4    2   10 1   
     5    4    5 1   
     6    4   26 1   
     7    5    6 2   
     8    5    7 1   
     9    7    8 1   
    10    7   11 2   
    11    8    9 2   
    12    9   12 1   
    13    9   27 1   
    14   10   11 1   
    15   10   28 1   
    16   11   12 1   
    17   12   13 1   
    18   13   14 1   
    19   13   15 1   
    20   13   29 1   
    21   14   19 1   
    22   15   16 1   
    23   15   17 1   
    24   15   30 1   
    25   16   31 1   
    26   17   18 1   
    27   17   19 1   
    28   17   32 1   
    29   18   33 1   
    30   19   20 1   
    31   19   34 1   
    32   20   21 1   
    33   20   35 1   
    34   20   36 1   
    35   21   22 1   
    36   22   23 1   
    37   22   24 1   
    38   22   25 1   
@<TRIPOS>SUBSTRUCTURE
     1 93A         1 TEMP              0 ****  ****    0 ROOT
