@<TRIPOS>MOLECULE
93A
   36    38     1     0     0
SMALL
bcc


@<TRIPOS>ATOM
      1 O21         5.1930    1.2410    1.0990 o         1 93A     -0.656800
      2 S16         4.6400    1.0760   -0.1840 s6        1 93A      1.607500
      3 O20         5.0070    2.1090   -1.0740 o         1 93A     -0.656800
      4 N17         5.1330   -0.3630   -0.8090 n         1 93A     -0.709300
      5 C18         4.4250   -1.5860   -0.8910 c         1 93A      0.682000
      6 O19         5.0210   -2.5900   -1.3070 o         1 93A     -0.606500
      7 C13         3.0320   -1.5130   -0.4780 cc        1 93A      0.148800
      8 N12         2.1120   -2.5630   -0.3840 nc        1 93A     -0.614000
      9 C11         0.9560   -1.9940    0.0090 cd        1 93A      0.428400
     10 N15         3.0090    0.9630   -0.0950 nh        1 93A     -0.749500
     11 C14         2.3900   -0.2770   -0.1180 cd        1 93A      0.078000
     12 N10         1.0730   -0.6000    0.1970 na        1 93A     -0.183900
     13 C5          0.0680    0.3480    0.6630 c3        1 93A      0.215800
     14 O1         -1.1270   -0.3510    0.9580 os        1 93A     -0.435600
     15 C4         -0.2510    1.4820   -0.3660 c3        1 93A      0.090100
     16 O7          0.4320    2.6490    0.0390 oh        1 93A     -0.647800
     17 C3         -1.7920    1.5600   -0.3880 c3        1 93A      0.138100
     18 O6         -2.1910    2.8060    0.1320 oh        1 93A     -0.692800
     19 C2         -2.2840    0.4110    0.5100 c3        1 93A      0.067100
     20 C5'        -3.2890   -0.5410   -0.1870 c3        1 93A      0.238400
     21 O5'        -4.5690   -0.1770    0.1200 os        1 93A     -0.554200
     22 P          -5.3600    0.7530   -1.1320 p5        1 93A      1.337900
     23 O1P        -5.2380   -0.1680   -2.3090 o         1 93A     -0.929167
     24 O2P        -6.7140    1.0300   -0.5640 o         1 93A     -0.929167
     25 O3P        -4.3780    1.9130   -1.1590 o         1 93A     -0.929167
     26 H17         6.0510   -0.4260   -1.1930 hn        1 93A      0.340500
     27 H11        -0.0090   -2.4940    0.1750 h5        1 93A      0.100100
     28 H15         2.4000    1.7600   -0.0700 hn        1 93A      0.507800
     29 H5          0.4700    0.7930    1.6240 h2        1 93A      0.061700
     30 H4          0.1420    1.2380   -1.3900 h1        1 93A      0.067700
     31 HO7        -0.2140    3.2640    0.4170 ho        1 93A      0.449000
     32 H3         -2.1840    1.4460   -1.4390 h1        1 93A      0.131700
     33 HO6        -3.1320    2.9180   -0.1580 ho        1 93A      0.521000
     34 H2         -2.7530    0.8250    1.4450 h1        1 93A      0.077700
     35 H5'1       -3.1170   -0.5270   -1.3000 h1        1 93A      0.002700
     36 H5'2       -3.0810   -1.5790    0.2070 h1        1 93A      0.002700
@<TRIPOS>BOND
     1    1    2 2   
     2    2    3 2   
     3    2    4 1   
     4    2   10 1   
     5    4    5 1   
     6    4   26 1   
     7    5    6 2   
     8    5    7 1   
     9    7    8 1   
    10    7   11 2   
    11    8    9 2   
    12    9   12 1   
    13    9   27 1   
    14   10   11 1   
    15   10   28 1   
    16   11   12 1   
    17   12   13 1   
    18   13   14 1   
    19   13   15 1   
    20   13   29 1   
    21   14   19 1   
    22   15   16 1   
    23   15   17 1   
    24   15   30 1   
    25   16   31 1   
    26   17   18 1   
    27   17   19 1   
    28   17   32 1   
    29   18   33 1   
    30   19   20 1   
    31   19   34 1   
    32   20   21 1   
    33   20   35 1   
    34   20   36 1   
    35   21   22 1   
    36   22   23 1   
    37   22   24 1   
    38   22   25 1   
@<TRIPOS>SUBSTRUCTURE
     1 93A         1 TEMP              0 ****  ****    0 ROOT
