@<TRIPOS>MOLECULE
93G
   40    42     1     0     0
SMALL
bcc


@<TRIPOS>ATOM
      1 N1          5.2870   -1.4190   -0.7990 n         1 93G     -0.500400
      2 C2          4.1440   -1.9410   -1.4410 cc        1 93G      0.769800
      3 N2          4.2900   -3.0520   -2.2350 nh        1 93G     -0.905800
      4 N3          2.8780   -1.4000   -1.3230 nd        1 93G     -0.690100
      5 C4          2.8080   -0.3010   -0.5170 cd        1 93G      0.265100
      6 C5          3.9180    0.2940    0.1710 cc        1 93G     -0.303900
      7 C6          5.2450   -0.2790    0.0400 c         1 93G      0.765100
      8 O6          6.2820    0.1320    0.5750 o         1 93G     -0.569500
      9 N7          3.4450    1.4010    0.8910 na        1 93G      0.042900
     10 C8          2.1000    1.4960    0.6630 cc        1 93G      0.016400
     11 N9          1.6740    0.4810   -0.1860 na        1 93G     -0.047100
     12 CG         -2.1400    0.3230   -0.2080 ca        1 93G     -0.260600
     13 NN         -5.6070    1.5970    2.0620 n         1 93G     -0.652000
     14 ON         -6.6130   -0.3170    1.3770 o         1 93G     -0.627100
     15 CZ         -4.7370   -0.5590   -0.8150 ca        1 93G      0.262100
     16 C1'         0.3390    0.2410   -0.6790 c3        1 93G     -0.078700
     17 C2'        -0.8070    0.7810    0.1730 c         1 93G      0.600700
     18 O2'        -0.5950    1.5570    1.1160 o         1 93G     -0.564100
     19 CD1        -2.3910   -0.3790   -1.4040 ca        1 93G     -0.036000
     20 CD2        -3.2080    0.6010    0.6580 ca        1 93G      0.018000
     21 CE1        -3.6640   -0.8130   -1.7090 ca        1 93G     -0.184000
     22 CE2        -4.5070    0.1810    0.3670 ca        1 93G     -0.250600
     23 CM7         4.2310    2.2720    1.7240 c3        1 93G     -0.012400
     24 HN1         6.1820   -1.8510   -0.9190 hn        1 93G      0.361500
     25 HN2         5.1720   -3.4880   -2.3580 hn        1 93G      0.475800
     26 HN2A        3.4940   -3.4360   -2.6940 hn        1 93G      0.475800
     27 H8          1.4190    2.2530    1.1060 h5        1 93G      0.283000
     28 HOH        -6.6120   -0.9360   -0.5200 ho        1 93G      0.483000
     29 HNN        -6.3680    1.7850    2.6710 hn        1 93G      0.324500
     30 HNNA       -4.8880    2.2670    1.9730 hn        1 93G      0.324500
     31 H1'         0.2560    0.7060   -1.7070 h1        1 93G      0.117700
     32 H1'A        0.2120   -0.8800   -0.7760 h1        1 93G      0.117700
     33 HD1        -1.5750   -0.5890   -2.1140 ha        1 93G      0.135000
     34 HD2        -2.9900    1.1500    1.5910 ha        1 93G      0.160000
     35 HE1        -3.8760   -1.3680   -2.6370 ha        1 93G      0.175000
     36 HM7         4.1750    3.3220    1.3270 h1        1 93G      0.101700
     37 HM7A        3.8350    2.2440    2.7760 h1        1 93G      0.101700
     38 HM7B        5.3010    1.9200    1.7130 h1        1 93G      0.101700
     39 OH         -5.9300   -1.0600   -1.2100 oh        1 93G     -0.475100
     40 CN         -5.6360    0.4650    1.2970 c         1 93G      0.678700
@<TRIPOS>BOND
     1    1    2 1   
     2    1    7 1   
     3    1   24 1   
     4    2    3 1   
     5    2    4 2   
     6    3   25 1   
     7    3   26 1   
     8    4    5 1   
     9    5    6 2   
    10    5   11 1   
    11    6    7 1   
    12    6    9 1   
    13    7    8 2   
    14    9   10 2   
    15    9   23 1   
    16   10   11 1   
    17   10   27 1   
    18   11   16 1   
    19   12   17 1   
    20   12   19 ar  
    21   12   20 ar  
    22   13   29 1   
    23   13   30 1   
    24   13   40 1   
    25   14   40 2   
    26   15   21 ar  
    27   15   22 ar  
    28   15   39 1   
    29   16   17 1   
    30   16   31 1   
    31   16   32 1   
    32   17   18 2   
    33   19   21 ar  
    34   19   33 1   
    35   20   22 ar  
    36   20   34 1   
    37   21   35 1   
    38   22   40 1   
    39   23   36 1   
    40   23   37 1   
    41   23   38 1   
    42   28   39 1   
@<TRIPOS>SUBSTRUCTURE
     1 93G         1 TEMP              0 ****  ****    0 ROOT
