@<TRIPOS>MOLECULE
93G
   42    42     1     0     0
SMALL
bcc


@<TRIPOS>ATOM
      1 N1       -128.1680  -96.9690  -77.3920 n         1 93G     -0.304000
      2 C2       -127.8570  -96.4020  -78.6240 c2        1 93G      0.117000
      3 N2       -127.9360  -97.2630  -79.8470 n4        1 93G     -0.038000
      4 N3       -127.4890  -95.1330  -78.8110 n2        1 93G     -0.129000
      5 C4       -127.3550  -94.3310  -77.6980 c2        1 93G      0.035000
      6 C5       -127.5960  -94.7750  -76.4090 c2        1 93G     -0.143000
      7 C6       -128.0790  -96.1680  -76.2180 c2        1 93G      0.341000
      8 O6       -128.4290  -96.6760  -75.1490 o         1 93G     -0.269000
      9 N7       -127.3370  -93.9770  -75.2590 nh        1 93G     -0.124000
     10 C8       -128.0890  -93.7570  -74.1900 c1        1 93G      0.252000
     11 N9       -129.3710  -94.2540  -73.8980 n2        1 93G     -0.071000
     12 CG        146.1640  108.1450   90.9210 c3        1 93G     -0.218000
     13 NN        150.1470  108.9550   91.6250 n4        1 93G     -0.141000
     14 ON        150.6950  106.7250   92.0560 o         1 93G     -0.251000
     15 CZ        147.8650  105.8960   91.5200 c2        1 93G      0.335000
     16 C1'      -130.3390  -94.4780  -73.2890 c1        1 93G      0.231000
     17 C2'       145.7290  108.9530   89.7010 c2        1 93G      0.223000
     18 O2'       144.8980  108.5310   88.9090 o         1 93G     -0.230000
     19 CD1       145.6770  106.7420   90.8870 c2        1 93G      0.015000
     20 CD2       147.5900  108.3100   91.1680 c1        1 93G     -0.161000
     21 CE1       146.4740  105.6910   91.1950 c2        1 93G     -0.227000
     22 CE2       148.3890  107.2150   91.4840 c2        1 93G     -0.373000
     23 CM7      -126.0230  -93.3080  -75.2410 c3        1 93G     -0.100000
     24 HN1      -128.4250  -97.9320  -77.2780 hn        1 93G      0.293000
     25 HN2      -128.8920  -97.6310  -79.9590 hn        1 93G      0.297333
     26 HN2A     -127.2660  -98.0430  -79.7710 hn        1 93G      0.297333
     27 H8       -127.0210  -93.2980  -77.9480 h4        1 93G      0.236000
     28 HOH       149.4850  104.9720   92.0180 ho        1 93G      0.286000
     29 HNN       149.2600  109.4630   91.3670 hn        1 93G      0.276333
     30 HNNA      150.5150  109.3030   92.5120 hn        1 93G      0.276333
     31 H1'      -131.2390  -94.6700  -72.7070 ha        1 93G      0.353000
     32 H1'A      146.2210  109.9450   89.6250 h4        1 93G      0.140000
     33 HD1       144.6210  106.5910   90.5910 ha        1 93G      0.191000
     34 HD2       145.6460  108.6620   91.8050 hc        1 93G      0.216000
     35 HE1       146.1020  104.6500   91.1930 ha        1 93G      0.198000
     36 HM7      -125.2220  -94.0820  -75.3790 h1        1 93G      0.142667
     37 HM7A     -125.8760  -92.7870  -74.2540 h1        1 93G      0.142667
     38 HM7B     -125.9890  -92.5520  -76.0690 h1        1 93G      0.142667
     39 OH        148.5430  104.7870   91.8170 oh        1 93G     -0.169000
     40 CN        149.7870  107.4960   91.7500 c2        1 93G      0.338000
     41 H23      -127.6960  -96.6990  -80.6850 hn        1 93G      0.297333
     42 HN3       150.8560  109.0800   90.8990 hn        1 93G      0.276333
@<TRIPOS>BOND
     1    1    2 1   
     2    1    7 1   
     3    1   24 1   
     4    2    3 1   
     5    2    4 1   
     6    3   25 1   
     7    3   26 1   
     8    3   41 1   
     9    4    5 1   
    10    5    6 1   
    11    5   27 1   
    12    6    7 1   
    13    6    9 1   
    14    7    8 1   
    15    9   10 1   
    16    9   23 1   
    17   10   11 1   
    18   11   16 1   
    19   12   17 1   
    20   12   19 1   
    21   12   20 1   
    22   12   34 1   
    23   13   29 1   
    24   13   30 1   
    25   13   40 1   
    26   13   42 1   
    27   14   40 1   
    28   15   21 1   
    29   15   22 1   
    30   15   39 1   
    31   16   31 1   
    32   17   18 1   
    33   17   32 1   
    34   19   21 1   
    35   19   33 1   
    36   20   22 1   
    37   21   35 1   
    38   22   40 1   
    39   23   36 1   
    40   23   37 1   
    41   23   38 1   
    42   28   39 1   
@<TRIPOS>SUBSTRUCTURE
     1 93G         1 TEMP              0 ****  ****    0 ROOT
