@<TRIPOS>MOLECULE
93G
   42    42     1     0     0
SMALL
bcc


@<TRIPOS>ATOM
      1 N1       -586.5970 -286.6990 -549.5890 n         1 93G     -0.312000
      2 C2       -586.0090 -286.5600 -548.3360 c2        1 93G      0.119000
      3 N2       -584.9510 -285.5100 -548.1690 n4        1 93G     -0.034000
      4 N3       -586.3030 -287.2810 -547.2600 n2        1 93G     -0.151000
      5 C4       -587.2940 -288.2610 -547.3890 c2        1 93G     -0.060000
      6 C5       -587.9750 -288.5160 -548.5840 c2        1 93G      0.043000
      7 C6       -587.5920 -287.6950 -549.7800 c2        1 93G      0.310000
      8 O6       -588.0780 -287.8230 -550.9030 o         1 93G     -0.209000
      9 N7       -589.0130 -289.4370 -548.6130 n2        1 93G     -0.262000
     10 C8       -588.7950 -289.1130 -545.7050 c2        1 93G      0.280000
     11 N9       -587.5560 -289.0450 -546.1870 nh        1 93G     -0.076000
     12 CG        651.8990  320.3110  608.9350 c3        1 93G     -0.219000
     13 NN        653.0300  318.3700  612.4120 n4        1 93G     -0.150000
     14 ON        655.3110  318.5980  612.0040 o         1 93G     -0.193000
     15 CZ        654.7190  319.9620  609.3810 c2        1 93G      0.324000
     16 C1'      -586.5720 -289.7590 -545.5100 c1        1 93G      0.159000
     17 C2'       650.7430  319.5300  608.3160 c2        1 93G      0.224000
     18 O2'       650.5930  319.4480  607.1050 o         1 93G     -0.234000
     19 CD1       652.9190  320.7170  607.9350 c2        1 93G      0.034000
     20 CD2       652.4090  319.6260  610.1160 c1        1 93G     -0.171000
     21 CE1       654.2470  320.5720  608.1650 c2        1 93G     -0.285000
     22 CE2       653.7750  319.4930  610.3300 c2        1 93G     -0.315000
     23 CM7      -589.4890 -290.0020 -549.6700 c2        1 93G      0.068000
     24 HN1      -586.3370 -286.1400 -550.3820 hn        1 93G      0.296000
     25 HN2      -585.3470 -284.5820 -548.3810 hn        1 93G      0.296667
     26 HN2A     -584.1620 -285.7070 -548.8050 hn        1 93G      0.296667
     27 H8       -589.6340 -288.5420 -546.1660 h4        1 93G      0.231500
     28 HOH       656.5680  320.1620  608.9080 ho        1 93G      0.276000
     29 HNN       652.1500  318.6510  611.9180 hn        1 93G      0.269667
     30 HNNA      653.0650  317.3570  612.5270 hn        1 93G      0.269667
     31 H1'       650.0630  319.0740  609.0650 h4        1 93G      0.143000
     32 H1'A     -585.5450 -289.6980 -545.9310 ha        1 93G      0.107000
     33 HD1       652.5430  321.1420  606.9840 ha        1 93G      0.189000
     34 HD2       651.4150  321.2720  609.3330 hc        1 93G      0.217000
     35 HE1       654.9950  320.8990  607.4220 ha        1 93G      0.179000
     36 HM7      -589.1310 -289.8810 -550.7160 h4        1 93G      0.185000
     37 HM7A     -588.9850 -289.7670 -544.8120 h4        1 93G      0.231500
     38 HM7B     -590.3510 -290.6890 -549.5110 h4        1 93G      0.185000
     39 OH        656.0210  319.8080  609.6380 oh        1 93G     -0.168000
     40 CN        654.1970  318.8330  611.5570 c2        1 93G      0.339000
     41 H23      -584.6010 -285.5090 -547.1950 hn        1 93G      0.296667
     42 HN3       653.0760  318.8100  613.3330 hn        1 93G      0.269667
@<TRIPOS>BOND
     1    1    2 1   
     2    1    7 1   
     3    1   24 1   
     4    2    3 1   
     5    2    4 1   
     6    3   25 1   
     7    3   26 1   
     8    3   41 1   
     9    4    5 1   
    10    5    6 1   
    11    5   11 1   
    12    6    7 1   
    13    6    9 1   
    14    7    8 1   
    15    9   23 1   
    16   10   11 1   
    17   10   27 1   
    18   10   37 1   
    19   11   16 1   
    20   12   17 1   
    21   12   19 1   
    22   12   20 1   
    23   12   34 1   
    24   13   29 1   
    25   13   30 1   
    26   13   40 1   
    27   13   42 1   
    28   14   40 1   
    29   15   21 1   
    30   15   22 1   
    31   15   39 1   
    32   16   32 1   
    33   17   18 1   
    34   17   31 1   
    35   19   21 1   
    36   19   33 1   
    37   20   22 1   
    38   21   35 1   
    39   22   40 1   
    40   23   36 1   
    41   23   38 1   
    42   28   39 1   
@<TRIPOS>SUBSTRUCTURE
     1 93G         1 TEMP              0 ****  ****    0 ROOT
