@<TRIPOS>MOLECULE
93G
   42    43     1     0     0
SMALL
bcc


@<TRIPOS>ATOM
      1 N1       -834.3260 -372.5070 -353.5800 ns        1 93G     -0.307000
      2 C2       -834.5220 -373.3970 -354.6290 c2        1 93G      0.153000
      3 N2       -835.8850 -374.0040 -354.7850 nz        1 93G     -0.041000
      4 N3       -833.6110 -373.7850 -355.5380 n2        1 93G     -0.120000
      5 C4       -832.3610 -373.2150 -355.3750 c2        1 93G      0.046000
      6 C5       -832.0440 -372.2970 -354.3400 c2        1 93G     -0.149000
      7 C6       -833.0500 -371.8820 -353.3640 c2        1 93G      0.384000
      8 O6       -832.9170 -371.0960 -352.4330 o         1 93G     -0.185000
      9 N7       -830.6870 -371.9230 -354.4780 na        1 93G     -0.017000
     10 C8       -830.1870 -372.5840 -355.5540 c2        1 93G      0.184000
     11 N9       -831.1700 -373.4090 -356.1660 na        1 93G     -0.094000
     12 CG        922.8180  411.8350  395.6390 c3        1 93G     -0.219000
     13 NN        923.4070  415.6970  397.0100 nz        1 93G     -0.150000
     14 ON        923.7060  415.0510  399.2260 o         1 93G     -0.193000
     15 CZ        923.2180  412.1730  398.4680 c2        1 93G      0.324000
     16 C1'      -830.8650 -374.1420 -357.2500 c1        1 93G      0.128000
     17 C2'       921.6600  411.8610  394.6460 c2        1 93G      0.224000
     18 O2'       920.8800  410.9250  394.5380 o         1 93G     -0.234000
     19 CD1       922.7300  410.7030  396.5960 c2        1 93G      0.034000
     20 CD2       923.0180  413.1520  396.2330 c1        1 93G     -0.171000
     21 CE1       922.9450  410.8680  397.9250 c2        1 93G     -0.285000
     22 CE2       923.2380  413.2930  397.5970 c2        1 93G     -0.315000
     23 CM7      -829.9640 -371.0170 -353.6120 c3        1 93G     -0.128000
     24 HN1      -835.0570 -372.2590 -352.9350 hn        1 93G      0.302000
     25 HN2      -836.1300 -374.5410 -353.9380 hn        1 93G      0.302667
     26 HN2A     -835.8960 -374.6460 -355.6000 hn        1 93G      0.302667
     27 H8       -829.1440 -372.5220 -355.9520 h5        1 93G      0.308000
     28 HOH       923.3890  411.5240  400.2660 ho        1 93G      0.276000
     29 HNN       923.2190  415.2030  396.1050 hn        1 93G      0.269667
     30 HNNA      922.6580  416.3600  397.2130 hn        1 93G      0.269667
     31 H1'       921.6170  412.7880  394.0370 h4        1 93G      0.143000
     32 H1'A     -831.6620 -374.7730 -357.6960 ha        1 93G      0.130000
     33 HD1       922.4730  409.7130  396.1730 ha        1 93G      0.189000
     34 HD2       923.7480  411.6570  394.9910 hc        1 93G      0.217000
     35 HE1       922.8970  410.0140  398.6230 ha        1 93G      0.179000
     36 HM7      -830.7000 -370.4360 -352.9860 h1        1 93G      0.166667
     37 HM7A     -829.3550 -370.3070 -354.2380 h1        1 93G      0.166667
     38 HM7B     -829.2840 -371.6110 -352.9370 h1        1 93G      0.166667
     39 OH        923.4380  412.3680  399.7710 oh        1 93G     -0.168000
     40 CN        923.4710  414.6400  398.0990 c2        1 93G      0.339000
     41 H23      -836.5840 -373.2600 -354.9420 hn        1 93G      0.302667
     42 HN3       924.2920  416.2020  396.9610 hn        1 93G      0.269667
@<TRIPOS>BOND
     1    1    2 1   
     2    1    7 1   
     3    1   24 1   
     4    2    3 1   
     5    2    4 1   
     6    3   25 1   
     7    3   26 1   
     8    3   41 1   
     9    4    5 1   
    10    5    6 1   
    11    5   11 1   
    12    6    7 1   
    13    6    9 1   
    14    7    8 1   
    15    9   10 1   
    16    9   23 1   
    17   10   11 1   
    18   10   27 1   
    19   11   16 1   
    20   12   17 1   
    21   12   19 1   
    22   12   20 1   
    23   12   34 1   
    24   13   29 1   
    25   13   30 1   
    26   13   40 1   
    27   13   42 1   
    28   14   40 1   
    29   15   21 1   
    30   15   22 1   
    31   15   39 1   
    32   16   32 1   
    33   17   18 1   
    34   17   31 1   
    35   19   21 1   
    36   19   33 1   
    37   20   22 1   
    38   21   35 1   
    39   22   40 1   
    40   23   36 1   
    41   23   37 1   
    42   23   38 1   
    43   28   39 1   
@<TRIPOS>SUBSTRUCTURE
     1 93G         1 TEMP              0 ****  ****    0 ROOT
