@<TRIPOS>MOLECULE
93G
   40    34     1     0     0
SMALL
bcc


@<TRIPOS>ATOM
      1 N1         -4.8140   -1.6510    0.2510 n3        1 93G     -0.340000
      2 C2         -3.7370   -1.6620    1.2130 c2        1 93G      0.322000
      3 N2         -4.0280   -1.8850    2.6500 n3        1 93G     -0.345000
      4 N3         -2.3770   -1.5090    0.7740 n1        1 93G     -0.263000
      5 C4         -2.0780   -1.3330   -0.6520 c1        1 93G     -0.054500
      6 C5         -3.1030   -1.3100   -1.5760 c1        1 93G     -0.054500
      7 C6         -4.5290   -1.4930   -1.1220 c1        1 93G      0.402000
      8 O6         -5.4580   -1.4510   -1.9520 o         1 93G     -0.293000
      9 N7         -2.5540   -1.1350   -2.8040 n2        1 93G     -0.070000
     10 C8         -1.1950   -1.0480   -2.6530 c1        1 93G      0.066000
     11 N9         -0.9080   -1.1720   -1.3210 n2        1 93G     -0.070000
     12 CG          2.2340    0.4400    0.2140 c1        1 93G     -0.226000
     13 OH          5.5930    1.5450    2.3960 oh        1 93G     -0.241000
     14 CN          3.1780    2.9260    2.9630 c1        1 93G      0.349000
     15 NN          3.2510    4.3330    2.6370 n2        1 93G     -0.404000
     16 ON          2.9240    2.5650    4.1440 o         1 93G     -0.367000
     17 CZ          4.5050    1.3120    1.5520 c2        1 93G      0.165000
     18 C1'         0.4680   -1.2190   -0.8590 c2        1 93G     -0.089000
     19 C2'         0.9690    0.2150   -0.5920 c1        1 93G      0.288000
     20 O2'         0.4250    1.1300   -1.0970 o         1 93G     -0.305000
     21 CD1         3.4670   -0.1280   -0.0810 c2        1 93G     -0.032000
     22 CD2         2.1460    1.4360    1.1740 c1        1 93G      0.027000
     23 CE1         4.6000    0.3020    0.5810 c2        1 93G     -0.231000
     24 CE2         3.2970    1.8690    1.8430 c1        1 93G     -0.156000
     25 CM7        -3.0270   -0.8640   -4.1190 c2        1 93G     -0.111000
     26 HN1        -5.6390   -1.8420    0.5100 hn        1 93G      0.275000
     27 HN2        -3.3180   -2.0780    3.2540 hn        1 93G      0.270000
     28 HN2A       -4.8860   -1.8890    2.9430 hn        1 93G      0.270000
     29 H8         -0.5280   -0.9700   -3.3910 DU        1 93G      0.285000
     30 HOH         6.2780    1.8600    1.9190 ho        1 93G      0.245000
     31 HNN         3.0280    4.9770    3.2850 hn        1 93G      0.236500
     32 HNNA        3.4510    4.6020    1.7570 hn        1 93G      0.236500
     33 H1'         0.5170   -1.7320   -0.0490 ha        1 93G      0.155000
     34 H1'A        1.0060   -1.6200   -1.5180 ha        1 93G      0.155000
     35 HD1         3.5330   -0.8380   -0.7660 ha        1 93G      0.134000
     36 HD2         1.3020    1.8300    1.3750 ha        1 93G      0.190000
     37 HE1         5.4220   -0.0750    0.3860 ha        1 93G      0.154000
     38 HM7        -3.8330   -0.3180   -4.0680 ha        1 93G      0.142000
     39 HM7A       -3.2380   -1.7330   -4.5860 ha        1 93G      0.142000
     40 HM7B       -2.3450   -0.3880   -4.6150 ha        1 93G      0.142000
@<TRIPOS>BOND
     1    1    2 1   
     2    1    7 1   
     3    1   26 1   
     4    2    3 1   
     5    2    4 1   
     6    3   27 1   
     7    3   28 1   
     8    5    6 1   
     9    5   11 1   
    10    6    9 1   
    11    7    8 1   
    12    9   10 1   
    13   10   11 1   
    14   12   21 1   
    15   12   22 1   
    16   13   17 1   
    17   13   30 1   
    18   14   16 1   
    19   14   24 1   
    20   15   31 1   
    21   15   32 1   
    22   17   23 1   
    23   17   24 1   
    24   18   19 1   
    25   18   33 1   
    26   18   34 1   
    27   19   20 1   
    28   21   23 1   
    29   21   35 1   
    30   22   36 1   
    31   23   37 1   
    32   25   38 1   
    33   25   39 1   
    34   25   40 1   
@<TRIPOS>SUBSTRUCTURE
     1 93G         1 TEMP              0 ****  ****    0 ROOT
