@<TRIPOS>MOLECULE
93N
   52    54     1     0     0
SMALL
bcc


@<TRIPOS>ATOM
      1 N1         -5.5240    0.2630   -0.5570 nb        1 93N     -0.627000
      2 C2         -4.6630    1.1370    0.0180 cp        1 93N      0.469800
      3 C3         -5.0920    2.3520    0.6090 ca        1 93N     -0.221300
      4 C4         -6.4470    2.6690    0.5970 ca        1 93N     -0.094000
      5 C5         -7.3490    1.7830    0.0050 ca        1 93N     -0.209300
      6 C6         -6.8400    0.5920   -0.5570 ca        1 93N      0.497300
      7 C7         -3.2270    0.8100    0.0300 cp        1 93N     -0.196500
      8 C8         -2.7940   -0.4970    0.2830 ca        1 93N     -0.009000
      9 C9         -1.4330   -0.7960    0.3110 ca        1 93N     -0.211300
     10 C10        -0.4870    0.2240    0.0680 ca        1 93N      0.195100
     11 C11        -0.9210    1.5320   -0.1980 ca        1 93N     -0.220000
     12 C12        -2.2820    1.8160   -0.2160 ca        1 93N     -0.048000
     13 O13         0.8270   -0.1650    0.1160 os        1 93N     -0.314900
     14 C14         1.8060    0.8530   -0.1480 c3        1 93N      0.130400
     15 C15         3.1500    0.1510   -0.0530 c3        1 93N     -0.090400
     16 C16         4.2610    1.1940   -0.1570 c3        1 93N      0.174800
     17 N17         5.5860    0.6200   -0.3440 n3        1 93N     -0.727600
     18 C18        -7.7660   -0.3200   -1.1630 cg        1 93N      0.129800
     19 N19        -8.5290   -1.0490   -1.6500 n1        1 93N     -0.336800
     20 C20        -0.9660   -2.2160    0.6000 c3        1 93N      0.705200
     21 F21        -0.2540   -2.8000   -0.4190 f         1 93N     -0.234300
     22 F22        -0.1500   -2.3320    1.6990 f         1 93N     -0.234300
     23 F23        -1.9800   -3.1110    0.8490 f         1 93N     -0.234300
     24 C24         7.4190   -0.8010    0.5920 c3        1 93N      0.167800
     25 N25         8.4020    0.2380    0.3210 n3        1 93N     -0.732600
     26 C26         8.0010    1.0930   -0.7870 c3        1 93N      0.167800
     27 C27         6.5760    1.6530   -0.6230 c3        1 93N      0.166800
     28 C28         5.9890   -0.2500    0.7510 c3        1 93N      0.166800
     29 C29         9.7350   -0.2940    0.1530 c3        1 93N      0.157100
     30 H3         -4.3590    3.0230    1.0780 ha        1 93N      0.151000
     31 H4         -6.8060    3.6040    1.0510 ha        1 93N      0.149000
     32 H5         -8.4260    1.9990   -0.0250 ha        1 93N      0.158000
     33 H8         -3.5290   -1.3020    0.4610 ha        1 93N      0.173000
     34 H11        -0.1970    2.3340   -0.3970 ha        1 93N      0.148000
     35 H12        -2.6170    2.8420   -0.4350 ha        1 93N      0.141000
     36 H14         1.6370    1.2760   -1.1720 h1        1 93N      0.043700
     37 H14A        1.7130    1.6640    0.6220 h1        1 93N      0.043700
     38 H15         3.2130   -0.3990    0.9220 hc        1 93N      0.072200
     39 H15A        3.2340   -0.6080   -0.8740 hc        1 93N      0.072200
     40 H16         4.0550    1.8490   -1.0520 h1        1 93N      0.030200
     41 H16A        4.2170    1.8530    0.7620 h1        1 93N      0.030200
     42 H24         7.4140   -1.5910   -0.2140 h1        1 93N      0.038200
     43 H24A        7.7040   -1.2980    1.5610 h1        1 93N      0.038200
     44 H26         8.7110    1.9660   -0.8220 h1        1 93N      0.038200
     45 H26A        8.0660    0.5530   -1.7770 h1        1 93N      0.038200
     46 H27         6.2900    2.1500   -1.5930 h1        1 93N      0.037700
     47 H27A        6.5890    2.4450    0.1820 h1        1 93N      0.037700
     48 H28         5.9120    0.2730    1.7480 h1        1 93N      0.037700
     49 H28A        5.2870   -1.1310    0.7650 h1        1 93N      0.037700
     50 H29         9.8370   -0.9730   -0.7380 h1        1 93N      0.032700
     51 H29A       10.4520    0.5600    0.0330 h1        1 93N      0.032700
     52 H29B       10.0110   -0.8710    1.0740 h1        1 93N      0.032700
@<TRIPOS>BOND
     1    1    2 ar  
     2    1    6 ar  
     3    2    3 ar  
     4    2    7 1   
     5    3    4 ar  
     6    3   30 1   
     7    4    5 ar  
     8    4   31 1   
     9    5    6 ar  
    10    5   32 1   
    11    6   18 1   
    12    7    8 ar  
    13    7   12 ar  
    14    8    9 ar  
    15    8   33 1   
    16    9   10 ar  
    17    9   20 1   
    18   10   11 ar  
    19   10   13 1   
    20   11   12 ar  
    21   11   34 1   
    22   12   35 1   
    23   13   14 1   
    24   14   15 1   
    25   14   36 1   
    26   14   37 1   
    27   15   16 1   
    28   15   38 1   
    29   15   39 1   
    30   16   17 1   
    31   16   40 1   
    32   16   41 1   
    33   17   27 1   
    34   17   28 1   
    35   18   19 3   
    36   20   21 1   
    37   20   22 1   
    38   20   23 1   
    39   24   25 1   
    40   24   28 1   
    41   24   42 1   
    42   24   43 1   
    43   25   26 1   
    44   25   29 1   
    45   26   27 1   
    46   26   44 1   
    47   26   45 1   
    48   27   46 1   
    49   27   47 1   
    50   28   48 1   
    51   28   49 1   
    52   29   50 1   
    53   29   51 1   
    54   29   52 1   
@<TRIPOS>SUBSTRUCTURE
     1 93N         1 TEMP              0 ****  ****    0 ROOT
