@<TRIPOS>MOLECULE
93N
   52    47     1     0     0
SMALL
bcc


@<TRIPOS>ATOM
      1 N1          3.6840    2.8780    3.1430 n1        1 93N     -0.056500
      2 C2          2.3820    3.2540    3.0170 c1        1 93N     -0.027000
      3 C3          2.0240    4.5800    3.1850 c1        1 93N     -0.082500
      4 C4          2.9970    5.5270    3.4820 c1        1 93N     -0.118000
      5 C5          4.2590    5.1590    3.6040 c1        1 93N     -0.118000
      6 C6          4.6220    3.7930    3.4300 c1        1 93N     -0.013500
      7 C7          1.4180    2.3140    2.6390 c1        1 93N     -0.027000
      8 C8          0.9430    1.3870    3.5690 c1        1 93N     -0.082500
      9 C9          0.0360    0.3670    3.1580 c1        1 93N     -0.207000
     10 C10        -0.3680    0.2970    1.8540 c1        1 93N      0.153000
     11 C11         0.1120    1.2310    0.9190 c2        1 93N     -0.222000
     12 C12         1.0100    2.2420    1.3250 c1        1 93N     -0.048000
     13 O13        -1.2010   -0.8470    1.3980 o         1 93N     -0.203000
     14 C14        -2.2670   -0.4750    0.4590 c3        1 93N     -0.019000
     15 C15        -2.7510   -1.6650   -0.2150 c3        1 93N     -0.194000
     16 C16        -2.6080   -1.4660   -1.8050 c3        1 93N     -0.076000
     17 N17        -2.2930   -2.7600   -2.4430 n3        1 93N     -0.244000
     18 C18         6.1120    3.3630    3.5570 c1        1 93N     -0.013500
     19 N19         7.2410    3.0410    3.6540 n1        1 93N     -0.056500
     20 C20        -0.4820   -0.6520    4.1690 c3        1 93N      0.484000
     21 F21        -0.4640   -0.1170    5.3930 f         1 93N     -0.163667
     22 F22        -1.6600   -0.9750    3.8720 f         1 93N     -0.163667
     23 F23         0.2820   -1.7160    4.1470 f         1 93N     -0.163667
     24 C24        -1.8810   -1.8190   -4.6730 c3        1 93N     -0.108500
     25 N25        -0.5080   -2.0790   -4.5530 n3        1 93N     -0.244000
     26 C26        -0.0730   -2.0920   -3.2020 c3        1 93N     -0.108500
     27 C27        -0.9320   -3.0230   -2.3200 c3        1 93N     -0.108000
     28 C28        -2.7280   -2.7410   -3.8020 c3        1 93N     -0.108000
     29 C29        -0.2000   -3.3410   -5.1650 c3        1 93N     -0.127000
     30 H3          1.0140    4.8710    3.0860 ha        1 93N      0.162000
     31 H4          2.7670    6.3910    3.5930 ha        1 93N      0.153000
     32 H5          4.8880    5.7700    3.7950 ha        1 93N      0.153000
     33 H8          1.2170    1.4350    4.4520 ha        1 93N      0.162000
     34 H11        -0.1800    1.1800   -0.0250 ha        1 93N      0.148000
     35 H12         1.3690    2.9400    0.6230 ha        1 93N      0.141000
     36 H14        -1.8940    0.1850   -0.2350 h1        1 93N      0.102500
     37 H14A       -3.0240   -0.0420    0.9620 h1        1 93N      0.102500
     38 H15        -3.7480   -1.8230    0.0290 hc        1 93N      0.110000
     39 H15A       -2.2340   -2.4170    0.0610 hc        1 93N      0.110000
     40 H16        -3.4630   -1.1110   -2.1740 h1        1 93N      0.070500
     41 H16A       -1.9230   -0.8610   -1.9780 h1        1 93N      0.070500
     42 H24        -2.1580   -1.9430   -5.6600 h1        1 93N      0.095000
     43 H24A       -2.0460   -0.9260   -4.4180 h1        1 93N      0.095000
     44 H26         0.9080   -2.4080   -3.1700 h1        1 93N      0.095000
     45 H26A       -0.1260   -1.1310   -2.8230 h1        1 93N      0.095000
     46 H27        -0.7680   -3.9440   -2.5790 h1        1 93N      0.096000
     47 H27A       -0.6790   -2.9080   -1.4160 h1        1 93N      0.096000
     48 H28        -2.6820   -3.5890   -4.1390 h1        1 93N      0.096000
     49 H28A       -3.6210   -2.4490   -3.8310 h1        1 93N      0.096000
     50 H29         0.8050   -3.5770   -4.9860 h1        1 93N      0.072000
     51 H29A       -0.3610   -3.2820   -6.1720 h1        1 93N      0.072000
     52 H29B       -0.7630   -4.0270   -4.7900 h1        1 93N      0.072000
@<TRIPOS>BOND
     1    1    6 1   
     2    2    3 1   
     3    3   30 1   
     4    4    5 1   
     5    4   31 1   
     6    5   32 1   
     7    6   18 1   
     8    7    8 1   
     9    8   33 1   
    10    9   10 1   
    11    9   20 1   
    12   10   11 1   
    13   11   12 1   
    14   11   34 1   
    15   12   35 1   
    16   13   14 1   
    17   14   15 1   
    18   14   36 1   
    19   14   37 1   
    20   15   16 1   
    21   15   38 1   
    22   15   39 1   
    23   16   17 1   
    24   16   40 1   
    25   16   41 1   
    26   17   27 1   
    27   17   28 1   
    28   18   19 1   
    29   20   21 1   
    30   20   22 1   
    31   20   23 1   
    32   24   25 1   
    33   24   28 1   
    34   24   42 1   
    35   24   43 1   
    36   25   26 1   
    37   25   29 1   
    38   26   27 1   
    39   26   44 1   
    40   26   45 1   
    41   27   46 1   
    42   27   47 1   
    43   28   48 1   
    44   28   49 1   
    45   29   50 1   
    46   29   51 1   
    47   29   52 1   
@<TRIPOS>SUBSTRUCTURE
     1 93N         1 TEMP              0 ****  ****    0 ROOT
