@<TRIPOS>MOLECULE
93N
   52    54     1     0     0
SMALL
bcc


@<TRIPOS>ATOM
      1 N1          0.0000    0.0000    0.0000 nb        1 93N     -0.550000
      2 C2          1.3240    0.0000    0.0000 cp        1 93N      0.479800
      3 C3          2.0370    0.0000    1.2010 ca        1 93N     -0.194300
      4 C4          1.3450    0.0020    2.3990 ca        1 93N     -0.086000
      5 C5         -0.0410    0.0020    2.3650 ca        1 93N     -0.218300
      6 C6         -0.6930    0.0020    1.1320 ca        1 93N      0.520300
      7 C7          2.0570   -0.0010   -1.2890 cp        1 93N     -0.263500
      8 C8          1.3530   -0.0020   -2.4930 ca        1 93N      0.012000
      9 C9          2.0370   -0.0030   -3.6900 ca        1 93N     -0.231300
     10 C10         3.4260   -0.0030   -3.6970 ca        1 93N      0.242100
     11 C11         4.1300   -0.0020   -2.5010 ca        1 93N     -0.217000
     12 C12         3.4500    0.0040   -1.3000 ca        1 93N     -0.031000
     13 O13         4.0970   -0.0030   -4.8780 os        1 93N     -0.324900
     14 C14         5.5240   -0.0030   -4.8130 c3        1 93N      0.226400
     15 C15         6.1000   -0.0040   -6.2310 c3        1 93N     -0.068400
     16 C16         7.6280   -0.0040   -6.1600 c3        1 93N      0.126800
     17 N17         8.1810   -0.0040   -7.5220 n3        1 93N     -0.500600
     18 C18        -2.1240    0.0030    1.0880 cg        1 93N      0.111800
     19 N19        -3.2600    0.0210    1.0610 n1        1 93N     -0.352800
     20 C20         1.2770   -0.0040   -4.9920 c3        1 93N      0.656200
     21 F21         1.6110    1.1380   -5.7270 f         1 93N     -0.207967
     22 F22         1.6120   -1.1470   -5.7260 f         1 93N     -0.207967
     23 F23        -0.0970   -0.0040   -4.7290 f         1 93N     -0.207967
     24 C24         8.3890   -1.1890   -9.6540 c3        1 93N      0.111800
     25 N25         9.8380   -0.9510   -9.6340 n3        1 93N     -0.623600
     26 C26        10.1530    0.3050   -8.9390 c3        1 93N      0.111800
     27 C27         9.6320    0.2340   -7.5020 c3        1 93N      0.194800
     28 C28         7.8660   -1.2600   -8.2170 c3        1 93N      0.194800
     29 C29        10.3910   -0.9520  -10.9950 c3        1 93N      0.183100
     30 H3          3.0810    0.1150    1.4660 ha        1 93N      0.128000
     31 H4          1.6150    0.1110    3.4420 ha        1 93N      0.124000
     32 H5         -0.5690   -0.2640    3.2730 ha        1 93N      0.125000
     33 H8          0.3170    0.0350   -2.1770 ha        1 93N      0.161000
     34 H11         5.2040   -0.0270   -2.3640 ha        1 93N      0.131000
     35 H12         3.7560   -0.2230   -0.2860 ha        1 93N      0.119000
     36 H14         5.7010    0.9170   -4.2700 h1        1 93N      0.009200
     37 H14A        5.4910   -0.7750   -4.0530 h1        1 93N      0.009200
     38 H15         5.9490   -0.7250   -7.0250 hc        1 93N      0.041700
     39 H15A        5.8390    0.8800   -6.8000 hc        1 93N      0.041700
     40 H16         7.8050    0.5990   -5.2780 h1        1 93N      0.014700
     41 H16A        7.7490   -1.0420   -5.8770 h1        1 93N      0.014700
     42 H24         8.2030   -1.0130  -10.7070 h1        1 93N      0.030700
     43 H24A        8.6580   -2.2340   -9.7500 h1        1 93N      0.030700
     44 H26        11.2370    0.2870   -8.9410 h1        1 93N      0.030700
     45 H26A        9.8140    0.7770   -9.8530 h1        1 93N      0.030700
     46 H27         9.7880    1.2360   -7.1230 h1        1 93N      0.015450
     47 H27A        9.9670   -0.2860   -6.6120 h1        1 93N      0.015450
     48 H28         8.2720   -2.2040   -7.8740 h1        1 93N      0.015450
     49 H28A        6.8390   -1.4590   -8.4990 h1        1 93N      0.015450
     50 H29        10.0020   -0.0760  -11.5000 h1        1 93N      0.002700
     51 H29A       11.4160   -0.6040  -11.0290 h1        1 93N      0.002700
     52 H29B       10.2990   -1.9300  -11.4520 h1        1 93N      0.002700
@<TRIPOS>BOND
     1    1    2 ar  
     2    1    6 ar  
     3    2    3 ar  
     4    2    7 1   
     5    3    4 ar  
     6    3   30 1   
     7    4    5 ar  
     8    4   31 1   
     9    5    6 ar  
    10    5   32 1   
    11    6   18 1   
    12    7    8 ar  
    13    7   12 ar  
    14    8    9 ar  
    15    8   33 1   
    16    9   10 ar  
    17    9   20 1   
    18   10   11 ar  
    19   10   13 1   
    20   11   12 ar  
    21   11   34 1   
    22   12   35 1   
    23   13   14 1   
    24   14   15 1   
    25   14   36 1   
    26   14   37 1   
    27   15   16 1   
    28   15   38 1   
    29   15   39 1   
    30   16   17 1   
    31   16   40 1   
    32   16   41 1   
    33   17   27 1   
    34   17   28 1   
    35   18   19 3   
    36   20   21 1   
    37   20   22 1   
    38   20   23 1   
    39   24   25 1   
    40   24   28 1   
    41   24   42 1   
    42   24   43 1   
    43   25   26 1   
    44   25   29 1   
    45   26   27 1   
    46   26   44 1   
    47   26   45 1   
    48   27   46 1   
    49   27   47 1   
    50   28   48 1   
    51   28   49 1   
    52   29   50 1   
    53   29   51 1   
    54   29   52 1   
@<TRIPOS>SUBSTRUCTURE
     1 93N         1 TEMP              0 ****  ****    0 ROOT
