@<TRIPOS>MOLECULE
93N
   52    54     1     0     0
SMALL
bcc


@<TRIPOS>ATOM
      1 N1          0.1070   -0.5920    0.0750 nb        1 93N     -0.627000
      2 C2          1.2550    0.1260    0.0090 cp        1 93N      0.469800
      3 C3          1.7240    0.9140    1.0890 ca        1 93N     -0.221300
      4 C4          0.9850    0.9530    2.2690 ca        1 93N     -0.094000
      5 C5         -0.1970    0.2170    2.3580 ca        1 93N     -0.209300
      6 C6         -0.5970   -0.5390    1.2340 ca        1 93N      0.497300
      7 C7          2.0430    0.0860   -1.2350 cp        1 93N     -0.196500
      8 C8          1.4100    0.1160   -2.4830 ca        1 93N     -0.009000
      9 C9          2.1630    0.0970   -3.6560 ca        1 93N     -0.211300
     10 C10         3.5710    0.0330   -3.5820 ca        1 93N      0.195100
     11 C11         4.2050   -0.0110   -2.3310 ca        1 93N     -0.220000
     12 C12         3.4410    0.0160   -1.1700 ca        1 93N     -0.048000
     13 O13         4.2250    0.0200   -4.7880 os        1 93N     -0.314900
     14 C14         5.6580   -0.0770   -4.7370 c3        1 93N      0.130400
     15 C15         6.1110   -0.0810   -6.1870 c3        1 93N     -0.090400
     16 C16         7.6150   -0.3450   -6.2340 c3        1 93N      0.174800
     17 N17         8.2090   -0.1070   -7.5430 n3        1 93N     -0.727600
     18 C18        -1.8120   -1.2930    1.3230 cg        1 93N      0.129800
     19 N19        -2.8000   -1.9000    1.4100 n1        1 93N     -0.336800
     20 C20         1.4710    0.1430   -5.0110 c3        1 93N      0.705200
     21 F21         1.8170    1.2210   -5.7890 f         1 93N     -0.234300
     22 F22         1.7110   -0.9480   -5.8100 f         1 93N     -0.234300
     23 F23         0.0990    0.2100   -4.9500 f         1 93N     -0.234300
     24 C24         8.3220   -0.7590   -9.9550 c3        1 93N      0.168300
     25 N25         9.7730   -0.8510   -9.8920 n3        1 93N     -0.732600
     26 C26        10.3300    0.0110   -8.8600 c3        1 93N      0.168300
     27 C27         9.6630   -0.1920   -7.4870 c3        1 93N      0.166300
     28 C28         7.6460   -0.9540   -8.5850 c3        1 93N      0.166300
     29 C29        10.3960   -0.6450  -11.1800 c3        1 93N      0.157100
     30 H3          2.6520    1.4930    0.9850 ha        1 93N      0.151000
     31 H4          1.3260    1.5590    3.1220 ha        1 93N      0.149000
     32 H5         -0.8060    0.2210    3.2720 ha        1 93N      0.158000
     33 H8          0.3080    0.1540   -2.5470 ha        1 93N      0.173000
     34 H11         5.3000   -0.0700   -2.2590 ha        1 93N      0.148000
     35 H12         3.9440   -0.0280   -0.1910 ha        1 93N      0.141000
     36 H14         5.9470   -1.0280   -4.2150 h1        1 93N      0.044200
     37 H14A        6.0720    0.8050   -4.1820 h1        1 93N      0.044200
     38 H15         5.5520   -0.8750   -6.7470 hc        1 93N      0.072200
     39 H15A        5.8610    0.9040   -6.6600 hc        1 93N      0.072200
     40 H16         7.8020   -1.4010   -5.8750 h1        1 93N      0.030200
     41 H16A        8.1240    0.3530   -5.5090 h1        1 93N      0.030200
     42 H24         7.7000   -2.0480   -8.3070 h1        1 93N      0.037950
     43 H24A        7.9550   -1.5770  -10.6370 h1        1 93N      0.037950
     44 H26        10.0070   -1.1800   -7.0610 h1        1 93N      0.037950
     45 H26A       11.4220   -0.2430   -8.7520 h1        1 93N      0.037950
     46 H27        10.0290    0.6250   -6.8050 h1        1 93N      0.037950
     47 H27A       10.2550    1.1020   -9.1410 h1        1 93N      0.037950
     48 H28         6.5600   -0.6790   -8.7010 h1        1 93N      0.037950
     49 H28A        7.9850    0.2290  -10.3860 h1        1 93N      0.037950
     50 H29         9.9820   -1.3940  -11.9040 h1        1 93N      0.032700
     51 H29A       11.5000   -0.8140  -11.0770 h1        1 93N      0.032700
     52 H29B       10.2300    0.3860  -11.5970 h1        1 93N      0.032700
@<TRIPOS>BOND
     1    1    2 ar  
     2    1    6 ar  
     3    2    3 ar  
     4    2    7 1   
     5    3    4 ar  
     6    3   30 1   
     7    4    5 ar  
     8    4   31 1   
     9    5    6 ar  
    10    5   32 1   
    11    6   18 1   
    12    7    8 ar  
    13    7   12 ar  
    14    8    9 ar  
    15    8   33 1   
    16    9   10 ar  
    17    9   20 1   
    18   10   11 ar  
    19   10   13 1   
    20   11   12 ar  
    21   11   34 1   
    22   12   35 1   
    23   13   14 1   
    24   14   15 1   
    25   14   36 1   
    26   14   37 1   
    27   15   16 1   
    28   15   38 1   
    29   15   39 1   
    30   16   17 1   
    31   16   40 1   
    32   16   41 1   
    33   17   27 1   
    34   17   28 1   
    35   18   19 3   
    36   20   21 1   
    37   20   22 1   
    38   20   23 1   
    39   24   25 1   
    40   24   28 1   
    41   24   43 1   
    42   24   49 1   
    43   25   26 1   
    44   25   29 1   
    45   26   27 1   
    46   26   45 1   
    47   26   47 1   
    48   27   44 1   
    49   27   46 1   
    50   28   42 1   
    51   28   48 1   
    52   29   50 1   
    53   29   51 1   
    54   29   52 1   
@<TRIPOS>SUBSTRUCTURE
     1 93N         1 TEMP              0 ****  ****    0 ROOT
