@<TRIPOS>MOLECULE
941
   79    80     1     0     0
SMALL
bcc


@<TRIPOS>ATOM
      1 C1          0.0000    0.0000    0.0000 ca        1 941     -0.107000
      2 C2          1.3870    0.0000    0.0000 ca        1 941      0.160100
      3 C3          2.0790    0.0000    1.2030 ca        1 941     -0.107000
      4 C4          1.3840    0.0030    2.3970 ca        1 941     -0.101000
      5 C5          0.0020   -0.0030    2.3950 ca        1 941     -0.201300
      6 C6         -0.6900   -0.0020    1.1970 ca        1 941     -0.101000
      7 C9         -1.0080   -1.4480    4.1390 c3        1 941     -0.029500
      8 N1         -1.8970   -2.1020    3.1760 ny        1 941      0.148200
      9 C10        -3.1300   -1.6060    2.9530 c         1 941      0.478100
     10 C11        -1.6530   -1.4520    5.5010 c         1 941     -0.000900
     11 N2         -0.8970   -1.2850    6.6050 ny        1 941      0.306200
     12 C12        -1.5240   -1.2880    7.9290 c3        1 941     -0.027200
     13 C13        -0.4530   -1.0800    9.0010 c3        1 941     -0.032400
     14 C14        -0.0350   -0.8760   11.4560 c3        1 941      0.181400
     15 C15        -1.1070   -1.0850   10.3840 c3        1 941     -0.031400
     16 O1         -0.6480   -0.8800   12.7470 os        1 941     -0.270900
     17 O4         -3.5050   -0.6170    3.5520 o         1 941     -0.462000
     18 O9         -3.9470   -2.2070    2.0680 os        1 941     -0.413900
     19 C8          2.0050    1.3350   -1.6880 c3        1 941      0.028100
     20 O8         -2.8510   -1.6050    5.6040 o         1 941     -0.633100
     21 C7         -0.7530   -0.0040    3.6990 c3        1 941      0.017900
     22 C16         3.2450    2.0880   -1.2780 c         1 941      0.962600
     23 C24         1.9160    1.2930   -3.1910 c         1 941      0.962600
     24 O6          1.8480    2.4360   -3.8920 o         1 941     -0.685300
     25 O7          1.9080    0.2300   -3.7660 o         1 941     -0.685300
     26 C32         0.3460   -0.6930   13.6520 ca        1 941      0.193100
     27 C33         1.6560   -0.5440   13.2260 ca        1 941     -0.261000
     28 C34         2.6700   -0.3540   14.1450 ca        1 941      0.000000
     29 C35         2.3890   -0.3040   15.4990 ca        1 941     -0.217000
     30 C36         1.0870   -0.4440   15.9470 ca        1 941      0.222100
     31 C37         0.0500   -0.6390   15.0220 ca        1 941     -0.190600
     32 C38        -1.3380   -0.7890   15.4860 c         1 941      0.746700
     33 O11        -2.0470    0.1910   15.6120 o         1 941     -0.576000
     34 O12        -1.8240   -2.0130   15.7730 os        1 941     -0.416900
     35 C39        -3.1940   -2.1610   16.2320 c3        1 941      0.276700
     36 O13         0.8150   -0.3950   17.2750 oh        1 941     -0.482100
     37 O3          4.1340    1.5160   -0.6950 o         1 941     -0.685300
     38 O5          3.3600    3.3950   -1.5620 o         1 941     -0.685300
     39 O2          2.0670    0.0020   -1.1760 os        1 941     -0.251900
     40 C41        -5.2770   -1.6740    1.8290 c3        1 941      0.197800
     41 C42        -5.1650   -0.2380    1.3120 c3        1 941     -0.029767
     42 C43        -5.9920   -2.5360    0.7870 c3        1 941     -0.029767
     43 C44        -6.0740   -1.6860    3.1340 c3        1 941     -0.029767
     44 H1         -0.5420    0.0000   -0.9380 ha        1 941      0.143500
     45 H3          3.1590   -0.0800    1.2060 ha        1 941      0.143500
     46 H4          1.9240    0.0030    3.3360 ha        1 941      0.095000
     47 H6         -1.7730   -0.0040    1.1970 ha        1 941      0.095000
     48 H9         -0.0670   -1.9830    4.1840 hx        1 941      0.047700
     49 HN1        -2.0090   -3.0510    3.4740 hn        1 941      0.256300
     50 HN2        -0.2150   -2.0170    6.6040 hn        1 941      0.177300
     51 H121       -2.0190   -2.2370    8.0920 hx        1 941      0.083700
     52 H122       -2.2520   -0.4870    7.9850 hx        1 941      0.083700
     53 H131        0.2750   -1.8800    8.9440 hc        1 941      0.025700
     54 H132        0.0410   -0.1300    8.8390 hc        1 941      0.025700
     55 H141        0.6930   -1.6770   11.3990 h1        1 941      0.016200
     56 H142        0.4590    0.0740   11.2930 h1        1 941      0.016200
     57 H151       -1.6010   -2.0350   10.5470 hc        1 941      0.036700
     58 H152       -1.8360   -0.2850   10.4410 hc        1 941      0.036700
     59 H8          1.1310    1.8340   -1.2880 h1        1 941      0.029700
     60 H71        -1.6990    0.5060    3.5690 hc        1 941      0.053200
     61 H72        -0.1680    0.5060    4.4550 hc        1 941      0.053200
     62 H33         1.8860   -0.5770   12.1680 ha        1 941      0.130000
     63 H34         3.6920   -0.2430   13.8030 ha        1 941      0.104000
     64 H35         3.1920   -0.1570   16.2110 ha        1 941      0.121000
     65 H391       -3.4110   -3.2110   16.3850 h1        1 941     -0.000633
     66 H392       -3.8690   -1.7580   15.4870 h1        1 941     -0.000633
     67 H393       -3.3230   -1.6250   17.1640 h1        1 941     -0.000633
     68 H13         1.2410    0.3550   17.6560 ho        1 941      0.416000
     69 H421       -6.1200    0.0760    0.9090 hc        1 941      0.026811
     70 H422       -4.4120   -0.1930    0.5340 hc        1 941      0.026811
     71 H423       -4.8830    0.4180    2.1260 hc        1 941      0.026811
     72 H431       -6.0740   -3.5520    1.1540 hc        1 941      0.026811
     73 H432       -6.9820   -2.1370    0.6050 hc        1 941      0.026811
     74 H433       -5.4250   -2.5310   -0.1360 hc        1 941      0.026811
     75 H441       -7.1340   -1.7180    2.9100 hc        1 941      0.026811
     76 H442       -5.8530   -0.7890    3.7010 hc        1 941      0.026811
     77 H443       -5.8010   -2.5570    3.7160 hc        1 941      0.026811
     78 H12        -1.4200   -2.1180    2.2960 hn        1 941      0.256300
     79 H22        -0.4280   -0.4060    6.5060 hn        1 941      0.177300
@<TRIPOS>BOND
     1    1    2 ar  
     2    1    6 ar  
     3    1   44 1   
     4    2    3 ar  
     5    2   39 1   
     6    3    4 ar  
     7    3   45 1   
     8    4    5 ar  
     9    4   46 1   
    10    5    6 ar  
    11    5   21 1   
    12    6   47 1   
    13    7    8 1   
    14    7   10 1   
    15    7   21 1   
    16    7   48 1   
    17    8    9 1   
    18    8   49 1   
    19    8   78 1   
    20    9   17 2   
    21    9   18 1   
    22   10   11 1   
    23   10   20 2   
    24   11   12 1   
    25   11   50 1   
    26   11   79 1   
    27   12   13 1   
    28   12   51 1   
    29   12   52 1   
    30   13   15 1   
    31   13   53 1   
    32   13   54 1   
    33   14   15 1   
    34   14   16 1   
    35   14   55 1   
    36   14   56 1   
    37   15   57 1   
    38   15   58 1   
    39   16   26 1   
    40   18   40 1   
    41   19   22 1   
    42   19   23 1   
    43   19   39 1   
    44   19   59 1   
    45   21   60 1   
    46   21   61 1   
    47   22   37 1   
    48   22   38 1   
    49   23   24 1   
    50   23   25 1   
    51   26   27 ar  
    52   26   31 ar  
    53   27   28 ar  
    54   27   62 1   
    55   28   29 ar  
    56   28   63 1   
    57   29   30 ar  
    58   29   64 1   
    59   30   31 ar  
    60   30   36 1   
    61   31   32 1   
    62   32   33 2   
    63   32   34 1   
    64   34   35 1   
    65   35   65 1   
    66   35   66 1   
    67   35   67 1   
    68   36   68 1   
    69   40   41 1   
    70   40   42 1   
    71   40   43 1   
    72   41   69 1   
    73   41   70 1   
    74   41   71 1   
    75   42   72 1   
    76   42   73 1   
    77   42   74 1   
    78   43   75 1   
    79   43   76 1   
    80   43   77 1   
@<TRIPOS>SUBSTRUCTURE
     1 941         1 TEMP              0 ****  ****    0 ROOT
