@<TRIPOS>MOLECULE
941
   77    78     1     0     0
SMALL
bcc


@<TRIPOS>ATOM
      1 C1         -3.1480   -1.4040    1.4290 ca        1 941     -0.214500
      2 C2         -2.2400   -2.0940    0.5870 ca        1 941      0.217100
      3 C3         -1.7090   -1.4280   -0.5390 ca        1 941     -0.214500
      4 C4         -2.0460   -0.1050   -0.7820 ca        1 941     -0.094500
      5 C5         -2.9030    0.5960    0.0770 ca        1 941     -0.226300
      6 C6         -3.4640   -0.0810    1.1690 ca        1 941     -0.094500
      7 C9         -2.5510    2.9170    0.9200 c3        1 941      0.010700
      8 N1         -3.1030    4.2610    1.0320 n         1 941     -0.468900
      9 C10        -3.6140    4.9220   -0.0860 c         1 941      0.734100
     10 C11        -1.0080    2.9390    0.7340 c         1 941      0.619100
     11 N2         -0.3290    1.8040    1.0810 n         1 941     -0.527900
     12 C12         1.0830    1.6330    0.8290 c3        1 941      0.088000
     13 C13         1.4200    0.2860    0.1950 c3        1 941     -0.129400
     14 C14         3.1750   -1.4020   -0.1320 c3        1 941      0.095400
     15 C15         2.9170    0.0670    0.1550 c3        1 941     -0.061400
     16 O1          4.6140   -1.5600   -0.0950 os        1 941     -0.341900
     17 O4         -4.2190    4.4670   -1.0690 o         1 941     -0.585000
     18 O9         -3.5040    6.2940    0.0620 os        1 941     -0.460900
     19 C8         -0.9800   -4.0880    0.1650 c3        1 941     -0.079900
     20 O8         -0.4280    3.9890    0.3670 o         1 941     -0.665100
     21 C7         -3.2000    2.0310   -0.1590 c3        1 941     -0.009100
     22 C16         0.3890   -3.4070    0.2410 c         1 941      0.921100
     23 C24        -1.0370   -5.5560    0.6930 c         1 941      0.921100
     24 O6         -1.2650   -6.4370   -0.1870 o         1 941     -0.852800
     25 O7         -0.8920   -5.8050    1.9160 o         1 941     -0.852800
     26 C32         5.0770   -2.8420   -0.1780 ca        1 941      0.232100
     27 C33         4.2440   -3.9720   -0.2880 ca        1 941     -0.225000
     28 C34         4.8110   -5.2360   -0.3290 ca        1 941     -0.036000
     29 C35         6.1960   -5.4130   -0.2580 ca        1 941     -0.234000
     30 C36         7.0230   -4.2920   -0.1490 ca        1 941      0.179100
     31 C37         6.4870   -2.9860   -0.1280 ca        1 941     -0.272600
     32 C38         7.3310   -1.7960   -0.0700 c         1 941      0.677700
     33 O11         7.3110   -0.7590   -0.7330 o         1 941     -0.534000
     34 O12         8.3370   -1.8790    0.8830 os        1 941     -0.475900
     35 C39         9.1690   -0.7360    1.0340 c3        1 941      0.132700
     36 O13         8.3760   -4.5560   -0.1130 oh        1 941     -0.526100
     37 O3          0.7090   -2.6760    1.2260 o         1 941     -0.852800
     38 O5          1.1700   -3.5180   -0.7590 o         1 941     -0.852800
     39 O2         -1.9760   -3.3750    0.9360 os        1 941     -0.266900
     40 C41        -4.0760    7.1700   -0.9320 c3        1 941      0.187800
     41 C42        -5.5860    7.0060   -1.0020 c3        1 941     -0.112100
     42 C43        -3.7230    8.5630   -0.4050 c3        1 941     -0.112100
     43 C44        -3.4280    6.9490   -2.2900 c3        1 941     -0.112100
     44 H1         -3.5690   -1.9330    2.2950 ha        1 941      0.158000
     45 H3         -0.9870   -1.9490   -1.1900 ha        1 941      0.158000
     46 H4         -1.6150    0.4080   -1.6550 ha        1 941      0.108000
     47 H6         -4.1600    0.4530    1.8340 ha        1 941      0.108000
     48 H9         -2.7720    2.4490    1.9310 h1        1 941      0.085700
     49 HN1        -2.5110    4.8560    1.5850 hn        1 941      0.304500
     50 HN2        -0.8520    0.9600    1.2140 hn        1 941      0.343500
     51 H121        1.6140    1.7170    1.8220 h1        1 941      0.042700
     52 H122        1.4520    2.4710    0.1720 h1        1 941      0.042700
     53 H131        1.0030    0.2390   -0.8450 hc        1 941      0.091200
     54 H132        0.9430   -0.5660    0.7710 hc        1 941      0.091200
     55 H141        2.8010   -1.7050   -1.1450 h1        1 941      0.111200
     56 H142        2.6750   -2.0610    0.6400 h1        1 941      0.111200
     57 H151        3.3810    0.3400    1.1380 hc        1 941      0.029700
     58 H152        3.3940    0.7090   -0.6290 hc        1 941      0.029700
     59 H8         -1.3170   -4.0990   -0.9090 h1        1 941      0.039700
     60 H71        -4.3120    2.1940   -0.1400 hc        1 941      0.061700
     61 H72        -2.8380    2.3560   -1.1700 hc        1 941      0.061700
     62 H33         3.1310   -3.8630   -0.3390 ha        1 941      0.254000
     63 H34         4.1520   -6.1150   -0.4080 ha        1 941      0.152000
     64 H35         6.6430   -6.4150   -0.2810 ha        1 941      0.133000
     65 H391        9.7420   -0.5520    0.0930 h1        1 941      0.037367
     66 H392        8.5510    0.1610    1.2810 h1        1 941      0.037367
     67 H393        9.8510   -1.0050    1.8780 h1        1 941      0.037367
     68 H13         8.8440   -3.7580    0.1700 ho        1 941      0.425000
     69 H421       -6.0250    7.0760    0.0220 hc        1 941      0.046922
     70 H422       -6.0190    7.8110   -1.6410 hc        1 941      0.046922
     71 H423       -5.8480    6.0110   -1.4380 hc        1 941      0.046922
     72 H431       -2.6160    8.6690   -0.3190 hc        1 941      0.046922
     73 H432       -4.1160    9.3320   -1.1090 hc        1 941      0.046922
     74 H433       -4.1760    8.7170    0.6030 hc        1 941      0.046922
     75 H441       -3.7410    5.9650   -2.7150 hc        1 941      0.046922
     76 H442       -3.7350    7.7630   -2.9870 hc        1 941      0.046922
     77 H443       -2.3160    6.9540   -2.1860 hc        1 941      0.046922
@<TRIPOS>BOND
     1    1    2 ar  
     2    1    6 ar  
     3    1   44 1   
     4    2    3 ar  
     5    2   39 1   
     6    3    4 ar  
     7    3   45 1   
     8    4    5 ar  
     9    4   46 1   
    10    5    6 ar  
    11    5   21 1   
    12    6   47 1   
    13    7    8 1   
    14    7   10 1   
    15    7   21 1   
    16    7   48 1   
    17    8    9 1   
    18    8   49 1   
    19    9   17 2   
    20    9   18 1   
    21   10   11 1   
    22   10   20 2   
    23   11   12 1   
    24   11   50 1   
    25   12   13 1   
    26   12   51 1   
    27   12   52 1   
    28   13   15 1   
    29   13   53 1   
    30   13   54 1   
    31   14   15 1   
    32   14   16 1   
    33   14   55 1   
    34   14   56 1   
    35   15   57 1   
    36   15   58 1   
    37   16   26 1   
    38   18   40 1   
    39   19   22 1   
    40   19   23 1   
    41   19   39 1   
    42   19   59 1   
    43   21   60 1   
    44   21   61 1   
    45   22   37 1   
    46   22   38 1   
    47   23   24 1   
    48   23   25 1   
    49   26   27 ar  
    50   26   31 ar  
    51   27   28 ar  
    52   27   62 1   
    53   28   29 ar  
    54   28   63 1   
    55   29   30 ar  
    56   29   64 1   
    57   30   31 ar  
    58   30   36 1   
    59   31   32 1   
    60   32   33 2   
    61   32   34 1   
    62   34   35 1   
    63   35   65 1   
    64   35   66 1   
    65   35   67 1   
    66   36   68 1   
    67   40   41 1   
    68   40   42 1   
    69   40   43 1   
    70   41   69 1   
    71   41   70 1   
    72   41   71 1   
    73   42   72 1   
    74   42   73 1   
    75   42   74 1   
    76   43   75 1   
    77   43   76 1   
    78   43   77 1   
@<TRIPOS>SUBSTRUCTURE
     1 941         1 TEMP              0 ****  ****    0 ROOT
