@<TRIPOS>MOLECULE
941
   77    73     1     0     0
SMALL
bcc


@<TRIPOS>ATOM
      1 C1          1.2710    4.1000   -5.9630 c1        1 941     -0.154000
      2 C2          2.4740    3.5040   -5.6500 c1        1 941      0.160000
      3 C3          2.6110    2.7930   -4.4640 c1        1 941     -0.213000
      4 C4          1.5360    2.6830   -3.5930 c1        1 941     -0.093000
      5 C5          0.3350    3.2770   -3.9030 c1        1 941     -0.222000
      6 C6          0.2000    3.9910   -5.0990 c1        1 941     -0.154000
      7 C9         -0.8980    1.9650   -2.1610 c3        1 941     -0.001000
      8 N1         -1.7680    1.1450   -2.8910 n         1 941     -0.322000
      9 C10        -1.6610   -0.2610   -2.8070 c2        1 941      0.394000
     10 C11        -1.4480    2.1670   -0.7510 c2        1 941      0.297000
     11 N2         -0.6540    1.7790    0.3940 n         1 941     -0.373000
     12 C12        -1.2940    1.3230    1.5810 c3        1 941     -0.022000
     13 C13        -0.2700    0.5820    2.4630 c3        1 941     -0.193000
     14 C14        -0.0770   -1.1140    4.3280 c3        1 941     -0.022000
     15 C15        -0.9990   -0.0690    3.6700 c3        1 941     -0.160000
     16 O1         -0.7710   -1.7320    5.4770 os        1 941     -0.204000
     17 O4         -0.8890   -0.7600   -2.0310 o         1 941     -0.448000
     18 O9         -2.5820   -1.1110   -3.5760 os        1 941     -0.264000
     19 C8          4.4360    4.6190   -6.4070 c3        1 941     -0.092000
     20 O8         -2.5300    2.6880   -0.5900 o         1 941     -0.393000
     21 C7         -0.7760    3.3310   -2.8630 c3        1 941     -0.094000
     22 C16         5.7570    4.1050   -5.9470 c2        1 941      0.342500
     23 C24         4.6010    5.3160   -7.6740 c2        1 941      0.342500
     24 O6          4.5180    6.5590   -7.7150 o         1 941     -0.588500
     25 O7          4.7320    4.6630   -8.7350 o         1 941     -0.588500
     26 C32         0.0150   -2.7250    6.1700 c2        1 941      0.172000
     27 C33         1.1370   -3.2480    5.5690 c2        1 941     -0.245000
     28 C34         1.9830   -4.1060    6.2870 c1        1 941     -0.035000
     29 C35         1.6910   -4.4260    7.6000 c1        1 941     -0.265000
     30 C36         0.5600   -3.8970    8.2030 c1        1 941      0.148000
     31 C37        -0.2810   -3.0430    7.4850 c1        1 941     -0.163000
     32 C38        -1.5010   -2.4580    8.1460 c2        1 941      0.383000
     33 O11        -1.5000   -1.2780    8.4980 o         1 941     -0.346000
     34 O12        -2.5680   -3.3130    8.5430 os        1 941     -0.261000
     35 C39        -3.3660   -2.7910    9.5990 c3        1 941     -0.063000
     36 O13         0.3020   -4.1520    9.5490 oh        1 941     -0.243000
     37 O3          6.2730    3.1150   -6.5100 o         1 941     -0.588500
     38 O5          6.3800    4.7010   -5.0080 o         1 941     -0.588500
     39 O2          3.5300    3.5230   -6.5810 os        1 941     -0.150000
     40 C41        -2.1200   -2.4920   -3.7350 c3        1 941      0.123000
     41 C42        -2.1850   -3.2040   -2.3990 c3        1 941     -0.246667
     42 C43        -3.0180   -3.2240   -4.7470 c3        1 941     -0.246667
     43 C44        -0.6660   -2.4890   -4.2480 c3        1 941     -0.246667
     44 H1          1.1780    4.5890   -6.7800 ha        1 941      0.119000
     45 H3          3.5030    2.3520   -4.2330 ha        1 941      0.198000
     46 H4          1.6350    2.1750   -2.7450 ha        1 941      0.105000
     47 H6         -0.6270    4.4770   -5.2860 ha        1 941      0.119000
     48 H9         -0.0210    1.5470   -2.1090 h1        1 941      0.117000
     49 HN1        -2.3500    1.4980   -3.4120 hn        1 941      0.249000
     50 HN2         0.2040    1.8960    0.3840 hn        1 941      0.254000
     51 H121       -2.0330    0.7030    1.3420 h1        1 941      0.090000
     52 H122       -1.6660    2.1120    2.0870 h1        1 941      0.090000
     53 H131        0.4090    1.2260    2.7950 hc        1 941      0.093500
     54 H132        0.1670   -0.1050    1.9410 hc        1 941      0.093500
     55 H141        0.7630   -0.6680    4.6460 h1        1 941      0.087000
     56 H142        0.1430   -1.7880    3.6910 h1        1 941      0.087000
     57 H151       -1.7950   -0.4960    3.3660 hc        1 941      0.096500
     58 H152       -1.2250    0.6140    4.3150 hc        1 941      0.096500
     59 H8          4.0590    5.2670   -5.7070 h1        1 941      0.070000
     60 H71        -1.6520    3.5530   -3.3200 hc        1 941      0.090000
     61 H72        -0.5660    4.0330   -2.1870 hc        1 941      0.090000
     62 H33         1.3420   -3.0210    4.6720 ha        1 941      0.154000
     63 H34         2.7940   -4.5070    5.8370 ha        1 941      0.137000
     64 H35         2.2930   -4.9750    8.1070 ha        1 941      0.134000
     65 H391       -3.8310   -2.0040    9.2940 h1        1 941      0.086000
     66 H392       -4.0070   -3.4550    9.8730 h1        1 941      0.086000
     67 H393       -2.8050   -2.5620   10.3400 h1        1 941      0.086000
     68 H13         0.8830   -4.7620    9.8560 ho        1 941      0.220000
     69 H421       -1.4370   -2.8900   -1.8160 hc        1 941      0.098000
     70 H422       -3.0650   -3.0020   -1.9540 hc        1 941      0.098000
     71 H423       -2.1020   -4.2110   -2.5480 hc        1 941      0.098000
     72 H431       -3.9420   -3.2500   -4.4080 hc        1 941      0.098000
     73 H432       -2.6870   -4.1470   -4.8730 hc        1 941      0.098000
     74 H433       -2.9970   -2.7560   -5.5940 hc        1 941      0.098000
     75 H441       -0.5140   -3.2890   -4.8110 hc        1 941      0.098000
     76 H442       -0.5090   -1.6860   -4.7760 hc        1 941      0.098000
     77 H443       -0.0580   -2.5050   -3.4970 hc        1 941      0.098000
@<TRIPOS>BOND
     1    1    6 1   
     2    1   44 1   
     3    2    3 1   
     4    2   39 1   
     5    3   45 1   
     6    4    5 1   
     7    4   46 1   
     8    5   21 1   
     9    6   47 1   
    10    7    8 1   
    11    7   10 1   
    12    7   21 1   
    13    7   48 1   
    14    8    9 1   
    15    8   49 1   
    16    9   17 1   
    17    9   18 1   
    18   10   11 1   
    19   10   20 1   
    20   11   12 1   
    21   11   50 1   
    22   12   13 1   
    23   12   51 1   
    24   12   52 1   
    25   13   15 1   
    26   13   53 1   
    27   13   54 1   
    28   14   15 1   
    29   14   16 1   
    30   14   55 1   
    31   14   56 1   
    32   15   57 1   
    33   15   58 1   
    34   16   26 1   
    35   18   40 1   
    36   19   22 1   
    37   19   23 1   
    38   19   39 1   
    39   19   59 1   
    40   21   60 1   
    41   21   61 1   
    42   22   37 1   
    43   22   38 1   
    44   23   24 1   
    45   23   25 1   
    46   26   27 1   
    47   26   31 1   
    48   27   28 1   
    49   27   62 1   
    50   28   63 1   
    51   29   30 1   
    52   29   64 1   
    53   30   36 1   
    54   31   32 1   
    55   32   33 1   
    56   32   34 1   
    57   34   35 1   
    58   35   65 1   
    59   35   66 1   
    60   35   67 1   
    61   36   68 1   
    62   40   41 1   
    63   40   42 1   
    64   40   43 1   
    65   41   69 1   
    66   41   70 1   
    67   41   71 1   
    68   42   72 1   
    69   42   73 1   
    70   42   74 1   
    71   43   75 1   
    72   43   76 1   
    73   43   77 1   
@<TRIPOS>SUBSTRUCTURE
     1 941         1 TEMP              0 ****  ****    0 ROOT
