@<TRIPOS>MOLECULE
942
   45    46     1     0     0
SMALL
bcc


@<TRIPOS>ATOM
      1 CAW         0.3700   -0.3700   -0.7530 c3        1 942     -0.102100
      2 CAX         1.5020    0.4130   -0.1400 c3        1 942     -0.082400
      3 CAV         1.7580   -0.0320    1.2880 c3        1 942     -0.103400
      4 CAU         2.9170    0.7740    1.8670 c3        1 942      0.033000
      5 NAQ         3.3140    0.4110    3.2290 n         1 942     -0.349000
      6 CAR         4.0170   -0.7300    3.5350 cc        1 942      0.235600
      7 NAS         4.3090   -1.6880    2.4290 n4        1 942     -0.771400
      8 CAP         2.9140    1.3230    4.2960 c         1 942      0.818500
      9 OAO         2.1540    2.2550    4.0260 o         1 942     -0.482500
     10 NAG         3.4300    1.0940    5.5700 n         1 942     -0.552500
     11 CAH         4.2540    0.0240    5.8970 c         1 942      0.736700
     12 OAA         4.7750   -0.0460    7.0140 o         1 942     -0.513500
     13 CAI         4.4570   -1.0170    4.8300 cd        1 942     -0.213200
     14 NAJ         5.1300   -2.2520    5.2110 n4        1 942     -0.460000
     15 CAB         4.9130   -2.6590    6.6350 c3        1 942      0.085100
     16 OAT         7.3100   -1.5240    5.7400 o         1 942     -0.330100
     17 CAE         8.7390   -2.7960    1.8890 ca        1 942     -0.115000
     18 CAD         8.2430   -4.0240    1.4520 ca        1 942     -0.037000
     19 CAL         7.1700   -4.6260    2.1260 ca        1 942     -0.115000
     20 CAM         6.5980   -4.0080    3.2310 ca        1 942     -0.097500
     21 CAK         6.6610   -2.1350    4.9180 c         1 942      0.562700
     22 CAN         7.0910   -2.7630    3.6680 ca        1 942     -0.269600
     23 CAF         8.1780   -2.1670    3.0020 ca        1 942     -0.097500
     24 HAW1        0.1940   -0.0240   -1.8010 hc        1 942      0.056700
     25 HAW2       -0.5750   -0.2240   -0.1740 hc        1 942      0.056700
     26 HAW3        0.6050   -1.4620   -0.7780 hc        1 942      0.056700
     27 HAX1        2.4330    0.2800   -0.7530 hc        1 942      0.059200
     28 HAX2        1.2490    1.5080   -0.1510 hc        1 942      0.059200
     29 HAV1        0.8300    0.1390    1.8990 hc        1 942      0.050200
     30 HAV2        1.9670   -1.1330    1.3050 hc        1 942      0.050200
     31 HAU1        3.8250    0.7280    1.1970 h1        1 942      0.111700
     32 HAU2        2.5980    1.8660    1.8890 h1        1 942      0.111700
     33 HAS1        4.2290   -1.2320    1.5020 hn        1 942      0.494133
     34 HAS2        3.6210   -2.4560    2.4590 hn        1 942      0.494133
     35 HAG         3.2230    1.7830    6.2800 hn        1 942      0.415500
     36 HAB1        5.5840   -2.0590    7.3180 hx        1 942      0.130700
     37 HAB2        3.8440   -2.4870    6.9270 hx        1 942      0.130700
     38 HAB3        5.1750   -3.7490    6.7180 hx        1 942      0.130700
     39 HAL         6.8060   -5.6160    1.7970 ha        1 942      0.190500
     40 HAM         5.8300   -4.5580    3.7990 ha        1 942      0.162000
     41 HAD         8.7100   -4.5380    0.5920 ha        1 942      0.194000
     42 HAF         8.6080   -1.2210    3.3770 ha        1 942      0.162000
     43 HAE         9.6010   -2.3300    1.3760 ha        1 942      0.190500
     44 HAS3        5.2720   -2.0640    2.5210 hn        1 942      0.494133
     45 HAJ1        4.7500   -3.0180    4.6460 hn        1 942      0.421800
@<TRIPOS>BOND
     1    1    2 1   
     2    1   24 1   
     3    1   25 1   
     4    1   26 1   
     5    2    3 1   
     6    2   27 1   
     7    2   28 1   
     8    3    4 1   
     9    3   29 1   
    10    3   30 1   
    11    4    5 1   
    12    4   31 1   
    13    4   32 1   
    14    5    6 1   
    15    5    8 1   
    16    6    7 1   
    17    6   13 2   
    18    7   33 1   
    19    7   34 1   
    20    7   44 1   
    21    8    9 2   
    22    8   10 1   
    23   10   11 1   
    24   10   35 1   
    25   11   12 2   
    26   11   13 1   
    27   13   14 1   
    28   14   15 1   
    29   14   21 1   
    30   14   45 1   
    31   15   36 1   
    32   15   37 1   
    33   15   38 1   
    34   16   21 2   
    35   17   18 ar  
    36   17   23 ar  
    37   17   43 1   
    38   18   19 ar  
    39   18   41 1   
    40   19   20 ar  
    41   19   39 1   
    42   20   22 ar  
    43   20   40 1   
    44   21   22 1   
    45   22   23 ar  
    46   23   42 1   
@<TRIPOS>SUBSTRUCTURE
     1 942         1 TEMP              0 ****  ****    0 ROOT
