@<TRIPOS>MOLECULE
942
   43    44     1     0     0
SMALL
bcc


@<TRIPOS>ATOM
      1 CAW         5.9490    0.9910    2.1730 c3        1 942     -0.094100
      2 CAX         4.9360    1.4200    1.1430 c3        1 942     -0.079400
      3 CAV         3.8310    0.3940    1.0010 c3        1 942     -0.107400
      4 CAU         2.8290    0.8610   -0.0540 c3        1 942      0.086000
      5 NAQ         1.7020   -0.0280   -0.2760 n         1 942     -0.389000
      6 CAR         0.6140   -0.0990    0.6170 cc        1 942      0.361600
      7 NAS         0.6460    0.6390    1.7890 nh        1 942     -0.851600
      8 CAP         1.7970   -0.9360   -1.3680 c         1 942      0.817500
      9 OAO         2.8060   -0.9320   -2.1060 o         1 942     -0.640500
     10 NAG         0.7400   -1.8080   -1.6160 n         1 942     -0.580500
     11 CAH        -0.4280   -1.8420   -0.8360 c         1 942      0.725700
     12 OAA        -1.3270   -2.6340   -1.1770 o         1 942     -0.628500
     13 CAI        -0.4810   -0.9400    0.3230 cd        1 942     -0.268600
     14 NAJ        -1.6080   -0.9920    1.1740 n         1 942     -0.358000
     15 CAB        -1.7390   -2.1910    1.9710 c3        1 942      0.068300
     16 OAT        -3.7580   -0.3490    1.6280 o         1 942     -0.582100
     17 CAE        -2.6600    1.4470   -2.4820 ca        1 942     -0.136500
     18 CAD        -2.7190    2.7940   -2.1250 ca        1 942     -0.116000
     19 CAL        -2.7700    3.1580   -0.7790 ca        1 942     -0.136500
     20 CAM        -2.7620    2.1770    0.2110 ca        1 942     -0.099000
     21 CAK        -2.7450   -0.2140    0.9170 c         1 942      0.671700
     22 CAN        -2.6890    0.8280   -0.1490 ca        1 942     -0.127600
     23 CAF        -2.6440    0.4600   -1.4960 ca        1 942     -0.099000
     24 HAW1        6.7550    1.7580    2.2630 hc        1 942      0.038367
     25 HAW2        5.4680    0.8650    3.1730 hc        1 942      0.038367
     26 HAW3        6.4170    0.0190    1.8830 hc        1 942      0.038367
     27 HAX1        4.4960    2.4100    1.4370 hc        1 942      0.041700
     28 HAX2        5.4430    1.5640    0.1520 hc        1 942      0.041700
     29 HAV1        4.2700   -0.5910    0.6910 hc        1 942      0.057700
     30 HAV2        3.3330    0.2370    1.9930 hc        1 942      0.057700
     31 HAU1        2.4360    1.8830    0.2140 h1        1 942      0.073200
     32 HAU2        3.3770    0.9680   -1.0380 h1        1 942      0.073200
     33 HAS1        1.2820    1.3940    1.8850 hn        1 942      0.441300
     34 HAS2       -0.1930    0.6900    2.3180 hn        1 942      0.441300
     35 HAG         0.8270   -2.4190   -2.4010 hn        1 942      0.356500
     36 HAB1       -0.8330   -2.2900    2.6240 h1        1 942      0.053033
     37 HAB2       -2.6560   -2.1190    2.6130 h1        1 942      0.053033
     38 HAB3       -1.8180   -3.0980    1.3120 h1        1 942      0.053033
     39 HAL        -2.8280    4.2200   -0.4980 ha        1 942      0.136000
     40 HAM        -2.8330    2.4580    1.2730 ha        1 942      0.148500
     41 HAD        -2.7320    3.5700   -2.9050 ha        1 942      0.134000
     42 HAF        -2.6000   -0.6070   -1.7740 ha        1 942      0.148500
     43 HAE        -2.6310    1.1590   -3.5430 ha        1 942      0.136000
@<TRIPOS>BOND
     1    1    2 1   
     2    1   24 1   
     3    1   25 1   
     4    1   26 1   
     5    2    3 1   
     6    2   27 1   
     7    2   28 1   
     8    3    4 1   
     9    3   29 1   
    10    3   30 1   
    11    4    5 1   
    12    4   31 1   
    13    4   32 1   
    14    5    6 1   
    15    5    8 1   
    16    6    7 1   
    17    6   13 2   
    18    7   33 1   
    19    7   34 1   
    20    8    9 2   
    21    8   10 1   
    22   10   11 1   
    23   10   35 1   
    24   11   12 2   
    25   11   13 1   
    26   13   14 1   
    27   14   15 1   
    28   14   21 1   
    29   15   36 1   
    30   15   37 1   
    31   15   38 1   
    32   16   21 2   
    33   17   18 ar  
    34   17   23 ar  
    35   17   43 1   
    36   18   19 ar  
    37   18   41 1   
    38   19   20 ar  
    39   19   39 1   
    40   20   22 ar  
    41   20   40 1   
    42   21   22 1   
    43   22   23 ar  
    44   23   42 1   
@<TRIPOS>SUBSTRUCTURE
     1 942         1 TEMP              0 ****  ****    0 ROOT
