@<TRIPOS>MOLECULE
942
   45    46     1     0     0
SMALL
bcc


@<TRIPOS>ATOM
      1 CAW         0.3470   -0.3710   -0.7280 c3        1 942     -0.102100
      2 CAX         1.4950    0.4070   -0.1370 c3        1 942     -0.082400
      3 CAV         1.7580   -0.0220    1.2960 c3        1 942     -0.103400
      4 CAU         2.9330    0.7780    1.8530 c3        1 942      0.033000
      5 NAQ         3.3370    0.4280    3.2150 n         1 942     -0.349000
      6 CAR         4.0300   -0.7170    3.5310 cc        1 942      0.235600
      7 NAS         4.2990   -1.6940    2.4360 n4        1 942     -0.771400
      8 CAP         2.9590    1.3600    4.2740 c         1 942      0.818500
      9 OAO         2.2080    2.2980    3.9980 o         1 942     -0.482500
     10 NAG         3.4840    1.1430    5.5450 n         1 942     -0.552500
     11 CAH         4.2990    0.0680    5.8800 c         1 942      0.736700
     12 OAA         4.8300    0.0080    6.9920 o         1 942     -0.513500
     13 CAI         4.4790   -0.9910    4.8250 cd        1 942     -0.213200
     14 NAJ         5.1410   -2.2280    5.2180 n4        1 942     -0.460000
     15 CAB         4.9330   -2.6120    6.6490 c3        1 942      0.085100
     16 OAT         7.3350   -1.5200    5.7140 o         1 942     -0.330100
     17 CAE         8.7070   -2.8670    1.8670 ca        1 942     -0.115000
     18 CAD         8.1920   -4.0960    1.4550 ca        1 942     -0.037000
     19 CAL         7.1190   -4.6740    2.1490 ca        1 942     -0.115000
     20 CAM         6.5660   -4.0320    3.2500 ca        1 942     -0.097500
     21 CAK         6.6690   -2.1350    4.9080 c         1 942      0.562700
     22 CAN         7.0790   -2.7870    3.6630 ca        1 942     -0.270600
     23 CAF         8.1660   -2.2150    2.9760 ca        1 942     -0.097500
     24 HAW1        0.5680   -1.4660   -0.7410 hc        1 942      0.056700
     25 HAW2        0.1650   -0.0370   -1.7800 hc        1 942      0.056700
     26 HAW3       -0.5900   -0.2050   -0.1430 hc        1 942      0.056700
     27 HAX1        1.2540    1.5040   -0.1600 hc        1 942      0.059200
     28 HAX2        2.4180    0.2530   -0.7560 hc        1 942      0.059200
     29 HAV1        1.9540   -1.1250    1.3260 hc        1 942      0.050200
     30 HAV2        0.8380    0.1690    1.9120 hc        1 942      0.050200
     31 HAU1        2.6270    1.8740    1.8610 h1        1 942      0.111700
     32 HAU2        3.8330    0.7110    1.1750 h1        1 942      0.111700
     33 HAS1        3.6030   -2.4520    2.4830 hn        1 942      0.493800
     34 HAS2        5.2580   -2.0800    2.5240 hn        1 942      0.493800
     35 HAG         3.2920    1.8450    6.2470 hn        1 942      0.415500
     36 HAB1        5.6170   -2.0110    7.3170 hx        1 942      0.130700
     37 HAB2        5.1820   -3.7040    6.7450 hx        1 942      0.130700
     38 HAB3        3.8690   -2.4230    6.9500 hx        1 942      0.130700
     39 HAL         6.7400   -5.6650    1.8390 ha        1 942      0.190500
     40 HAM         5.7980   -4.5640    3.8340 ha        1 942      0.162000
     41 HAD         8.6440   -4.6290    0.5980 ha        1 942      0.194000
     42 HAF         8.6110   -1.2680    3.3330 ha        1 942      0.162000
     43 HAE         9.5700   -2.4200    1.3390 ha        1 942      0.190500
     44 HAS3        4.2170   -1.2500    1.5030 hn        1 942      0.493800
     45 HAJ1        4.7450   -2.9980    4.6680 hn        1 942      0.421800
@<TRIPOS>BOND
     1    1    2 1   
     2    1   24 1   
     3    1   25 1   
     4    1   26 1   
     5    2    3 1   
     6    2   27 1   
     7    2   28 1   
     8    3    4 1   
     9    3   29 1   
    10    3   30 1   
    11    4    5 1   
    12    4   31 1   
    13    4   32 1   
    14    5    6 1   
    15    5    8 1   
    16    6    7 1   
    17    6   13 2   
    18    7   33 1   
    19    7   34 1   
    20    7   44 1   
    21    8    9 2   
    22    8   10 1   
    23   10   11 1   
    24   10   35 1   
    25   11   12 2   
    26   11   13 1   
    27   13   14 1   
    28   14   15 1   
    29   14   21 1   
    30   14   45 1   
    31   15   36 1   
    32   15   37 1   
    33   15   38 1   
    34   16   21 2   
    35   17   18 ar  
    36   17   23 ar  
    37   17   43 1   
    38   18   19 ar  
    39   18   41 1   
    40   19   20 ar  
    41   19   39 1   
    42   20   22 ar  
    43   20   40 1   
    44   21   22 1   
    45   22   23 ar  
    46   23   42 1   
@<TRIPOS>SUBSTRUCTURE
     1 942         1 TEMP              0 ****  ****    0 ROOT
