@<TRIPOS>MOLECULE
942
   43    41     1     0     0
SMALL
bcc


@<TRIPOS>ATOM
      1 CAW        -1.6790    3.7770   -5.3150 c3        1 942     -0.093100
      2 CAX        -2.1870    2.5420   -4.5730 c3        1 942     -0.079400
      3 CAV        -1.6680    2.5600   -3.1400 c3        1 942     -0.107400
      4 CAU        -1.9500    1.1960   -2.4740 c3        1 942      0.085000
      5 NAQ        -1.5190    1.2360   -1.0690 n         1 942     -0.389000
      6 CAR        -0.6070    0.2470   -0.5690 cc        1 942      0.350600
      7 NAS        -0.3040   -0.9170   -1.3610 nh        1 942     -0.818600
      8 CAP        -2.0740    2.2400   -0.1640 c         1 942      0.816500
      9 OAO        -2.9390    3.0080   -0.5590 o         1 942     -0.643500
     10 NAG        -1.6020    2.3210    1.2280 n         1 942     -0.579500
     11 CAH        -0.6010    1.4120    1.6990 c         1 942      0.729700
     12 OAA        -0.0900    1.5820    2.7950 o         1 942     -0.636500
     13 CAI        -0.1080    0.3420    0.8180 cd        1 942     -0.247600
     14 NAJ         0.8340   -0.6740    1.3400 n         1 942     -0.355000
     15 CAB         2.2370   -0.6060    0.9820 c3        1 942      0.076300
     16 OAT        -0.7440   -1.5660    2.7560 o         1 942     -0.617100
     17 CAE         2.3180   -4.7840    3.2260 c1        1 942     -0.060250
     18 CAD         3.1030   -4.3470    4.2900 c1        1 942     -0.060250
     19 CAL         3.0380   -3.0210    4.7040 c1        1 942     -0.060250
     20 CAM         2.1910   -2.1320    4.0570 c1        1 942     -0.037500
     21 CAK         0.3940   -1.6120    2.3440 c         1 942      0.626300
     22 CAN         1.4060   -2.5690    2.9930 cg        1 942     -0.089200
     23 CAF         1.4720   -3.8970    2.5780 c1        1 942     -0.060250
     24 HAW1       -2.0180    4.5820   -4.8780 hc        1 942      0.037033
     25 HAW2       -1.9920    3.7520   -6.2430 hc        1 942      0.037033
     26 HAW3       -0.6980    3.7860   -5.3010 hc        1 942      0.037033
     27 HAX1       -3.1660    2.5460   -4.5660 hc        1 942      0.041700
     28 HAX2       -1.8670    1.7370   -5.0250 hc        1 942      0.041700
     29 HAV1       -0.7070    2.7280   -3.1440 hc        1 942      0.058200
     30 HAV2       -2.1220    3.2680   -2.6380 hc        1 942      0.058200
     31 HAU1       -1.4590    0.4990   -2.9430 h1        1 942      0.074200
     32 HAU2       -2.9110    1.0040   -2.5150 h1        1 942      0.074200
     33 HAS1        0.5620   -1.1960   -1.4500 hn        1 942      0.428800
     34 HAS2       -0.9810   -1.4160   -1.7130 hn        1 942      0.428800
     35 HAG        -1.9520    2.9510    1.7940 hn        1 942      0.356500
     36 HAB1        2.7700   -0.3630    1.7790 h1        1 942      0.051367
     37 HAB2        2.3630    0.0710    0.2870 h1        1 942      0.051367
     38 HAB3        2.5300   -1.4760    0.6460 h1        1 942      0.051367
     39 HAL         3.5910   -2.7140    5.4540 ha        1 942      0.081250
     40 HAM         2.1450   -1.2040    4.3470 ha        1 942      0.096500
     41 HAD         3.7030   -4.9760    4.7490 ha        1 942      0.081250
     42 HAF         0.9220   -4.2040    1.8320 ha        1 942      0.081250
     43 HAE         2.3650   -5.7160    2.9370 ha        1 942      0.081250
@<TRIPOS>BOND
     1    1    2 1   
     2    1   24 1   
     3    1   25 1   
     4    1   26 1   
     5    2    3 1   
     6    2   27 1   
     7    2   28 1   
     8    3    4 1   
     9    3   29 1   
    10    3   30 1   
    11    4    5 1   
    12    4   31 1   
    13    4   32 1   
    14    5    6 1   
    15    5    8 1   
    16    6    7 1   
    17    6   13 2   
    18    7   33 1   
    19    7   34 1   
    20    8    9 2   
    21    8   10 1   
    22   10   11 1   
    23   10   35 1   
    24   11   12 2   
    25   11   13 1   
    26   13   14 1   
    27   14   15 1   
    28   14   21 1   
    29   15   36 1   
    30   15   37 1   
    31   15   38 1   
    32   16   21 2   
    33   17   23 3   
    34   17   43 1   
    35   18   19 3   
    36   18   41 1   
    37   19   39 1   
    38   20   22 3   
    39   20   40 1   
    40   21   22 1   
    41   23   42 1   
@<TRIPOS>SUBSTRUCTURE
     1 942         1 TEMP              0 ****  ****    0 ROOT
