@<TRIPOS>MOLECULE
942
   45    46     1     0     0
SMALL
bcc


@<TRIPOS>ATOM
      1 CAW         0.3540   -0.3330   -0.7260 c3        1 942     -0.102100
      2 CAX         1.4910    0.4430   -0.1130 c3        1 942     -0.082400
      3 CAV         1.7520   -0.0150    1.3110 c3        1 942     -0.103400
      4 CAU         2.9150    0.7850    1.8920 c3        1 942      0.033000
      5 NAQ         3.3170    0.4090    3.2480 n         1 942     -0.349000
      6 CAR         4.0210   -0.7350    3.5410 cc        1 942      0.235600
      7 NAS         4.3060   -1.6840    2.4270 nz        1 942     -0.771400
      8 CAP         2.9240    1.3130    4.3250 c         1 942      0.818500
      9 OAO         2.1640    2.2490    4.0660 o         1 942     -0.482500
     10 NAG         3.4450    1.0730    5.5940 ns        1 942     -0.552500
     11 CAH         4.2690   -0.0020    5.9090 c         1 942      0.736700
     12 OAA         4.7940   -0.0820    7.0220 o         1 942     -0.513500
     13 CAI         4.4650   -1.0340    4.8320 cd        1 942     -0.213200
     14 NAJ         5.1390   -2.2720    5.2000 nx        1 942     -0.460000
     15 CAB         4.9270   -2.6920    6.6200 c3        1 942      0.085100
     16 OAT         7.3220   -1.5520    5.7270 o         1 942     -0.330100
     17 CAE         8.7330   -2.7900    1.8570 ca        1 942     -0.115000
     18 CAD         8.2330   -4.0140    1.4120 ca        1 942     -0.037000
     19 CAL         7.1630   -4.6210    2.0840 ca        1 942     -0.115000
     20 CAM         6.5960   -4.0130    3.1980 ca        1 942     -0.097500
     21 CAK         6.6680   -2.1550    4.9020 c         1 942      0.562700
     22 CAN         7.0930   -2.7720    3.6440 ca        1 942     -0.269600
     23 CAF         8.1780   -2.1720    2.9790 ca        1 942     -0.097500
     24 HAW1        0.1730    0.0230   -1.7710 hc        1 942      0.056700
     25 HAW2       -0.5880   -0.1900   -0.1420 hc        1 942      0.056700
     26 HAW3        0.5870   -1.4250   -0.7620 hc        1 942      0.056700
     27 HAX1        2.4180    0.3140   -0.7310 hc        1 942      0.059200
     28 HAX2        1.2390    1.5380   -0.1120 hc        1 942      0.059200
     29 HAV1        0.8270    0.1520    1.9270 hc        1 942      0.050200
     30 HAV2        1.9600   -1.1170    1.3170 hc        1 942      0.050200
     31 HAU1        3.8200    0.7430    1.2170 h1        1 942      0.111700
     32 HAU2        2.5980    1.8770    1.9230 h1        1 942      0.111700
     33 HAS1        4.2230   -1.2210    1.5030 hn        1 942      0.494133
     34 HAS2        3.6180   -2.4520    2.4520 hn        1 942      0.494133
     35 HAG         3.2420    1.7560    6.3110 hn        1 942      0.415500
     36 HAB1        5.6010   -2.0990    7.3060 hx        1 942      0.130700
     37 HAB2        3.8590   -2.5210    6.9190 hx        1 942      0.130700
     38 HAB3        5.1870   -3.7830    6.6930 hx        1 942      0.130700
     39 HAL         6.7960   -5.6080    1.7480 ha        1 942      0.190500
     40 HAM         5.8300   -4.5660    3.7640 ha        1 942      0.162000
     41 HAD         8.6970   -4.5210    0.5450 ha        1 942      0.194000
     42 HAF         8.6100   -1.2290    3.3610 ha        1 942      0.162000
     43 HAE         9.5940   -2.3210    1.3460 ha        1 942      0.190500
     44 HAS3        5.2690   -2.0620    2.5110 hn        1 942      0.494133
     45 HAJ1        4.7560   -3.0340    4.6290 hn        1 942      0.421800
@<TRIPOS>BOND
     1    1    2 1   
     2    1   24 1   
     3    1   25 1   
     4    1   26 1   
     5    2    3 1   
     6    2   27 1   
     7    2   28 1   
     8    3    4 1   
     9    3   29 1   
    10    3   30 1   
    11    4    5 1   
    12    4   31 1   
    13    4   32 1   
    14    5    6 1   
    15    5    8 1   
    16    6    7 1   
    17    6   13 2   
    18    7   33 1   
    19    7   34 1   
    20    7   44 1   
    21    8    9 2   
    22    8   10 1   
    23   10   11 1   
    24   10   35 1   
    25   11   12 2   
    26   11   13 1   
    27   13   14 1   
    28   14   15 1   
    29   14   21 1   
    30   14   45 1   
    31   15   36 1   
    32   15   37 1   
    33   15   38 1   
    34   16   21 2   
    35   17   18 ar  
    36   17   23 ar  
    37   17   43 1   
    38   18   19 ar  
    39   18   41 1   
    40   19   20 ar  
    41   19   39 1   
    42   20   22 ar  
    43   20   40 1   
    44   21   22 1   
    45   22   23 ar  
    46   23   42 1   
@<TRIPOS>SUBSTRUCTURE
     1 942         1 TEMP              0 ****  ****    0 ROOT
