@<TRIPOS>MOLECULE
94M
   37    31     1     0     0
SMALL
bcc


@<TRIPOS>ATOM
      1 N1         -5.3050   -2.2950    0.1830 n1        1 94M     -0.234000
      2 C2         -4.6650   -1.9450   -0.9790 c1        1 94M      0.174000
      3 N2         -5.4230   -2.0900   -2.2140 n3        1 94M     -0.323000
      4 N3         -3.3070   -1.6380   -0.9610 n1        1 94M     -0.233000
      5 C4         -2.6000   -1.6860    0.2320 c1        1 94M     -0.061500
      6 C5         -3.2340   -2.0330    1.3820 c1        1 94M     -0.061500
      7 C6         -4.6050   -2.3430    1.3630 c1        1 94M      0.122000
      8 CL6        -5.3780   -2.6760    2.9220 cl        1 94M      0.049000
      9 N7         -2.3360   -2.0020    2.3770 n1        1 94M     -0.140500
     10 C8         -1.1450   -1.6380    1.8560 c1        1 94M     -0.013000
     11 N9         -1.3110   -1.4440    0.5300 n1        1 94M     -0.140500
     12 CAA         4.7310    1.8960   -0.7900 c3        1 94M     -0.074000
     13 CAB         2.7310    3.5400    1.2780 c3        1 94M     -0.178000
     14 CAC         2.1830   -0.4160   -1.7730 c3        1 94M     -0.181000
     15 CAF         0.7270    1.9550    1.4460 c1        1 94M     -0.059000
     16 CAH        -0.2550   -1.2310   -0.3730 c2        1 94M      0.038000
     17 NAI        -0.0030    0.8890    1.0050 n1        1 94M     -0.139000
     18 OAM         3.3700    2.1090   -1.1210 os        1 94M     -0.225000
     19 CAN         1.9570    2.2610    0.8470 c2        1 94M     -0.124000
     20 CAP         1.6840    0.4150   -0.6210 c2        1 94M     -0.106000
     21 CAR         0.4650    0.1140   -0.0250 c2        1 94M     -0.049000
     22 CAS         2.4240    1.4940   -0.1760 c2        1 94M      0.079000
     23 HN2        -4.9910   -2.1080   -3.0100 hn        1 94M      0.225000
     24 HN2A       -6.2860   -2.2130   -2.1850 hn        1 94M      0.225000
     25 H8         -0.3170   -1.4560    2.3710 DU        1 94M      0.212000
     26 HAA         5.2090    1.5250   -1.5750 h1        1 94M      0.083000
     27 HAAA        5.1560    2.7800   -0.5220 h1        1 94M      0.083000
     28 HAAB        4.7890    1.2950   -0.0790 h1        1 94M      0.083000
     29 HAB         3.5650    3.2800    1.7580 hc        1 94M      0.092667
     30 HABA        2.9600    4.0570    0.4930 hc        1 94M      0.092667
     31 HABB        2.1800    4.0670    1.8590 hc        1 94M      0.092667
     32 HAC         1.6630   -0.2120   -2.5700 hc        1 94M      0.094333
     33 HACA        2.0880   -1.3590   -1.5570 hc        1 94M      0.094333
     34 HACB        3.1010   -0.2190   -1.9340 hc        1 94M      0.094333
     35 HAF         0.3930    2.5020    2.1750 ha        1 94M      0.166000
     36 HAH        -0.6160   -1.1860   -1.3050 ha        1 94M      0.122000
     37 HAHA        0.4000   -1.9870   -0.3050 ha        1 94M      0.122000
@<TRIPOS>BOND
     1    1    7 1   
     2    2    3 1   
     3    2    4 1   
     4    3   23 1   
     5    3   24 1   
     6    5    6 1   
     7    7    8 1   
     8    9   10 1   
     9   10   11 1   
    10   12   18 1   
    11   12   26 1   
    12   12   27 1   
    13   12   28 1   
    14   13   19 1   
    15   13   29 1   
    16   13   30 1   
    17   13   31 1   
    18   14   20 1   
    19   14   32 1   
    20   14   33 1   
    21   14   34 1   
    22   15   19 1   
    23   15   35 1   
    24   16   21 1   
    25   16   36 1   
    26   16   37 1   
    27   17   21 1   
    28   18   22 1   
    29   19   22 1   
    30   20   21 1   
    31   20   22 1   
@<TRIPOS>SUBSTRUCTURE
     1 94M         1 TEMP              0 ****  ****    0 ROOT
