@<TRIPOS>MOLECULE
94M
   37    36     1     0     0
SMALL
bcc


@<TRIPOS>ATOM
      1 N1         -1.1710    0.6100    1.0690 n2        1 94M     -0.238000
      2 C2          0.1260    0.9380    0.6890 c2        1 94M      0.205000
      3 N2          0.2920    1.5720   -0.5380 nv        1 94M     -0.328000
      4 N3          1.2670    0.6440    1.4170 n2        1 94M     -0.282000
      5 C4          1.1160   -0.0730    2.5630 c2        1 94M      0.198000
      6 C5         -0.2000   -0.4770    3.0290 c2        1 94M     -0.115000
      7 C6         -1.2980   -0.0830    2.2130 c2        1 94M      0.090000
      8 Cl6        -2.8830   -0.5030    2.7030 cl        1 94M      0.046000
      9 N7         -0.3780   -1.1950    4.1820 n2        1 94M     -0.272000
     10 C8         -0.5400   -1.8230    5.1720 c1        1 94M      0.136000
     11 N9          2.2540   -0.5010    3.2710 nu        1 94M     -0.246000
     12 CAA         7.7770    3.6110    2.8980 c1        1 94M      0.010000
     13 CAF         3.3370    3.4340    4.2530 c2        1 94M      0.059000
     14 CAH         3.5580   -0.0130    2.9100 c3        1 94M     -0.010000
     15 NAI         3.0280    2.1570    3.9830 n2        1 94M     -0.184000
     16 CAN         4.5290    4.0770    3.8220 c2        1 94M     -0.232000
     17 CAP         5.1230    1.9510    2.7440 c2        1 94M     -0.165000
     18 CAR         3.8930    1.4310    3.2380 c2        1 94M      0.035000
     19 CAS         5.4180    3.2810    3.0610 c2        1 94M      0.021000
     20 HN2        -0.5130    1.9660   -0.9650 hn        1 94M      0.235500
     21 HN2A        1.1670    2.0020   -0.7220 hn        1 94M      0.235500
     22 H8          2.1070   -0.5360    4.2620 hn        1 94M      0.223000
     23 HAA         9.0180    2.7390    1.0430 ha        1 94M      0.008000
     24 HAAA        9.0800    2.1420    1.3590 ha        1 94M      0.008000
     25 HAAB        7.9760    2.7920    3.6220 ha        1 94M      0.038000
     26 HAB         3.9760    6.4230    2.2320 ha        1 94M      0.008000
     27 HABA        5.6730    5.8960    3.8940 ha        1 94M      0.054000
     28 HABB        3.5280    6.6380    2.6970 ha        1 94M      0.008000
     29 HAC         6.2880    0.1710    2.4640 hc        1 94M      0.095333
     30 HACA        5.4960    0.8200    0.9660 hc        1 94M      0.095333
     31 HACB        6.9540    1.6480    1.6440 hc        1 94M      0.095333
     32 HAF         2.6020    4.0040    4.8570 h4        1 94M      0.192000
     33 HAH         4.3090   -0.6590    3.4580 h1        1 94M      0.128000
     34 HAHA        3.7140   -0.1590    1.8010 h1        1 94M      0.128000
     35 CAB         4.7150    5.4380    4.1860 c1        1 94M     -0.051000
     36 CAC         6.0120    1.1090    1.9170 c3        1 94M     -0.185000
     37 OAM         6.5840    3.9190    2.5580 os        1 94M     -0.041000
@<TRIPOS>BOND
     1    1    2 1   
     2    1    7 1   
     3    2    3 1   
     4    2    4 1   
     5    3   20 1   
     6    3   21 1   
     7    4    5 1   
     8    5    6 1   
     9    5   11 1   
    10    6    7 1   
    11    6    9 1   
    12    7    8 1   
    13    9   10 1   
    14   11   14 1   
    15   11   22 1   
    16   12   25 1   
    17   12   37 1   
    18   13   15 1   
    19   13   16 1   
    20   13   32 1   
    21   14   18 1   
    22   14   33 1   
    23   14   34 1   
    24   15   18 1   
    25   16   19 1   
    26   16   35 1   
    27   17   18 1   
    28   17   19 1   
    29   17   36 1   
    30   19   37 1   
    31   23   24 1   
    32   26   28 1   
    33   27   35 1   
    34   29   36 1   
    35   30   36 1   
    36   31   36 1   
@<TRIPOS>SUBSTRUCTURE
     1 94M         1 TEMP              0 ****  ****    0 ROOT
