@<TRIPOS>MOLECULE
94M
   37    39     1     0     0
SMALL
bcc


@<TRIPOS>ATOM
      1 N1          4.0080   -1.1260    0.3060 nb        1 94M     -0.760000
      2 C2          3.0050   -1.8030   -0.3990 ca        1 94M      0.892900
      3 N2          3.1580   -3.1880   -0.5220 nh        1 94M     -0.924500
      4 N3          1.8540   -1.2450   -0.9330 nb        1 94M     -0.762000
      5 C4          1.7240    0.0790   -0.6720 ca        1 94M      0.472800
      6 C5          2.7000    0.8780    0.0780 ca        1 94M     -0.199200
      7 C6          3.8400    0.1850    0.5360 ca        1 94M      0.617300
      8 CL6         5.0420    1.0350    1.3930 cl        1 94M     -0.116000
      9 N7          2.2630    2.2110    0.1640 nc        1 94M     -0.523100
     10 C8          1.0970    2.2380   -0.4920 cd        1 94M      0.433700
     11 N9          0.7230    0.9880   -1.0560 na        1 94M     -0.269000
     12 CAA        -5.4850   -1.7750   -0.0790 c3        1 94M      0.115700
     13 CAF        -3.0760    1.8460    0.6950 ca        1 94M      0.401200
     14 CAH        -0.5220    0.6750   -1.6900 c3        1 94M      0.003000
     15 NAI        -2.0230    1.8230   -0.1310 nb        1 94M     -0.668000
     16 CAN        -3.8950    0.7260    0.9650 ca        1 94M     -0.190600
     17 CAP        -2.4520   -0.5370   -0.5530 ca        1 94M     -0.160600
     18 CAR        -1.7150    0.6530   -0.7450 ca        1 94M      0.364600
     19 CAS        -3.5610   -0.4750    0.3200 ca        1 94M      0.118100
     20 HN2         4.0700   -3.5500   -0.3590 hn        1 94M      0.429300
     21 HN2A        2.6260   -3.6340   -1.2320 hn        1 94M      0.429300
     22 H8          0.4520    3.1190   -0.6140 h5        1 94M      0.088800
     23 HAA        -5.9100   -2.7330    0.3130 h1        1 94M      0.043367
     24 HAAA       -6.1580   -0.9140    0.1540 h1        1 94M      0.043367
     25 HAAB       -5.3020   -1.8410   -1.1790 h1        1 94M      0.043367
     26 HAB        -5.9380    1.2260    1.3510 hc        1 94M      0.053700
     27 HABA       -5.2910   -0.1590    2.3310 hc        1 94M      0.053700
     28 HABB       -4.8010    1.5460    2.7280 hc        1 94M      0.053700
     29 HAC        -1.0360   -2.0980   -0.9520 hc        1 94M      0.059033
     30 HACA       -2.7670   -2.6360   -0.8840 hc        1 94M      0.059033
     31 HACB       -2.1650   -1.7120   -2.3250 hc        1 94M      0.059033
     32 HAF        -3.2850    2.8160    1.1820 h4        1 94M      0.027100
     33 HAH        -0.7120    1.4590   -2.4820 h1        1 94M      0.082700
     34 HAHA       -0.4200   -0.3260   -2.1980 h1        1 94M      0.082700
     35 CAB        -5.0380    0.8400    1.8930 c3        1 94M     -0.053800
     36 CAC        -2.0870   -1.8100   -1.2120 c3        1 94M     -0.063800
     37 OAM        -4.2470   -1.6450    0.6200 os        1 94M     -0.340900
@<TRIPOS>BOND
     1    1    2 ar  
     2    1    7 ar  
     3    2    3 1   
     4    2    4 ar  
     5    3   20 1   
     6    3   21 1   
     7    4    5 ar  
     8    5    6 ar  
     9    5   11 1   
    10    6    7 ar  
    11    6    9 1   
    12    7    8 1   
    13    9   10 2   
    14   10   11 1   
    15   10   22 1   
    16   11   14 1   
    17   12   23 1   
    18   12   24 1   
    19   12   25 1   
    20   12   37 1   
    21   13   15 ar  
    22   13   16 ar  
    23   13   32 1   
    24   14   18 1   
    25   14   33 1   
    26   14   34 1   
    27   15   18 ar  
    28   16   19 ar  
    29   16   35 1   
    30   17   18 ar  
    31   17   19 ar  
    32   17   36 1   
    33   19   37 1   
    34   26   35 1   
    35   27   35 1   
    36   28   35 1   
    37   29   36 1   
    38   30   36 1   
    39   31   36 1   
@<TRIPOS>SUBSTRUCTURE
     1 94M         1 TEMP              0 ****  ****    0 ROOT
