@<TRIPOS>MOLECULE
94M
   37    37     1     0     0
SMALL
bcc


@<TRIPOS>ATOM
      1 N1         -0.6510    0.2880    0.5530 n2        1 94M     -0.240000
      2 C2          0.7230    0.4480    0.3990 c2        1 94M      0.213000
      3 N2          1.1960    0.7210   -0.8780 nh        1 94M     -0.328000
      4 N3          1.6590    0.3180    1.4110 n2        1 94M     -0.286000
      5 C4          1.2060   -0.0450    2.6440 c2        1 94M      0.209000
      6 C5         -0.2120   -0.2490    2.8950 c2        1 94M     -0.134000
      7 C6         -1.0760   -0.0570    1.7790 c2        1 94M      0.096000
      8 CL6        -2.7600   -0.2650    1.9970 cl        1 94M      0.049000
      9 N7         -0.6910   -0.6090    4.1280 n2        1 94M     -0.274000
     10 C8         -1.1220   -0.9300    5.1820 c1        1 94M      0.135000
     11 N9          2.1270   -0.2770    3.6670 nh        1 94M     -0.294000
     12 CAA         6.9910    4.6070    1.8610 c1        1 94M     -0.008000
     13 CAF         3.7520    3.5770    4.6960 c1        1 94M     -0.115000
     14 CAH         3.5290   -0.0010    3.5170 c3        1 94M      0.002000
     15 NAI         3.4510    2.2790    4.5650 n3        1 94M     -0.109000
     16 CAN         4.6350    4.1700    3.7210 c2        1 94M     -0.151000
     17 CAP         4.7930    1.9950    2.5930 c2        1 94M     -0.077000
     18 CAR         3.9330    1.4600    3.5450 c2        1 94M     -0.084000
     19 CAS         5.1320    3.3820    2.7040 c2        1 94M     -0.031000
     20 HN2         0.5390    1.0010   -1.5670 hn        1 94M      0.239500
     21 HN2A        2.1320    1.0370   -0.9710 hn        1 94M      0.239500
     22 H8          1.7680   -0.2050    4.5940 hn        1 94M      0.226000
     23 HAA         8.5310    2.7360    1.9650 ha        1 94M      0.004500
     24 HAAA        8.4600    2.8120    1.2950 ha        1 94M      0.004500
     25 HAAB        7.3390    4.8270    2.8940 ha        1 94M      0.037000
     26 HAB         5.7970    5.7410    4.5890 hc        1 94M      0.093000
     27 HABA        4.0550    6.1410    4.3030 hc        1 94M      0.093000
     28 HABB        5.2110    6.0750    2.8990 hc        1 94M      0.093000
     29 HAC         4.5240    0.8300    0.8150 hc        1 94M      0.097000
     30 HACA        6.0720    1.7750    0.8760 hc        1 94M      0.097000
     31 HACB        5.8860    0.2860    1.8900 hc        1 94M      0.097000
     32 HAF         2.8410    1.8790    5.2470 hn        1 94M      0.249000
     33 HAH         3.8860   -0.4640    2.5520 h1        1 94M      0.126000
     34 HAHA        4.0590   -0.5240    4.3690 h1        1 94M      0.126000
     35 CAB         4.9410    5.6060    3.8790 c3        1 94M     -0.168000
     36 CAC         5.3480    1.1810    1.4880 c3        1 94M     -0.182000
     37 OAM         5.9380    3.9100    1.6590 os        1 94M     -0.044000
@<TRIPOS>BOND
     1    1    2 1   
     2    1    7 1   
     3    2    3 1   
     4    2    4 1   
     5    3   20 1   
     6    3   21 1   
     7    4    5 1   
     8    5    6 1   
     9    5   11 1   
    10    6    7 1   
    11    6    9 1   
    12    7    8 1   
    13    9   10 1   
    14   11   14 1   
    15   11   22 1   
    16   12   25 1   
    17   12   37 1   
    18   13   15 1   
    19   13   16 1   
    20   14   18 1   
    21   14   33 1   
    22   14   34 1   
    23   15   18 1   
    24   15   32 1   
    25   16   19 1   
    26   16   35 1   
    27   17   18 1   
    28   17   19 1   
    29   17   36 1   
    30   19   37 1   
    31   23   24 1   
    32   26   35 1   
    33   27   35 1   
    34   28   35 1   
    35   29   36 1   
    36   30   36 1   
    37   31   36 1   
@<TRIPOS>SUBSTRUCTURE
     1 94M         1 TEMP              0 ****  ****    0 ROOT
