@<TRIPOS>MOLECULE
94M
   38    38     1     0     0
SMALL
bcc


@<TRIPOS>ATOM
      1 N1         -1.3740    0.8170    0.4250 n2        1 94M     -0.150000
      2 C2         -0.2790    1.6390    0.4620 c2        1 94M     -0.031000
      3 N2         -0.3530    2.8310   -0.4370 n4        1 94M     -0.003000
      4 N3          0.8760    1.5360    1.2010 n2        1 94M     -0.085000
      5 C4          0.8810    0.4520    2.0060 c2        1 94M      0.023000
      6 C5         -0.2210   -0.5210    2.0480 c2        1 94M     -0.090000
      7 C6         -1.3420   -0.2800    1.2250 c2        1 94M      0.081000
      8 CL6        -2.6500   -1.3420    1.2200 cl        1 94M      0.152000
      9 N7          0.0910   -1.5620    2.9440 n2        1 94M     -0.081000
     10 C8          1.2950   -1.2720    3.4270 c2        1 94M      0.079000
     11 N9          1.8750   -0.0410    2.9200 na        1 94M     -0.102000
     12 CAA         7.9430    3.6280    3.6850 c1        1 94M      0.014000
     13 CAF         3.6230    3.9410    2.8080 c2        1 94M     -0.084000
     14 CAH         3.0550    0.3750    3.3750 c1        1 94M      0.089000
     15 NAI         2.9720    2.7840    2.9090 n2        1 94M     -0.120000
     16 CAN         5.0400    4.0690    2.8460 c2        1 94M     -0.069000
     17 CAP         5.1250    1.6450    3.1460 c2        1 94M      0.030000
     18 CAR         3.7080    1.6460    3.0900 c2        1 94M     -0.134000
     19 CAS         5.7710    2.8940    3.0130 c2        1 94M     -0.078000
     20 HN2         0.5040    3.3930   -0.3450 hn        1 94M      0.276667
     21 HN2A       -1.1690    3.3980   -0.1730 hn        1 94M      0.276667
     22 H8          1.8730   -1.8690    4.1620 h5        1 94M      0.259000
     23 HAA         8.8220    1.3220    2.0120 ha        1 94M      0.001250
     24 HAAA        8.3320    0.8540    2.0050 ha        1 94M      0.001250
     25 HAAB        7.5350    4.3660    4.4040 ha        1 94M      0.052000
     26 HAB         5.0480    6.0640    2.0550 hc        1 94M      0.106667
     27 HABA        5.7470    5.8900    3.7180 hc        1 94M      0.106667
     28 HABB        6.6900    5.3240    2.2700 hc        1 94M      0.106667
     29 HAC         6.1620   -0.0150    2.3010 hc        1 94M      0.116333
     30 HACA        6.8560    0.5950    3.8540 hc        1 94M      0.116333
     31 HACB        5.3060   -0.3720    3.8680 hc        1 94M      0.116333
     32 HAF         2.9980    4.8470    2.6930 h4        1 94M      0.165000
     33 HAH         3.8380   -1.5440    5.0350 ha        1 94M      0.001250
     34 HAHA        3.9090   -2.1450    5.3420 ha        1 94M      0.001250
     35 CAC         5.8980    0.3980    3.3090 c3        1 94M     -0.203000
     36 OAM         7.1950    2.8770    2.9790 os        1 94M     -0.017000
     37 H23        -0.4570    2.5130   -1.4080 hn        1 94M      0.276667
     38 CAB         5.6640    5.4000    2.7130 c3        1 94M     -0.201000
@<TRIPOS>BOND
     1    1    2 1   
     2    1    7 1   
     3    2    3 1   
     4    2    4 1   
     5    3   20 1   
     6    3   21 1   
     7    3   37 1   
     8    4    5 1   
     9    5    6 1   
    10    5   11 1   
    11    6    7 1   
    12    6    9 1   
    13    7    8 1   
    14    9   10 1   
    15   10   11 1   
    16   10   22 1   
    17   11   14 1   
    18   12   25 1   
    19   12   36 1   
    20   13   15 1   
    21   13   16 1   
    22   13   32 1   
    23   14   18 1   
    24   15   18 1   
    25   16   19 1   
    26   16   38 1   
    27   17   18 1   
    28   17   19 1   
    29   17   35 1   
    30   19   36 1   
    31   23   24 1   
    32   26   38 1   
    33   27   38 1   
    34   28   38 1   
    35   29   35 1   
    36   30   35 1   
    37   31   35 1   
    38   33   34 1   
@<TRIPOS>SUBSTRUCTURE
     1 94M         1 TEMP              0 ****  ****    0 ROOT
