@<TRIPOS>MOLECULE
94W
   20    21     1     0     0
SMALL
bcc


@<TRIPOS>ATOM
      1 C01        -0.0310    0.0200    0.0800 ca        1 94W      0.123100
      2 O02        -0.6390    0.0570   -1.1610 os        1 94W     -0.326900
      3 C03        -2.0610    0.0230   -1.1680 c3        1 94W      0.113700
      4 C04         1.3700    0.0340    0.0410 ca        1 94W     -0.119000
      5 C05         2.0650    0.0010    1.2430 ca        1 94W     -0.061100
      6 C06         1.3650   -0.0420    2.4960 ca        1 94W      0.080400
      7 C07        -0.0410   -0.0590    2.5030 ca        1 94W     -0.053000
      8 C08        -0.7310   -0.0280    1.3010 ca        1 94W     -0.192000
      9 N09         2.1810   -0.0510    3.6350 nc        1 94W     -0.585100
     10 C10         3.4660   -0.0430    3.2660 cd        1 94W      0.556100
     11 N11         4.5670   -0.1640    4.1080 nv        1 94W     -0.855800
     12 S12         3.7350   -0.0010    1.5140 ss        1 94W     -0.072100
     13 H04         1.8910    0.0690   -0.9260 ha        1 94W      0.157000
     14 H08        -1.8300   -0.0410    1.3110 ha        1 94W      0.141000
     15 H031       -2.3160    0.0520   -2.2580 h1        1 94W      0.045367
     16 H032       -2.4800    0.9150   -0.6420 h1        1 94W      0.045367
     17 H033       -2.4370   -0.9200   -0.7010 h1        1 94W      0.045367
     18 H07        -0.5860   -0.0980    3.4580 ha        1 94W      0.152000
     19 H111        5.3100    0.4600    3.8730 hn        1 94W      0.403800
     20 H112        4.3520   -0.1610    5.0850 hn        1 94W      0.403800
@<TRIPOS>BOND
     1    1    2 1   
     2    1    4 ar  
     3    1    8 ar  
     4    2    3 1   
     5    3   15 1   
     6    3   16 1   
     7    3   17 1   
     8    4    5 ar  
     9    4   13 1   
    10    5    6 ar  
    11    5   12 1   
    12    6    7 ar  
    13    6    9 1   
    14    7    8 ar  
    15    7   18 1   
    16    8   14 1   
    17    9   10 2   
    18   10   11 1   
    19   10   12 1   
    20   11   19 1   
    21   11   20 1   
@<TRIPOS>SUBSTRUCTURE
     1 94W         1 TEMP              0 ****  ****    0 ROOT
