@<TRIPOS>MOLECULE
94W
   20    21     1     0     0
SMALL
bcc


@<TRIPOS>ATOM
      1 C01        -0.0300    0.0220    0.0790 ca        1 94W      0.123100
      2 O02        -0.6370    0.0620   -1.1620 os        1 94W     -0.326900
      3 C03        -2.0590    0.0270   -1.1700 c3        1 94W      0.113700
      4 C04         1.3710    0.0370    0.0410 ca        1 94W     -0.119000
      5 C05         2.0650    0.0010    1.2440 ca        1 94W     -0.061100
      6 C06         1.3640   -0.0440    2.4960 ca        1 94W      0.080400
      7 C07        -0.0420   -0.0610    2.5020 ca        1 94W     -0.053000
      8 C08        -0.7310   -0.0280    1.2990 ca        1 94W     -0.192000
      9 N09         2.1800   -0.0560    3.6360 nc        1 94W     -0.585100
     10 C10         3.4640   -0.0460    3.2680 cd        1 94W      0.556100
     11 N11         4.5650   -0.1690    4.1110 nh        1 94W     -0.855800
     12 S12         3.7350   -0.0010    1.5160 ss        1 94W     -0.072100
     13 H04         1.8930    0.0730   -0.9250 ha        1 94W      0.157000
     14 H08        -1.8300   -0.0410    1.3090 ha        1 94W      0.141000
     15 H031       -2.3130    0.0580   -2.2600 h1        1 94W      0.045367
     16 H032       -2.4790    0.9180   -0.6430 h1        1 94W      0.045367
     17 H033       -2.4350   -0.9170   -0.7050 h1        1 94W      0.045367
     18 H07        -0.5880   -0.1010    3.4570 ha        1 94W      0.152000
     19 H111        5.3080    0.4550    3.8770 hn        1 94W      0.403800
     20 H112        4.3490   -0.1680    5.0870 hn        1 94W      0.403800
@<TRIPOS>BOND
     1    1    2 1   
     2    1    4 ar  
     3    1    8 ar  
     4    2    3 1   
     5    3   15 1   
     6    3   16 1   
     7    3   17 1   
     8    4    5 ar  
     9    4   13 1   
    10    5    6 ar  
    11    5   12 1   
    12    6    7 ar  
    13    6    9 1   
    14    7    8 ar  
    15    7   18 1   
    16    8   14 1   
    17    9   10 2   
    18   10   11 1   
    19   10   12 1   
    20   11   19 1   
    21   11   20 1   
@<TRIPOS>SUBSTRUCTURE
     1 94W         1 TEMP              0 ****  ****    0 ROOT
