@<TRIPOS>MOLECULE
950
   44    36     1     0     0
SMALL
bcc


@<TRIPOS>ATOM
      1 C1         -0.1460    0.2190   -5.3500 c1        1 950     -0.239000
      2 C2          0.8740   -0.7210   -5.2650 c1        1 950      0.110000
      3 F2          1.6460   -1.5630   -6.0130 f         1 950     -0.123000
      4 C3          1.4960   -0.9580   -4.0550 c1        1 950     -0.183000
      5 C4          1.0930   -0.2390   -2.8910 c1        1 950      0.015000
      6 C5          0.0970    0.6790   -2.9720 c1        1 950      0.015000
      7 C6         -0.5410    0.9220   -4.2170 c1        1 950     -0.100000
      8 C7         -0.5250    0.2230   -6.8610 c2        1 950      0.357000
      9 N1         -1.3910   -0.7530   -7.3690 n3        1 950     -0.336000
     10 N2         -0.0130    1.1790   -7.6880 n2        1 950     -0.342000
     11 N3          1.5310   -0.2770   -1.5860 n1        1 950     -0.230000
     12 N4         -0.0890    1.2180   -1.7100 n1        1 950     -0.230000
     13 C8          0.7960    0.6260   -0.8650 c2        1 950      0.206000
     14 C1'         1.1080    0.7740    0.4520 c1        1 950     -0.306000
     15 C2'         2.1490    1.5820    0.8200 c1        1 950     -0.133000
     16 C3'         2.5260    1.6650    2.1550 c1        1 950     -0.133000
     17 C4'         1.8480    0.9300    3.1200 c1        1 950     -0.068000
     18 C5'         0.8090    0.1230    2.7580 c1        1 950     -0.085000
     19 C6'         0.4270    0.0370    1.4190 c1        1 950      0.298000
     20 O6'        -0.5940   -0.8260    1.0450 o         1 950     -0.467000
     21 O5'         0.2020   -0.7430    3.7360 os        1 950     -0.224000
     22 C10        -0.6420   -0.0390    4.7320 c3        1 950     -0.015000
     23 C20        -1.2800   -1.0770    5.6900 c3        1 950     -0.112000
     24 C30        -1.4160   -0.4810    7.0730 c3        1 950     -0.207000
     25 C40        -2.6450   -1.4570    5.1700 c3        1 950     -0.207000
     26 HC3         2.2140   -1.6200   -3.9970 ha        1 950      0.166000
     27 HC6        -1.2630    1.5860   -4.2780 ha        1 950      0.143000
     28 HH11       -1.9820   -1.1660   -6.8220 hn        1 950      0.264000
     29 HH12       -1.4500   -0.8720   -8.2770 hn        1 950      0.264000
     30 HH21        0.5400    1.7970   -7.3480 DU        1 950      0.295000
     31 HH22       -0.2250    1.1990   -8.5800 hn        1 950      0.248000
     32 HN3         2.1710   -0.7890   -1.2710 DU        1 950      0.295000
     33 HC2'        2.6240    2.0970    0.1500 ha        1 950      0.124000
     34 HC3'        3.2460    2.2260    2.4080 ha        1 950      0.124000
     35 HC4'        2.1220    0.9900    4.0800 ha        1 950      0.127000
     36 H10A       -0.0810    0.5990    5.2530 h1        1 950      0.076500
     37 H10B       -1.3600    0.4600    4.2640 h1        1 950      0.076500
     38 H20        -0.7220   -1.8610    5.7320 hc        1 950      0.099000
     39 H30A       -1.8230   -1.1770    7.7040 hc        1 950      0.072500
     40 H30B       -2.0170    0.3310    7.0310 hc        1 950      0.072500
     41 H30C       -0.4870   -0.2060    7.4210 hc        1 950      0.072500
     42 H40A       -3.1070   -2.0510    5.8380 hc        1 950      0.072500
     43 H40B       -3.1700   -0.6570    5.0310 hc        1 950      0.072500
     44 H40C       -2.5510   -1.9290    4.3340 hc        1 950      0.072500
@<TRIPOS>BOND
     1    1    7 1   
     2    1    8 1   
     3    2    3 1   
     4    2    4 1   
     5    4   26 1   
     6    5    6 1   
     7    7   27 1   
     8    8    9 1   
     9    8   10 1   
    10    9   28 1   
    11    9   29 1   
    12   10   31 1   
    13   11   13 1   
    14   12   13 1   
    15   13   14 1   
    16   14   19 1   
    17   15   16 1   
    18   15   33 1   
    19   16   34 1   
    20   17   18 1   
    21   17   35 1   
    22   18   21 1   
    23   19   20 1   
    24   21   22 1   
    25   22   23 1   
    26   22   36 1   
    27   22   37 1   
    28   23   24 1   
    29   23   25 1   
    30   23   38 1   
    31   24   39 1   
    32   24   40 1   
    33   24   41 1   
    34   25   42 1   
    35   25   43 1   
    36   25   44 1   
@<TRIPOS>SUBSTRUCTURE
     1 950         1 TEMP              0 ****  ****    0 ROOT
