@<TRIPOS>MOLECULE
950
   44    46     1     0     0
SMALL
bcc


@<TRIPOS>ATOM
      1 C1         -4.5720   -0.6240    0.0960 ca        1 950     -0.303900
      2 C2         -4.8240    0.7420   -0.1970 ca        1 950      0.126900
      3 F2         -6.1010    1.1880   -0.3400 f         1 950     -0.160900
      4 C3         -3.7820    1.6780   -0.3100 ca        1 950     -0.186000
      5 C4         -2.4810    1.2210   -0.1440 ca        1 950      0.037000
      6 C5         -2.1890   -0.2010    0.1510 ca        1 950     -0.002000
      7 C6         -3.2500   -1.0910    0.2600 ca        1 950     -0.121000
      8 C7         -5.6640   -1.5940    0.2430 ce        1 950      0.533400
      9 N1         -5.5640   -2.5480    1.2080 nh        1 950     -0.492600
     10 N2         -6.7400   -1.5390   -0.5850 nh        1 950     -0.476700
     11 N3         -1.2540    1.8430   -0.1960 na        1 950     -0.283600
     12 N4         -0.8260   -0.3940    0.2750 nc        1 950     -0.325600
     13 C8         -0.2390    0.8410    0.0570 cc        1 950      0.320500
     14 C1'         1.1360    1.1670    0.0650 cd        1 950     -0.329200
     15 C2'         1.5600    2.5300    0.1380 cd        1 950     -0.075000
     16 C3'         2.8720    2.8850    0.1800 cc        1 950     -0.198000
     17 C4'         3.8930    1.8850    0.1580 cc        1 950     -0.185000
     18 C5'         3.5430    0.5730    0.0850 cd        1 950     -0.002100
     19 C6'         2.1310    0.1060    0.0040 c         1 950      0.600500
     20 O6'         1.8860   -1.1050   -0.1380 o         1 950     -0.578100
     21 O5'         4.4280   -0.4880    0.0740 os        1 950     -0.304900
     22 C10         5.8130   -0.1360    0.1330 c3        1 950      0.126400
     23 C20         6.5900   -1.4510    0.1040 c3        1 950     -0.070700
     24 C30         6.5210   -2.0820   -1.2700 c3        1 950     -0.090100
     25 C40         8.0240   -1.2000    0.5170 c3        1 950     -0.090100
     26 HC3        -4.0140    2.7310   -0.5210 ha        1 950      0.157000
     27 HC6        -3.0330   -2.1560    0.4290 ha        1 950      0.148000
     28 HH11       -4.7420   -2.5610    1.7740 hn        1 950      0.313950
     29 HH12       -6.2190   -3.2870    1.3050 hn        1 950      0.313950
     30 HH21       -7.5320   -2.1290   -0.4800 hn        1 950      0.313950
     31 HH22       -6.7930   -0.7870   -1.2390 hn        1 950      0.313950
     32 HN3        -1.0860    2.7910   -0.4010 hn        1 950      0.309700
     33 HC2'        0.8080    3.3320    0.1910 ha        1 950      0.086000
     34 HC3'        3.1780    3.9370    0.2430 ha        1 950      0.114000
     35 HC4'        4.9390    2.2160    0.2060 ha        1 950      0.120000
     36 H10A        6.0190    0.4230    1.0830 h1        1 950      0.031200
     37 H10B        6.0810    0.5070   -0.7460 h1        1 950      0.031200
     38 H20         6.1090   -2.1530    0.8430 hc        1 950      0.067700
     39 H30A        7.0210   -3.0790   -1.2640 hc        1 950      0.034533
     40 H30B        5.4520   -2.2130   -1.5690 hc        1 950      0.034533
     41 H30C        7.0270   -1.4360   -2.0270 hc        1 950      0.034533
     42 H40A        8.5100   -0.4690   -0.1730 hc        1 950      0.034533
     43 H40B        8.0690   -0.7920    1.5550 hc        1 950      0.034533
     44 H40C        8.6040   -2.1540    0.4850 hc        1 950      0.034533
@<TRIPOS>BOND
     1    1    2 ar  
     2    1    7 ar  
     3    1    8 1   
     4    2    3 1   
     5    2    4 ar  
     6    4    5 ar  
     7    4   26 1   
     8    5    6 ar  
     9    5   11 2   
    10    6    7 ar  
    11    6   12 2   
    12    7   27 1   
    13    8    9 2   
    14    8   10 1   
    15    9   28 1   
    16    9   29 1   
    17   10   30 1   
    18   10   31 1   
    19   11   13 1   
    20   11   32 1   
    21   12   13 1   
    22   13   14 2   
    23   14   15 1   
    24   14   19 1   
    25   15   16 2   
    26   15   33 1   
    27   16   17 1   
    28   16   34 1   
    29   17   18 2   
    30   17   35 1   
    31   18   19 1   
    32   18   21 1   
    33   19   20 2   
    34   21   22 1   
    35   22   23 1   
    36   22   36 1   
    37   22   37 1   
    38   23   24 1   
    39   23   25 1   
    40   23   38 1   
    41   24   39 1   
    42   24   40 1   
    43   24   41 1   
    44   25   42 1   
    45   25   43 1   
    46   25   44 1   
@<TRIPOS>SUBSTRUCTURE
     1 950         1 TEMP              0 ****  ****    0 ROOT
