@<TRIPOS>MOLECULE
951
   36    28     1     0     0
SMALL
bcc


@<TRIPOS>ATOM
      1 CAA        -2.5640   -0.7880   -0.4270 c2        1 951     -0.058000
      2 CAB         3.5380    1.9260    2.1120 c1        1 951     -0.027500
      3 OAC        -1.2170   -0.9240   -0.6390 os        1 951     -0.096000
      4 CAD        -3.4360   -1.0260   -1.4800 c1        1 951      0.022000
      5 CAE         2.7900    2.5120    3.2890 c1        1 951      0.366000
      6 CAF        -2.7540   -0.4140    0.8880 c1        1 951     -0.155000
      7 CAG        -0.5720   -0.6370    0.5360 c1        1 951     -0.004000
      8 NAH         1.8550   -0.9430    0.4700 n1        1 951     -0.010000
      9 CAI        -1.5260   -0.3220    1.4810 c1        1 951     -0.187000
     10 CAJ         0.6730   -1.4130    0.1610 c1        1 951     -0.182000
     11 CAK         3.2210    0.9200    1.2110 c1        1 951     -0.027500
     12 CAL        -3.8700   -2.3360   -1.6040 c1        1 951     -0.043000
     13 OAM         2.7880    1.9120    4.3950 o         1 951     -0.568000
     14 NAN         1.9660    0.2610    1.1390 n1        1 951     -0.226000
     15 OAO         2.1510    3.5880    3.1560 o         1 951     -0.568000
     16 CLAP       -3.8180   -3.8130   -0.6790 cl        1 951     -0.002000
     17 CAQ         4.7780    2.5430    2.0540 c2        1 951     -0.129500
     18 CAR        -3.8460   -0.0700   -2.3970 c1        1 951     -0.128750
     19 CAS         4.1450    0.5320    0.2530 c2        1 951     -0.129500
     20 CAT        -4.7140   -2.6910   -2.6440 c1        1 951     -0.128750
     21 CAU         5.7010    2.1540    1.0950 c1        1 951     -0.158500
     22 CAV        -4.6910   -0.4250   -3.4370 c1        1 951     -0.128750
     23 CAW         5.3850    1.1490    0.1950 c1        1 951     -0.158500
     24 CAX        -5.1240   -1.7360   -3.5610 c1        1 951     -0.128750
     25 HAF        -3.6140   -0.2460    1.3180 DU        1 951      0.192000
     26 HAI        -1.3570   -0.1090    2.4190 DU        1 951      0.192000
     27 HAJ         0.5950   -2.2640   -0.3120 ha        1 951      0.158000
     28 HNAN        1.2360    0.6240    1.5490 hn        1 951      0.270000
     29 HAQ         5.0000    3.2510    2.6880 ha        1 951      0.143500
     30 HAR        -3.5410    0.8540   -2.3090 ha        1 951      0.135750
     31 HAS         3.9220   -0.1770   -0.3810 ha        1 951      0.143500
     32 HAT        -5.0200   -3.6150   -2.7320 ha        1 951      0.135750
     33 HAU         6.5740    2.5890    1.0550 ha        1 951      0.107500
     34 HAV        -4.9800    0.2480   -4.0820 ha        1 951      0.135750
     35 HAW         6.0350    0.8750   -0.4800 ha        1 951      0.107500
     36 HAX        -5.7080   -1.9890   -4.3020 ha        1 951      0.135750
@<TRIPOS>BOND
     1    1    3 1   
     2    1    4 1   
     3    1    6 1   
     4    2   11 1   
     5    2   17 1   
     6    3    7 1   
     7    4   12 1   
     8    5   13 1   
     9    5   15 1   
    10    6    9 1   
    11    7    9 1   
    12    8   10 1   
    13   10   27 1   
    14   11   19 1   
    15   12   16 1   
    16   14   28 1   
    17   17   21 1   
    18   17   29 1   
    19   18   22 1   
    20   18   30 1   
    21   19   23 1   
    22   19   31 1   
    23   20   24 1   
    24   20   32 1   
    25   21   33 1   
    26   22   34 1   
    27   23   35 1   
    28   24   36 1   
@<TRIPOS>SUBSTRUCTURE
     1 951         1 TEMP              0 ****  ****    0 ROOT
