@<TRIPOS>MOLECULE
951
   36    38     1     0     0
SMALL
bcc


@<TRIPOS>ATOM
      1 CAA        -2.9720   -1.2720   -0.0470 cc        1 951      0.242200
      2 CAB         4.6470    0.4330   -0.1740 ca        1 951     -0.160600
      3 OAC        -1.6420   -0.8260    0.0170 os        1 951     -0.317800
      4 CAD        -4.0130   -0.2980   -0.2750 ca        1 951     -0.090500
      5 CAE         5.4540   -0.8540   -0.0550 c         1 951      0.913200
      6 CAF        -3.0150   -2.6510    0.0960 cd        1 951     -0.224300
      7 CAG        -0.8540   -1.9630    0.2110 cc        1 951      0.310400
      8 NAH         1.2100   -0.6970    0.1770 n2        1 951     -0.346400
      9 CAI        -1.6610   -3.0970    0.2680 cd        1 951     -0.313300
     10 CAJ         0.5770   -1.8480    0.3150 ce        1 951      0.149200
     11 CAK         3.2410    0.5350   -0.0100 ca        1 951      0.167600
     12 CAL        -4.1490    0.8870    0.4690 ca        1 951      0.039400
     13 OAM         6.7110   -0.7540   -0.0570 o         1 951     -0.827300
     14 NAN         2.5010   -0.6240    0.3640 nh        1 951     -0.420700
     15 OAO         4.8590   -1.9730    0.0300 o         1 951     -0.827300
     16 CLAP       -3.0840    1.2740    1.7330 cl        1 951     -0.068400
     17 CAQ         5.3650    1.5950   -0.4750 ca        1 951     -0.089000
     18 CAR        -4.9570   -0.5710   -1.2820 ca        1 951     -0.110000
     19 CAS         2.6090    1.7890   -0.1640 ca        1 951     -0.170000
     20 CAT        -5.1930    1.7800    0.1930 ca        1 951     -0.135000
     21 CAU         4.7390    2.8280   -0.6260 ca        1 951     -0.180000
     22 CAV        -5.9960    0.3140   -1.5460 ca        1 951     -0.139000
     23 CAW         3.3570    2.9190   -0.4720 ca        1 951     -0.134000
     24 CAX        -6.1120    1.4940   -0.8110 ca        1 951     -0.127000
     25 HAF        -3.8990   -3.2810    0.0910 ha        1 951      0.147000
     26 HAI        -1.3350   -4.1220    0.4110 ha        1 951      0.156000
     27 HAJ         1.0750   -2.8190    0.5180 h4        1 951      0.010800
     28 HNAN        3.0740   -1.4730    0.4330 hn        1 951      0.488800
     29 HAQ         6.4600    1.5000   -0.5880 ha        1 951      0.159000
     30 HAR        -4.8560   -1.4980   -1.8660 ha        1 951      0.141000
     31 HAS         1.5200    1.8880   -0.0450 ha        1 951      0.138000
     32 HAT        -5.2840    2.7100    0.7750 ha        1 951      0.141000
     33 HAU         5.3290    3.7230   -0.8650 ha        1 951      0.110000
     34 HAV        -6.7220    0.0860   -2.3400 ha        1 951      0.129000
     35 HAW         2.8510    3.8870   -0.5920 ha        1 951      0.108000
     36 HAX        -6.9280    2.2000   -1.0240 ha        1 951      0.128000
@<TRIPOS>BOND
     1    1    3 1   
     2    1    4 1   
     3    1    6 2   
     4    2    5 1   
     5    2   11 ar  
     6    2   17 ar  
     7    3    7 1   
     8    4   12 ar  
     9    4   18 ar  
    10    5   13 1   
    11    5   15 1   
    12    6    9 1   
    13    6   25 1   
    14    7    9 2   
    15    7   10 1   
    16    8   10 2   
    17    8   14 1   
    18    9   26 1   
    19   10   27 1   
    20   11   14 1   
    21   11   19 ar  
    22   12   16 1   
    23   12   20 ar  
    24   14   28 1   
    25   17   21 ar  
    26   17   29 1   
    27   18   22 ar  
    28   18   30 1   
    29   19   23 ar  
    30   19   31 1   
    31   20   24 ar  
    32   20   32 1   
    33   21   23 ar  
    34   21   33 1   
    35   22   24 ar  
    36   22   34 1   
    37   23   35 1   
    38   24   36 1   
@<TRIPOS>SUBSTRUCTURE
     1 951         1 TEMP              0 ****  ****    0 ROOT
