@<TRIPOS>MOLECULE
951
   37    39     1     0     0
SMALL
bcc


@<TRIPOS>ATOM
      1 CAA        -0.1370    0.1370    0.0650 cc        1 951      0.306200
      2 CAB         7.6560   -0.1080    0.5240 ca        1 951     -0.232600
      3 OAC         1.2570    0.0160    0.0320 os        1 951     -0.314800
      4 CAD        -0.8430    0.0930   -1.1980 ca        1 951     -0.128500
      5 CAE         8.0320   -0.2010    1.9470 c         1 951      0.636700
      6 CAF        -0.5750    0.2550    1.3760 cd        1 951     -0.244300
      7 CAG         1.6850    0.0690    1.3630 cc        1 951      0.218400
      8 NAH         4.0090   -0.1790    0.7480 n2        1 951     -0.392400
      9 CAI         0.5960    0.2150    2.2110 cd        1 951     -0.238300
     10 CAJ         3.0940   -0.0250    1.6710 ce        1 951      0.282200
     11 CAK         6.3020   -0.1510    0.1040 ca        1 951      0.190600
     12 CAL        -0.6250    1.0330   -2.2200 ca        1 951      0.047400
     13 OAM         8.6910    0.6040    2.6040 o         1 951     -0.478000
     14 NAN         5.2900   -0.3520    1.0810 nh        1 951     -0.433700
     15 OAO         7.6210   -1.2860    2.6750 oh        1 951     -0.591100
     16 CLAP        0.4940    2.2960   -2.0330 cl        1 951     -0.073400
     17 CAQ         8.6780    0.0510   -0.4170 ca        1 951     -0.054000
     18 CAR        -1.7980   -0.9160   -1.3950 ca        1 951     -0.096000
     19 CAS         6.0200   -0.0590   -1.2780 ca        1 951     -0.149000
     20 CAT        -1.3460    0.9520   -3.4180 ca        1 951     -0.133000
     21 CAU         8.3840    0.1390   -1.7730 ca        1 951     -0.163000
     22 CAV        -2.5160   -0.9900   -2.5850 ca        1 951     -0.135000
     23 CAW         7.0550    0.0790   -2.1950 ca        1 951     -0.081000
     24 CAX        -2.2870   -0.0580   -3.5980 ca        1 951     -0.108000
     25 HAF        -1.6000    0.3680    1.7180 ha        1 951      0.166000
     26 HAI         0.6100    0.2870    3.2950 ha        1 951      0.164000
     27 HAJ         3.2950    0.0410    2.7640 h4        1 951      0.007800
     28 HNAN        5.5770   -0.0970    2.0170 hn        1 951      0.408800
     29 HAQ         9.7220    0.1120   -0.0670 ha        1 951      0.151000
     30 HAR        -1.9730   -1.6540   -0.5970 ha        1 951      0.145000
     31 HAS         4.9800   -0.0960   -1.6410 ha        1 951      0.169000
     32 HAT        -1.1690    1.6900   -4.2160 ha        1 951      0.150000
     33 HAU         9.1940    0.2590   -2.5070 ha        1 951      0.143000
     34 HAV        -3.2610   -1.7870   -2.7280 ha        1 951      0.140000
     35 HAW         6.8170    0.1480   -3.2680 ha        1 951      0.141000
     36 HAX        -2.8510   -0.1180   -4.5410 ha        1 951      0.140000
     37 HAN2        7.2310   -1.9520    2.0910 ho        1 951      0.438000
@<TRIPOS>BOND
     1    1    3 1   
     2    1    4 1   
     3    1    6 2   
     4    2    5 1   
     5    2   11 ar  
     6    2   17 ar  
     7    3    7 1   
     8    4   12 ar  
     9    4   18 ar  
    10    5   13 2   
    11    5   15 1   
    12    6    9 1   
    13    6   25 1   
    14    7    9 2   
    15    7   10 1   
    16    8   10 2   
    17    8   14 1   
    18    9   26 1   
    19   10   27 1   
    20   11   14 1   
    21   11   19 ar  
    22   12   16 1   
    23   12   20 ar  
    24   14   28 1   
    25   15   37 1   
    26   17   21 ar  
    27   17   29 1   
    28   18   22 ar  
    29   18   30 1   
    30   19   23 ar  
    31   19   31 1   
    32   20   24 ar  
    33   20   32 1   
    34   21   23 ar  
    35   21   33 1   
    36   22   24 ar  
    37   22   34 1   
    38   23   35 1   
    39   24   36 1   
@<TRIPOS>SUBSTRUCTURE
     1 951         1 TEMP              0 ****  ****    0 ROOT
