@<TRIPOS>MOLECULE
953
   38    40     1     0     0
SMALL
bcc


@<TRIPOS>ATOM
      1 Cl          0.5220   -2.0770   -0.5820 cl        1 953     -0.053400
      2 C25         1.9230   -1.1730   -0.2720 ca        1 953      0.060400
      3 C24         2.5580   -1.3210    0.9650 ca        1 953     -0.123000
      4 C23         3.7100   -0.5900    1.2520 ca        1 953     -0.033000
      5 C18         4.2220    0.2960    0.3010 ca        1 953     -0.166300
      6 C19         5.4930    1.0890    0.6040 c3        1 953      0.691200
      7 F22         5.6620    1.3920    1.9310 f         1 953     -0.224300
      8 F21         6.6460    0.4380    0.2440 f         1 953     -0.224300
      9 F20         5.5650    2.2980   -0.0420 f         1 953     -0.224300
     10 C17         3.5910    0.4570   -0.9310 ca        1 953     -0.027000
     11 C16         2.4350   -0.2770   -1.2310 ca        1 953     -0.104000
     12 C15         1.8010   -0.0980   -2.5300 cc        1 953      0.118700
     13 N1          1.5140   -1.1440   -3.3790 na        1 953     -0.124100
     14 C11         1.3730    1.1110   -3.1700 cd        1 953     -0.308600
     15 C12         1.4740    2.4190   -2.6250 c         1 953      0.613700
     16 N14         0.7320    3.4940   -3.4270 nz        1 953     -0.762400
     17 O13         2.0360    2.8680   -1.6350 o         1 953     -0.446100
     18 C10         0.8080    0.7370   -4.4460 cd        1 953     -0.131000
     19 C2          0.9090   -0.6530   -4.5500 cc        1 953     -0.119800
     20 C3          0.4800   -1.5130   -5.6580 ca        1 953      0.529800
     21 C9          1.0880   -2.7630   -5.8640 ca        1 953     -0.428600
     22 C8          0.6100   -3.5220   -6.9590 ca        1 953      0.491200
     23 N7         -0.3570   -3.1110   -7.7760 nb        1 953     -0.725000
     24 C5         -0.8980   -1.8440   -7.5090 ca        1 953      0.906900
     25 N4         -0.5080   -1.0290   -6.4510 nb        1 953     -0.774000
     26 N6         -1.8610   -1.3650   -8.3740 nv        1 953     -0.940500
     27 H24         2.1500   -2.0180    1.7170 ha        1 953      0.178000
     28 H23         4.2130   -0.7040    2.2280 ha        1 953      0.179000
     29 H17         3.9970    1.1730   -1.6660 ha        1 953      0.164000
     30 H1          1.6720   -2.1060   -3.1830 hn        1 953      0.336700
     31 H10         0.3850    1.3870   -5.2080 ha        1 953      0.171000
     32 H141       -0.2540    3.2350   -3.5150 hn        1 953      0.463467
     33 H142        1.1390    3.5670   -4.3620 hn        1 953      0.463467
     34 H9          1.9030   -3.1440   -5.2430 ha        1 953      0.152000
     35 H8          1.0360   -4.5210   -7.1820 h4        1 953      0.046100
     36 H61N       -2.2230   -1.9670   -9.0750 hn        1 953      0.454800
     37 H62N       -2.3540   -0.5370   -8.1480 hn        1 953      0.454800
     38 H143        0.8100    4.3970   -2.9480 hn        1 953      0.463467
@<TRIPOS>BOND
     1    1    2 1   
     2    2    3 ar  
     3    2   11 ar  
     4    3    4 ar  
     5    3   27 1   
     6    4    5 ar  
     7    4   28 1   
     8    5    6 1   
     9    5   10 ar  
    10    6    7 1   
    11    6    8 1   
    12    6    9 1   
    13   10   11 ar  
    14   10   29 1   
    15   11   12 1   
    16   12   13 1   
    17   12   14 2   
    18   13   19 1   
    19   13   30 1   
    20   14   15 1   
    21   14   18 1   
    22   15   16 1   
    23   15   17 2   
    24   16   32 1   
    25   16   33 1   
    26   16   38 1   
    27   18   19 2   
    28   18   31 1   
    29   19   20 1   
    30   20   21 ar  
    31   20   25 ar  
    32   21   22 ar  
    33   21   34 1   
    34   22   23 ar  
    35   22   35 1   
    36   23   24 ar  
    37   24   25 ar  
    38   24   26 1   
    39   26   36 1   
    40   26   37 1   
@<TRIPOS>SUBSTRUCTURE
     1 953         1 TEMP              0 ****  ****    0 ROOT
