@<TRIPOS>MOLECULE
953
   38    40     1     0     0
SMALL
bcc


@<TRIPOS>ATOM
      1 CL          0.5210   -2.0830   -0.5870 cl        1 953     -0.053400
      2 C25         1.9210   -1.1790   -0.2730 ca        1 953      0.060400
      3 C24         2.5560   -1.3290    0.9640 ca        1 953     -0.123000
      4 C23         3.7060   -0.5960    1.2530 ca        1 953     -0.033000
      5 C18         4.2180    0.2920    0.3040 ca        1 953     -0.166300
      6 C19         5.4880    1.0850    0.6100 c3        1 953      0.691200
      7 F22         5.6570    1.3830    1.9380 f         1 953     -0.224300
      8 F21         6.6420    0.4380    0.2460 f         1 953     -0.224300
      9 F20         5.5580    2.2980   -0.0320 f         1 953     -0.224300
     10 C17         3.5880    0.4540   -0.9280 ca        1 953     -0.027000
     11 C16         2.4330   -0.2810   -1.2300 ca        1 953     -0.104000
     12 C15         1.8000   -0.1000   -2.5300 cc        1 953      0.118700
     13 N1          1.5140   -1.1440   -3.3810 na        1 953     -0.124100
     14 C11         1.3710    1.1100   -3.1680 cd        1 953     -0.308600
     15 C12         1.4700    2.4180   -2.6200 c         1 953      0.613700
     16 N14         0.7290    3.4930   -3.4220 n4        1 953     -0.762400
     17 O13         2.0310    2.8650   -1.6280 o         1 953     -0.446100
     18 C10         0.8080    0.7380   -4.4440 cd        1 953     -0.131000
     19 C2          0.9100   -0.6510   -4.5510 cc        1 953     -0.119800
     20 C3          0.4820   -1.5100   -5.6610 ca        1 953      0.529800
     21 C9          1.0920   -2.7590   -5.8700 ca        1 953     -0.428600
     22 C8          0.6160   -3.5170   -6.9650 ca        1 953      0.491200
     23 N7         -0.3510   -3.1050   -7.7830 nb        1 953     -0.725000
     24 C5         -0.8940   -1.8390   -7.5130 ca        1 953      0.906900
     25 N4         -0.5060   -1.0250   -6.4530 nb        1 953     -0.774000
     26 N6         -1.8570   -1.3590   -8.3780 nh        1 953     -0.940500
     27 H24         2.1470   -2.0270    1.7140 ha        1 953      0.178000
     28 H23         4.2080   -0.7120    2.2300 ha        1 953      0.179000
     29 H17         3.9940    1.1720   -1.6610 ha        1 953      0.164000
     30 H1          1.6730   -2.1070   -3.1860 hn        1 953      0.336700
     31 H10         0.3850    1.3890   -5.2060 ha        1 953      0.171000
     32 H141        0.8060    4.3960   -2.9410 hn        1 953      0.463467
     33 H142        1.1370    3.5680   -4.3560 hn        1 953      0.463467
     34 H9          1.9070   -3.1400   -5.2480 ha        1 953      0.152000
     35 H8          1.0430   -4.5140   -7.1900 h4        1 953      0.046100
     36 H61N       -2.2180   -1.9600   -9.0800 hn        1 953      0.454800
     37 H62N       -2.3510   -0.5320   -8.1500 hn        1 953      0.454800
     38 H143       -0.2570    3.2340   -3.5110 hn        1 953      0.463467
@<TRIPOS>BOND
     1    1    2 1   
     2    2    3 ar  
     3    2   11 ar  
     4    3    4 ar  
     5    3   27 1   
     6    4    5 ar  
     7    4   28 1   
     8    5    6 1   
     9    5   10 ar  
    10    6    7 1   
    11    6    8 1   
    12    6    9 1   
    13   10   11 ar  
    14   10   29 1   
    15   11   12 1   
    16   12   13 1   
    17   12   14 2   
    18   13   19 1   
    19   13   30 1   
    20   14   15 1   
    21   14   18 1   
    22   15   16 1   
    23   15   17 2   
    24   16   32 1   
    25   16   33 1   
    26   16   38 1   
    27   18   19 2   
    28   18   31 1   
    29   19   20 1   
    30   20   21 ar  
    31   20   25 ar  
    32   21   22 ar  
    33   21   34 1   
    34   22   23 ar  
    35   22   35 1   
    36   23   24 ar  
    37   24   25 ar  
    38   24   26 1   
    39   26   36 1   
    40   26   37 1   
@<TRIPOS>SUBSTRUCTURE
     1 953         1 TEMP              0 ****  ****    0 ROOT
