@<TRIPOS>MOLECULE
953
   39    41     1     0     0
SMALL
bcc


@<TRIPOS>ATOM
      1 CL          0.3980   -1.9540   -0.6150 cl        1 953     -0.060400
      2 C25         1.8330   -1.1110   -0.2830 ca        1 953      0.061400
      3 C24         2.4370   -1.2720    0.9660 ca        1 953     -0.116000
      4 C23         3.6180   -0.5890    1.2650 ca        1 953     -0.017000
      5 C18         4.1860    0.2600    0.3140 ca        1 953     -0.164300
      6 C19         5.4900    1.0000    0.6230 c3        1 953      0.692200
      7 F22         5.6960    1.2380    1.9560 f         1 953     -0.217300
      8 F21         6.6090    0.3290    0.2000 f         1 953     -0.217300
      9 F20         5.5780    2.2330    0.0230 f         1 953     -0.217300
     10 C17         3.5830    0.4370   -0.9310 ca        1 953     -0.022000
     11 C16         2.4000   -0.2470   -1.2420 ca        1 953     -0.136000
     12 C15         1.7950   -0.0590   -2.5530 cc        1 953      0.163700
     13 N1          1.5080   -1.1090   -3.3980 na        1 953     -0.130100
     14 C11         1.3900    1.1510   -3.2100 cd        1 953     -0.308600
     15 C12         1.5520    2.4600   -2.6580 c         1 953      0.607700
     16 N14         0.7280    3.5610   -3.3210 n4        1 953     -0.760400
     17 O13         2.2370    2.8650   -1.7310 o         1 953     -0.408100
     18 C10         0.8340    0.7780   -4.4840 cd        1 953     -0.076000
     19 C2          0.9240   -0.6170   -4.5820 cc        1 953     -0.194800
     20 C3          0.5390   -1.4880   -5.6900 ca        1 953      0.549800
     21 C9          1.2050   -2.7190   -5.9040 ca        1 953     -0.303600
     22 C8          0.7870   -3.5160   -6.9880 ca        1 953      0.486200
     23 N7         -0.2100   -3.1450   -7.8150 nb        1 953     -0.645000
     24 C5         -0.7850   -1.9320   -7.5290 ca        1 953      0.710900
     25 N4         -0.4700   -1.0710   -6.5110 nb        1 953     -0.674000
     26 N6         -1.8910   -1.5120   -8.4420 n4        1 953     -0.816300
     27 H24         1.9850   -1.9400    1.7200 ha        1 953      0.188000
     28 H23         4.0980   -0.7160    2.2540 ha        1 953      0.191000
     29 H17         4.0400    1.1250   -1.6640 ha        1 953      0.167000
     30 H1          1.6320   -2.0710   -3.1740 hn        1 953      0.338700
     31 H10         0.4370    1.4400   -5.2510 ha        1 953      0.167000
     32 H141       -0.2670    3.3330   -3.2640 hn        1 953      0.468800
     33 H142        0.9960    3.6590   -4.3020 hn        1 953      0.468800
     34 H9          2.0390   -3.0530   -5.2690 ha        1 953      0.195000
     35 H8          1.2620   -4.4950   -7.2200 h4        1 953      0.094100
     36 H61N       -2.7310   -1.2970   -7.8880 hn        1 953      0.488800
     37 H62N       -1.5990   -0.6760   -8.9640 hn        1 953      0.488800
     38 H143        0.8990    4.4520   -2.8340 hn        1 953      0.468800
     39 H63        -2.1030   -2.2730   -9.1070 hn        1 953      0.488800
@<TRIPOS>BOND
     1    1    2 1   
     2    2    3 ar  
     3    2   11 ar  
     4    3    4 ar  
     5    3   27 1   
     6    4    5 ar  
     7    4   28 1   
     8    5    6 1   
     9    5   10 ar  
    10    6    7 1   
    11    6    8 1   
    12    6    9 1   
    13   10   11 ar  
    14   10   29 1   
    15   11   12 1   
    16   12   13 1   
    17   12   14 2   
    18   13   19 1   
    19   13   30 1   
    20   14   15 1   
    21   14   18 1   
    22   15   16 1   
    23   15   17 2   
    24   16   32 1   
    25   16   33 1   
    26   16   38 1   
    27   18   19 2   
    28   18   31 1   
    29   19   20 1   
    30   20   21 ar  
    31   20   25 ar  
    32   21   22 ar  
    33   21   34 1   
    34   22   23 ar  
    35   22   35 1   
    36   23   24 ar  
    37   24   25 ar  
    38   24   26 1   
    39   26   36 1   
    40   26   37 1   
    41   26   39 1   
@<TRIPOS>SUBSTRUCTURE
     1 953         1 TEMP              0 ****  ****    0 ROOT
