@<TRIPOS>MOLECULE
956
   45    42     1     0     0
SMALL
bcc


@<TRIPOS>ATOM
      1 CAA         3.2110   -2.8870   -0.0320 c1        1 956     -0.120500
      2 CAB         4.5530   -2.5390    0.1940 c1        1 956     -0.120500
      3 CAC         4.8930   -1.2190    0.4920 c1        1 956     -0.120500
      4 CAD         2.2110   -1.9100    0.0410 c1        1 956     -0.120500
      5 CAE         2.5520   -0.5650    0.3440 c1        1 956     -0.126000
      6 CAF         3.8810   -0.2210    0.5680 c1        1 956      0.119000
      7 NAG         4.2700    1.2390    0.7940 n         1 956     -0.248000
      8 CAH         3.2440    2.2690    0.8360 c2        1 956      0.352000
      9 CAI         1.8420    1.9060    0.6550 c2        1 956     -0.138000
     10 CAJ         1.4720    0.4930    0.4220 c2        1 956      0.173000
     11 OAK         3.5580    3.4450    1.0310 o         1 956     -0.338000
     12 CAL         5.6270    1.5790    1.0370 c3        1 956     -0.092000
     13 NAM         0.0570    0.0990    0.3900 n3        1 956     -0.261000
     14 CAN        -0.7410    0.1940    1.5800 c3        1 956     -0.088500
     15 CAO        -1.9690   -0.7070    1.5260 c3        1 956     -0.038500
     16 NAP        -2.7210   -0.5200    0.3350 n         1 956     -0.312000
     17 CAQ        -1.9470   -0.6120   -0.8500 c3        1 956     -0.038500
     18 CAR        -0.7190    0.2910   -0.8090 c3        1 956     -0.088500
     19 CAS        -4.1850   -0.2640    0.3310 c2        1 956      0.371000
     20 OAT        -4.7960   -0.2020    1.3880 o         1 956     -0.336000
     21 CAU        -4.9350   -0.2070   -0.9780 c2        1 956     -0.444000
     22 SAV        -5.2190   -1.3970   -1.8990 ss        1 956      0.603000
     23 CAW        -6.1520   -0.9090   -3.0130 c1        1 956     -0.434000
     24 CAX        -6.4210    0.4860   -2.7870 c1        1 956     -0.163000
     25 CAY        -5.6500    0.9330   -1.4960 c1        1 956     -0.093000
     26 CAZ         0.7630    2.9810    0.6960 c1        1 956     -0.087000
     27 NBA        -0.0390    3.7760    0.7260 n1        1 956     -0.020000
     28 HAA         2.9660   -3.8480   -0.2480 ha        1 956      0.145750
     29 HAB         5.2580   -3.2310    0.1420 ha        1 956      0.145750
     30 HAC         5.8560   -0.9730    0.6520 ha        1 956      0.145750
     31 HAD         1.3120   -2.1450   -0.1100 ha        1 956      0.145750
     32 HAL         5.6710    2.2690    1.7200 h1        1 956      0.101000
     33 HALA        6.0320    1.9090    0.2160 h1        1 956      0.101000
     34 HALB        6.1160    0.7790    1.3450 h1        1 956      0.101000
     35 HAN        -1.0160    1.0750    1.6910 h1        1 956      0.093500
     36 HANA       -0.1650   -0.0800    2.3890 h1        1 956      0.093500
     37 HAO        -2.5480   -0.5080    2.3060 h1        1 956      0.110000
     38 HAOA       -1.6850   -1.6210    1.5750 h1        1 956      0.110000
     39 HAQ        -2.4960   -0.3590   -1.6020 h1        1 956      0.110000
     40 HAQA       -1.6540   -1.5390   -0.9670 h1        1 956      0.110000
     41 HAR        -0.1510    0.0910   -1.5900 h1        1 956      0.093500
     42 HARA       -1.0120    1.2410   -0.8560 h1        1 956      0.093500
     43 HAW        -6.5040   -1.4530   -3.7510 DU        1 956      0.169667
     44 HAX        -6.9680    1.0370   -3.3240 DU        1 956      0.169667
     45 HAY        -5.6530    1.8230   -1.1130 DU        1 956      0.169667
@<TRIPOS>BOND
     1    1    4 1   
     2    1   28 1   
     3    2    3 1   
     4    2   29 1   
     5    3   30 1   
     6    4   31 1   
     7    5    6 1   
     8    5   10 1   
     9    6    7 1   
    10    7    8 1   
    11    7   12 1   
    12    8    9 1   
    13    8   11 1   
    14    9   10 1   
    15    9   26 1   
    16   10   13 1   
    17   12   32 1   
    18   12   33 1   
    19   12   34 1   
    20   13   14 1   
    21   13   18 1   
    22   14   15 1   
    23   14   35 1   
    24   14   36 1   
    25   15   16 1   
    26   15   37 1   
    27   15   38 1   
    28   16   17 1   
    29   16   19 1   
    30   17   18 1   
    31   17   39 1   
    32   17   40 1   
    33   18   41 1   
    34   18   42 1   
    35   19   20 1   
    36   19   21 1   
    37   21   22 1   
    38   21   25 1   
    39   22   23 1   
    40   23   24 1   
    41   24   25 1   
    42   26   27 1   
@<TRIPOS>SUBSTRUCTURE
     1 956         1 TEMP              0 ****  ****    0 ROOT
