@<TRIPOS>MOLECULE
956
   45    46     1     0     0
SMALL
bcc


@<TRIPOS>ATOM
      1 CAA         1.5530    1.1840    0.2190 ca        1 956     -0.176000
      2 CAB         2.6660    0.3930    0.5290 ca        1 956     -0.067000
      3 CAC         2.6940   -0.3580    1.6880 ca        1 956     -0.192000
      4 CAD         0.4630    1.1970    1.0700 ca        1 956     -0.055000
      5 CAE         0.4420    0.4240    2.2480 ca        1 956     -0.147800
      6 CAF         1.5900   -0.3490    2.5890 ca        1 956      0.118600
      7 NAG         1.6440   -1.0710    3.7800 n         1 956     -0.349000
      8 CAH         0.5710   -1.0620    4.6930 c         1 956      0.722700
      9 CAI        -0.6360   -0.3140    4.3140 cc        1 956     -0.156900
     10 CAJ        -0.7110    0.4200    3.1460 cd        1 956      0.302800
     11 OAK         0.6750   -1.6910    5.7630 o         1 956     -0.618500
     12 CAL         2.8260   -1.8370    4.0940 c3        1 956      0.063300
     13 NAM        -1.8430    1.1880    2.8010 nh        1 956     -0.557200
     14 CAN        -2.5210    1.8720    3.8230 c2        1 956      0.051000
     15 CAO        -3.7850    2.3250    3.7630 c2        1 956     -0.309000
     16 NAP        -5.3570   -0.5650    4.2660 ns        1 956     -0.357500
     17 CAQ        -5.0000   -1.1670    3.1690 c1        1 956     -0.098500
     18 CAR        -2.6100    0.7520    1.6530 c3        1 956      0.159100
     19 CAS        -6.2500   -0.9910    5.3140 c         1 956      0.655700
     20 OAT        -6.6840   -0.1200    6.0820 o         1 956     -0.531100
     21 CAU        -6.6100   -2.4010    5.4370 cc        1 956     -0.228700
     22 SAV        -5.9040   -3.7140    4.6680 ss        1 956      0.108200
     23 CAW        -6.8680   -4.8270    5.4230 cc        1 956     -0.162100
     24 CAX        -7.7670   -4.2340    6.2910 cd        1 956     -0.174000
     25 CAY        -7.6160   -2.8200    6.3050 cd        1 956     -0.071000
     26 CAZ        -1.7330   -0.4400    5.2020 cg        1 956      0.228500
     27 NBA        -2.6360   -0.5770    5.9230 n1        1 956     -0.376800
     28 HAA         1.5500    1.7930   -0.6970 ha        1 956      0.142000
     29 HAB         3.5300    0.3740   -0.1540 ha        1 956      0.139000
     30 HAC         3.5870   -0.9620    1.9090 ha        1 956      0.144000
     31 HAD        -0.3990    1.8370    0.8170 ha        1 956      0.152000
     32 HAL         2.9980   -2.6180    3.3050 h1        1 956      0.060700
     33 HALA        2.6970   -2.3460    5.0880 h1        1 956      0.060700
     34 HALB        3.7200   -1.1590    4.1470 h1        1 956      0.060700
     35 HAN        -4.4640    2.1470    2.9210 ha        1 956      0.128500
     36 HANA       -1.8820    2.0910    4.7040 h4        1 956      0.148000
     37 HAO        -4.1900    2.9340    4.5800 ha        1 956      0.128500
     38 HAOA       -4.9910    0.3640    4.4250 hn        1 956      0.351500
     39 HAQ        -2.9780    1.6640    1.1100 h1        1 956      0.063700
     40 HAQA       -5.4020   -2.1840    2.9670 ha        1 956     -0.003500
     41 HAR        -3.4940    0.1240    1.9710 h1        1 956      0.063700
     42 HARA       -1.9630    0.1500    0.9630 h1        1 956      0.063700
     43 HAW        -6.7900   -5.9000    5.2450 h4        1 956      0.178000
     44 HAX        -8.5020   -4.7660    6.8980 ha        1 956      0.162000
     45 HAY        -8.2090   -2.1410    6.9260 ha        1 956      0.175000
@<TRIPOS>BOND
     1    1    2 ar  
     2    1    4 ar  
     3    1   28 1   
     4    2    3 ar  
     5    2   29 1   
     6    3    6 ar  
     7    3   30 1   
     8    4    5 ar  
     9    4   31 1   
    10    5    6 ar  
    11    5   10 1   
    12    6    7 1   
    13    7    8 1   
    14    7   12 1   
    15    8    9 1   
    16    8   11 2   
    17    9   10 2   
    18    9   26 1   
    19   10   13 1   
    20   12   32 1   
    21   12   33 1   
    22   12   34 1   
    23   13   14 1   
    24   13   18 1   
    25   14   15 2   
    26   14   36 1   
    27   15   35 1   
    28   15   37 1   
    29   16   17 3   
    30   16   19 1   
    31   16   38 1   
    32   17   40 1   
    33   18   39 1   
    34   18   41 1   
    35   18   42 1   
    36   19   20 2   
    37   19   21 1   
    38   21   22 1   
    39   21   25 2   
    40   22   23 1   
    41   23   24 2   
    42   23   43 1   
    43   24   25 1   
    44   24   44 1   
    45   25   45 1   
    46   26   27 3   
@<TRIPOS>SUBSTRUCTURE
     1 956         1 TEMP              0 ****  ****    0 ROOT
