@<TRIPOS>MOLECULE
956
   45    47     1     0     0
SMALL
bcc


@<TRIPOS>ATOM
      1 CAA        -0.3620   -0.0600    0.0560 ca        1 956     -0.177000
      2 CAB         0.9150   -0.6350    0.0780 ca        1 956     -0.067000
      3 CAC         1.6050   -0.7620    1.2670 ca        1 956     -0.191000
      4 CAD        -0.9540    0.3420    1.2390 ca        1 956     -0.058000
      5 CAE        -0.3040    0.1800    2.4790 ca        1 956     -0.137000
      6 CAF         1.0270   -0.3270    2.4940 ca        1 956      0.126000
      7 NAG         1.7620   -0.3750    3.6760 n         1 956     -0.252000
      8 CAH         1.2510    0.1670    4.8710 c2        1 956      0.359000
      9 CAI        -0.1590    0.5970    4.8780 c2        1 956     -0.175000
     10 CAJ        -0.9410    0.5670    3.7420 c2        1 956      0.199000
     11 OAK         1.9850    0.2330    5.8750 o         1 956     -0.338000
     12 CAL         3.0950   -0.9260    3.6680 c3        1 956     -0.091000
     13 NAM        -2.3030    0.9400    3.7030 nh        1 956     -0.264000
     14 CAN        -2.7480    1.9900    4.6010 c3        1 956     -0.122000
     15 CAO        -3.2830    1.6080    5.9010 c1        1 956     -0.092000
     16 NAP        -4.3340   -1.0490    5.4820 n         1 956     -0.364000
     17 CAQ        -3.4070   -1.2740    4.4160 c3        1 956     -0.055000
     18 CAR        -3.2490   -0.1160    3.3960 c3        1 956     -0.068000
     19 CAS        -5.6980   -1.2940    5.3700 c2        1 956      0.356000
     20 OAT        -6.4910   -0.6450    6.0850 o         1 956     -0.356000
     21 CAU        -6.1920   -2.3600    4.4790 c2        1 956     -0.439000
     22 SAV        -5.4730   -3.8570    4.2310 ss        1 956      0.608000
     23 CAW        -6.6860   -4.3990    3.2290 c2        1 956     -0.440000
     24 CAX        -7.6760   -3.4540    3.0590 c2        1 956     -0.166000
     25 CAY        -7.3950   -2.2650    3.7970 c2        1 956     -0.102000
     26 CAZ        -0.6190    1.0060    6.1560 c1        1 956     -0.074000
     27 NBA        -0.9050    1.3340    7.2370 n1        1 956     -0.032000
     28 HAA        -0.8880    0.0730   -0.9010 ha        1 956      0.143000
     29 HAB         1.3780   -0.9740   -0.8620 ha        1 956      0.141000
     30 HAC         2.6160   -1.1970    1.2520 ha        1 956      0.146000
     31 HAD        -1.9470    0.8180    1.1960 ha        1 956      0.150000
     32 HAL         3.7620   -0.3180    3.0000 h1        1 956      0.100667
     33 HALA        3.0660   -1.9870    3.3000 h1        1 956      0.100667
     34 HALB        3.5180   -0.9130    4.7100 h1        1 956      0.100667
     35 HAN        -3.6050    2.5170    4.0600 h1        1 956      0.136000
     36 HANA       -1.9080    2.7460    4.6870 h1        1 956      0.136000
     37 HAO        -3.5090    2.4200    6.6030 ha        1 956      0.087000
     38 HAOA       -4.0850   -0.2770    6.0910 hn        1 956      0.270000
     39 HAQ        -4.2470    0.3760    3.2190 h1        1 956      0.102000
     40 HAQA       -2.4030   -1.4940    4.8830 h1        1 956      0.100500
     41 HAR        -3.7200   -2.1840    3.8250 h1        1 956      0.100500
     42 HARA       -2.9170   -0.5930    2.4290 h1        1 956      0.102000
     43 HAW        -6.6790   -5.3900    2.7780 h4        1 956      0.173000
     44 HAX        -8.5730   -3.5810    2.4490 ha        1 956      0.157000
     45 HAY        -8.0570   -1.3950    3.8310 ha        1 956      0.168000
@<TRIPOS>BOND
     1    1    2 1   
     2    1    4 1   
     3    1   28 1   
     4    2    3 1   
     5    2   29 1   
     6    3    6 1   
     7    3   30 1   
     8    4    5 1   
     9    4   31 1   
    10    5    6 1   
    11    5   10 1   
    12    6    7 1   
    13    7    8 1   
    14    7   12 1   
    15    8    9 1   
    16    8   11 1   
    17    9   10 1   
    18    9   26 1   
    19   10   13 1   
    20   12   32 1   
    21   12   33 1   
    22   12   34 1   
    23   13   14 1   
    24   13   18 1   
    25   14   15 1   
    26   14   35 1   
    27   14   36 1   
    28   15   37 1   
    29   16   17 1   
    30   16   19 1   
    31   16   38 1   
    32   17   18 1   
    33   17   40 1   
    34   17   41 1   
    35   18   39 1   
    36   18   42 1   
    37   19   20 1   
    38   19   21 1   
    39   21   22 1   
    40   21   25 1   
    41   22   23 1   
    42   23   24 1   
    43   23   43 1   
    44   24   25 1   
    45   24   44 1   
    46   25   45 1   
    47   26   27 1   
@<TRIPOS>SUBSTRUCTURE
     1 956         1 TEMP              0 ****  ****    0 ROOT
