@<TRIPOS>MOLECULE
956
   45    48     1     0     0
SMALL
bcc


@<TRIPOS>ATOM
      1 CAA        -0.1880   -0.2680    0.0350 ca        1 956     -0.178000
      2 CAB         1.1980   -0.4600   -0.0170 ca        1 956     -0.067000
      3 CAC         1.9600   -0.3610    1.1300 ca        1 956     -0.192000
      4 CAD        -0.8000   -0.0220    1.2500 ca        1 956     -0.062000
      5 CAE        -0.0660    0.0340    2.4520 ca        1 956     -0.155800
      6 CAF         1.3530   -0.0780    2.3870 ca        1 956      0.121600
      7 NAG         2.1390    0.1070    3.5210 n         1 956     -0.351000
      8 CAH         1.5620    0.4720    4.7530 c         1 956      0.722700
      9 CAI         0.0920    0.4720    4.8500 cc        1 956     -0.174900
     10 CAJ        -0.7190    0.2510    3.7520 cd        1 956      0.319800
     11 OAK         2.3050    0.7430    5.7140 o         1 956     -0.617500
     12 CAL         3.5730   -0.0180    3.4260 c3        1 956      0.064300
     13 NAM        -2.1150    0.2460    3.7850 nh        1 956     -0.694400
     14 CAN        -2.8810    1.0920    4.6720 c3        1 956      0.182800
     15 CAO        -3.7250    0.3420    5.7290 c3        1 956      0.046000
     16 NAP        -4.4460   -0.8050    5.2090 n         1 956     -0.446800
     17 CAQ        -3.6120   -1.6730    4.4100 c3        1 956      0.046000
     18 CAR        -2.8180   -0.9270    3.3080 c3        1 956      0.182800
     19 CAS        -5.8170   -0.6600    4.9290 c         1 956      0.693700
     20 OAT        -6.3990    0.4150    5.1720 o         1 956     -0.577100
     21 CAU        -6.5710   -1.8260    4.4390 cc        1 956     -0.199700
     22 SAV        -6.3330   -3.4280    4.8840 ss        1 956      0.080200
     23 CAW        -7.6140   -3.9850    3.9850 cc        1 956     -0.166100
     24 CAX        -8.2650   -2.9640    3.3200 cd        1 956     -0.167000
     25 CAY        -7.6630   -1.7000    3.5920 cd        1 956     -0.092000
     26 CAZ        -0.3720    0.6690    6.1730 cg        1 956      0.219500
     27 NBA        -0.6730    0.8240    7.2880 n1        1 956     -0.368800
     28 HAA        -0.7830   -0.3090   -0.8880 ha        1 956      0.142000
     29 HAB         1.6850   -0.6760   -0.9810 ha        1 956      0.140000
     30 HAC         3.0500   -0.4960    1.0560 ha        1 956      0.145000
     31 HAD        -1.8880    0.1550    1.2560 ha        1 956      0.147000
     32 HAL         3.8440   -1.0490    3.0740 h1        1 956      0.060367
     33 HALA        3.9800    0.7400    2.7040 h1        1 956      0.060367
     34 HALB        4.0370    0.1560    4.4340 h1        1 956      0.060367
     35 HAN        -2.2170    1.8310    5.1970 h1        1 956      0.065950
     36 HANA       -3.5870    1.6780    4.0100 h1        1 956      0.065950
     37 HAO        -3.0580   -0.0450    6.5490 h1        1 956      0.076700
     38 HAOA       -4.4490    1.0800    6.1760 h1        1 956      0.076700
     39 HAQ        -2.8850   -2.1790    5.1090 h1        1 956      0.076700
     40 HAQA       -4.2290   -2.4690    3.9060 h1        1 956      0.076700
     41 HAR        -2.0960   -1.6570    2.8460 h1        1 956      0.065950
     42 HARA       -3.5440   -0.5880    2.5120 h1        1 956      0.065950
     43 HAW        -7.8940   -5.0380    3.9450 h4        1 956      0.176000
     44 HAX        -9.1340   -3.0870    2.6720 ha        1 956      0.160000
     45 HAY        -8.0270   -0.7500    3.1920 ha        1 956      0.171000
@<TRIPOS>BOND
     1    1    2 ar  
     2    1    4 ar  
     3    1   28 1   
     4    2    3 ar  
     5    2   29 1   
     6    3    6 ar  
     7    3   30 1   
     8    4    5 ar  
     9    4   31 1   
    10    5    6 ar  
    11    5   10 1   
    12    6    7 1   
    13    7    8 1   
    14    7   12 1   
    15    8    9 1   
    16    8   11 2   
    17    9   10 2   
    18    9   26 1   
    19   10   13 1   
    20   12   32 1   
    21   12   33 1   
    22   12   34 1   
    23   13   14 1   
    24   13   18 1   
    25   14   15 1   
    26   14   35 1   
    27   14   36 1   
    28   15   16 1   
    29   15   37 1   
    30   15   38 1   
    31   16   17 1   
    32   16   19 1   
    33   17   18 1   
    34   17   39 1   
    35   17   40 1   
    36   18   41 1   
    37   18   42 1   
    38   19   20 2   
    39   19   21 1   
    40   21   22 1   
    41   21   25 2   
    42   22   23 1   
    43   23   24 2   
    44   23   43 1   
    45   24   25 1   
    46   24   44 1   
    47   25   45 1   
    48   26   27 3   
@<TRIPOS>SUBSTRUCTURE
     1 956         1 TEMP              0 ****  ****    0 ROOT
