@<TRIPOS>MOLECULE
956
   45    48     1     0     0
SMALL
bcc


@<TRIPOS>ATOM
      1 CAA        -2.8380    3.3990   -0.4990 ca        1 956     -0.178000
      2 CAB        -4.1180    3.3140    0.0630 ca        1 956     -0.067000
      3 CAC        -4.6540    2.0860    0.3940 ca        1 956     -0.192000
      4 CAD        -2.0920    2.2490   -0.6820 ca        1 956     -0.062000
      5 CAE        -2.5820    0.9820   -0.3080 ca        1 956     -0.155800
      6 CAF        -3.9150    0.8870    0.1860 ca        1 956      0.121600
      7 NAG        -4.4980   -0.3510    0.4400 n         1 956     -0.351000
      8 CAH        -3.8120   -1.5480    0.1590 c         1 956      0.722700
      9 CAI        -2.3970   -1.4530   -0.2390 cc        1 956     -0.174900
     10 CAJ        -1.7750   -0.2380   -0.4600 cd        1 956      0.319800
     11 OAK        -4.4090   -2.6340    0.2880 o         1 956     -0.617500
     12 CAL        -5.8480   -0.4160    0.9460 c3        1 956      0.064300
     13 NAM        -0.4400   -0.0890   -0.8450 nh        1 956     -0.694400
     14 CAN         0.2420   -1.0380   -1.6960 c3        1 956      0.182800
     15 CAO         1.4260   -1.7810   -1.0350 c3        1 956      0.046000
     16 NAP         2.3020   -0.9270   -0.2530 n         1 956     -0.446800
     17 CAQ         1.5770   -0.0660    0.6540 c3        1 956      0.046000
     18 CAR         0.4320    0.7270   -0.0250 c3        1 956      0.182800
     19 CAS         3.5170   -0.5120   -0.8290 c         1 956      0.693700
     20 OAT         3.8460   -0.9140   -1.9620 o         1 956     -0.577100
     21 CAU         4.4330    0.3220   -0.0340 cc        1 956     -0.199700
     22 SAV         4.6890    0.2230    1.6230 ss        1 956      0.080200
     23 CAW         5.8800    1.3830    1.6210 cc        1 956     -0.166100
     24 CAX         6.1200    1.8770    0.3550 cd        1 956     -0.167000
     25 CAY         5.2820    1.2520   -0.6160 cd        1 956     -0.092000
     26 CAZ        -1.7600   -2.7160   -0.3150 cg        1 956      0.219500
     27 NBA        -1.3060   -3.7880   -0.3420 n1        1 956     -0.368800
     28 HAA        -2.4330    4.3770   -0.7980 ha        1 956      0.142000
     29 HAB        -4.7050    4.2310    0.2280 ha        1 956      0.140000
     30 HAC        -5.6710    2.0470    0.8150 ha        1 956      0.145000
     31 HAD        -1.1010    2.3440   -1.1550 ha        1 956      0.147000
     32 HAL        -6.5570    0.0570    0.2140 h1        1 956      0.060367
     33 HALA       -6.1460   -1.4890    1.0970 h1        1 956      0.060367
     34 HALB       -5.9140    0.1220    1.9290 h1        1 956      0.060367
     35 HAN        -0.4770   -1.7970   -2.1080 h1        1 956      0.065950
     36 HANA        0.6440   -0.4400   -2.5680 h1        1 956      0.065950
     37 HAO         1.0400   -2.5710   -0.3320 h1        1 956      0.076700
     38 HAOA        2.0140   -2.2850   -1.8540 h1        1 956      0.076700
     39 HAQ         1.1430   -0.7220    1.4630 h1        1 956      0.076700
     40 HAQA        2.2690    0.6790    1.1370 h1        1 956      0.076700
     41 HAR         0.8900    1.5130   -0.6940 h1        1 956      0.065950
     42 HARA       -0.1570    1.2440    0.7820 h1        1 956      0.065950
     43 HAW         6.4010    1.6950    2.5260 h4        1 956      0.176000
     44 HAX         6.8570    2.6440    0.1060 ha        1 956      0.160000
     45 HAY         5.3180    1.4700   -1.6870 ha        1 956      0.171000
@<TRIPOS>BOND
     1    1    2 ar  
     2    1    4 ar  
     3    1   28 1   
     4    2    3 ar  
     5    2   29 1   
     6    3    6 ar  
     7    3   30 1   
     8    4    5 ar  
     9    4   31 1   
    10    5    6 ar  
    11    5   10 1   
    12    6    7 1   
    13    7    8 1   
    14    7   12 1   
    15    8    9 1   
    16    8   11 2   
    17    9   10 2   
    18    9   26 1   
    19   10   13 1   
    20   12   32 1   
    21   12   33 1   
    22   12   34 1   
    23   13   14 1   
    24   13   18 1   
    25   14   15 1   
    26   14   35 1   
    27   14   36 1   
    28   15   16 1   
    29   15   37 1   
    30   15   38 1   
    31   16   17 1   
    32   16   19 1   
    33   17   18 1   
    34   17   39 1   
    35   17   40 1   
    36   18   41 1   
    37   18   42 1   
    38   19   20 2   
    39   19   21 1   
    40   21   22 1   
    41   21   25 2   
    42   22   23 1   
    43   23   24 2   
    44   23   43 1   
    45   24   25 1   
    46   24   44 1   
    47   25   45 1   
    48   26   27 3   
@<TRIPOS>SUBSTRUCTURE
     1 956         1 TEMP              0 ****  ****    0 ROOT
