@<TRIPOS>MOLECULE
957
   65    67     1     0     0
SMALL
bcc


@<TRIPOS>ATOM
      1 C1          0.0880   -0.8880    0.3370 c3        1 957     -0.196100
      2 C2          0.9310    0.3270    0.1900 c         1 957      0.574100
      3 N3          1.8810    0.6270    1.3470 n4        1 957     -0.693800
      4 C4          3.3420    0.4730    1.0320 c3        1 957      0.093500
      5 C5          3.8130    1.2780   -0.2120 c3        1 957      0.116100
      6 C6          3.5980    2.7950   -0.0080 c3        1 957      0.094800
      7 N7          4.3160    3.6180   -1.0190 n4        1 957     -0.720000
      8 C8          4.1500    5.0900   -0.7700 cx        1 957      0.112500
      9 C9          2.7960    5.5460   -1.0470 cc        1 957     -0.258400
     10 C10         1.7790    5.6310   -0.0970 cd        1 957     -0.114000
     11 C11         0.5860    6.1830   -0.6430 cd        1 957     -0.088300
     12 C12         0.7620    6.4950   -1.9870 cc        1 957     -0.136100
     13 S13         2.2810    6.1490   -2.5250 ss        1 957      0.157200
     14 C14        -0.6620    6.3800    0.1230 c3        1 957     -0.020100
     15 C15        -0.7620    7.7360    0.8340 c3        1 957     -0.049000
     16 C16         0.3850    7.9080    1.8170 c3        1 957     -0.090433
     17 C17        -0.7450    8.8670   -0.1820 c3        1 957     -0.090433
     18 C18        -2.0820    7.7710    1.5960 c3        1 957     -0.090433
     19 O19         0.9570    1.1430   -0.7180 o         1 957     -0.436100
     20 C20         3.7360   -1.0040    0.8630 c3        1 957     -0.060100
     21 C21         3.1920   -1.8910    1.9290 ca        1 957     -0.106300
     22 C22         2.6310   -3.1170    1.5710 ca        1 957     -0.218000
     23 C23         2.1910   -4.0030    2.5780 ca        1 957      0.196400
     24 C24         2.2960   -3.6580    3.9350 ca        1 957     -0.178000
     25 C25         2.8600   -2.4150    4.2750 ca        1 957      0.196400
     26 C26         3.3060   -1.5290    3.2740 ca        1 957     -0.218000
     27 F27         1.6590   -5.1900    2.2250 f         1 957     -0.094400
     28 F28         2.9740   -2.0590    5.5700 f         1 957     -0.094400
     29 O29         5.2100    1.1050   -0.3480 oh        1 957     -0.592800
     30 C30         5.3490    5.9850   -1.0690 cx        1 957     -0.086900
     31 C31         4.9640    5.7230    0.3510 cx        1 957     -0.086900
     32 H1         -0.4370   -1.0830   -0.6380 hc        1 957      0.130033
     33 H1A        -0.6900   -0.7280    1.1300 hc        1 957      0.130033
     34 H1B         0.7060   -1.7870    0.6070 hc        1 957      0.130033
     35 HN3         1.6710   -0.0200    2.1280 hn        1 957      0.470300
     36 H4          3.9000    0.8790    1.9350 hx        1 957      0.126700
     37 H5          3.2690    0.9240   -1.1330 h1        1 957      0.088700
     38 H6          2.4980    3.0390   -0.0880 hx        1 957      0.116200
     39 H6A         3.9830    3.1030    1.0070 hx        1 957      0.116200
     40 HN7         5.3170    3.3740   -0.9960 hn        1 957      0.460800
     41 H10         1.8770    5.3580    0.9570 ha        1 957      0.148000
     42 H12        -0.0130    6.9420   -2.6190 h4        1 957      0.209000
     43 H14        -0.7500    5.5690    0.8960 hc        1 957      0.053700
     44 H14A       -1.5400    6.2830   -0.5730 hc        1 957      0.053700
     45 H16         1.3650    7.8790    1.2830 hc        1 957      0.041478
     46 H16A        0.3690    7.0940    2.5810 hc        1 957      0.041478
     47 H16B        0.2940    8.8900    2.3420 hc        1 957      0.041478
     48 H17         0.1970    8.8420   -0.7800 hc        1 957      0.041478
     49 H17A       -0.8090    9.8530    0.3410 hc        1 957      0.041478
     50 H17B       -1.6140    8.7790   -0.8780 hc        1 957      0.041478
     51 H18        -2.1940    8.7520    2.1180 hc        1 957      0.041478
     52 H18A       -2.9410    7.6430    0.8950 hc        1 957      0.041478
     53 H18B       -2.1160    6.9570    2.3590 hc        1 957      0.041478
     54 H20         4.8620   -1.0520    0.9080 hc        1 957      0.097700
     55 H20A        3.4180   -1.3680   -0.1510 hc        1 957      0.097700
     56 H22         2.5670   -3.4340    0.5180 ha        1 957      0.157000
     57 H24         1.9620   -4.3570    4.7220 ha        1 957      0.205000
     58 H26         3.8040   -0.5970    3.5790 ha        1 957      0.157000
     59 HO29        5.3800    0.2440   -0.7590 ho        1 957      0.459000
     60 H30         6.2850    5.5480   -1.4660 hc        1 957      0.115700
     61 H30A        5.1390    6.9760   -1.5210 hc        1 957      0.115700
     62 H31         4.4700    6.5230    0.9410 hc        1 957      0.115700
     63 H31A        5.6240    5.0970    0.9800 hc        1 957      0.115700
     64 H32         1.7160    1.5890    1.6620 hn        1 957      0.470300
     65 H72         3.9470    3.4080   -1.9540 hn        1 957      0.460800
@<TRIPOS>BOND
     1    1    2 1   
     2    1   32 1   
     3    1   33 1   
     4    1   34 1   
     5    2    3 1   
     6    2   19 2   
     7    3    4 1   
     8    3   35 1   
     9    3   64 1   
    10    4    5 1   
    11    4   20 1   
    12    4   36 1   
    13    5    6 1   
    14    5   29 1   
    15    5   37 1   
    16    6    7 1   
    17    6   38 1   
    18    6   39 1   
    19    7    8 1   
    20    7   40 1   
    21    7   65 1   
    22    8    9 1   
    23    8   30 1   
    24    8   31 1   
    25    9   10 2   
    26    9   13 1   
    27   10   11 1   
    28   10   41 1   
    29   11   12 2   
    30   11   14 1   
    31   12   13 1   
    32   12   42 1   
    33   14   15 1   
    34   14   43 1   
    35   14   44 1   
    36   15   16 1   
    37   15   17 1   
    38   15   18 1   
    39   16   45 1   
    40   16   46 1   
    41   16   47 1   
    42   17   48 1   
    43   17   49 1   
    44   17   50 1   
    45   18   51 1   
    46   18   52 1   
    47   18   53 1   
    48   20   21 1   
    49   20   54 1   
    50   20   55 1   
    51   21   22 ar  
    52   21   26 ar  
    53   22   23 ar  
    54   22   56 1   
    55   23   24 ar  
    56   23   27 1   
    57   24   25 ar  
    58   24   57 1   
    59   25   26 ar  
    60   25   28 1   
    61   26   58 1   
    62   29   59 1   
    63   30   31 1   
    64   30   60 1   
    65   30   61 1   
    66   31   62 1   
    67   31   63 1   
@<TRIPOS>SUBSTRUCTURE
     1 957         1 TEMP              0 ****  ****    0 ROOT
