@<TRIPOS>MOLECULE
957
   65    67     1     0     0
SMALL
bcc


@<TRIPOS>ATOM
      1 C1          0.1240   -0.8870    0.1770 c3        1 957     -0.196100
      2 C2          0.9700    0.3320    0.0950 c         1 957      0.574100
      3 N3          1.8540    0.6150    1.3080 n4        1 957     -0.693800
      4 C4          3.3310    0.4690    1.0710 c3        1 957      0.093500
      5 C5          3.8680    1.2950   -0.1320 c3        1 957      0.116100
      6 C6          3.6370    2.8080    0.0830 c3        1 957      0.094800
      7 N7          4.4080    3.6480   -0.8730 n4        1 957     -0.720000
      8 C8          4.2220    5.1160   -0.6110 cx        1 957      0.112500
      9 C9          2.8860    5.5720   -0.9610 cc        1 957     -0.258400
     10 C10         1.8140    5.6400   -0.0700 cd        1 957     -0.114000
     11 C11         0.6530    6.1970   -0.6770 cd        1 957     -0.088300
     12 C12         0.9060    6.5300   -2.0040 cc        1 957     -0.136100
     13 S13         2.4550    6.1960   -2.4570 ss        1 957      0.157200
     14 C14        -0.6380    6.3780    0.0170 c3        1 957     -0.020100
     15 C15        -0.7850    7.7240    0.7400 c3        1 957     -0.049000
     16 C16         0.3010    7.8850    1.7910 c3        1 957     -0.090433
     17 C17        -0.7130    8.8700   -0.2560 c3        1 957     -0.090433
     18 C18        -2.1480    7.7440    1.4230 c3        1 957     -0.090433
     19 O19         1.0440    1.1630   -0.7970 o         1 957     -0.436100
     20 C20         3.7370   -1.0040    0.9000 c3        1 957     -0.060100
     21 C21         3.1380   -1.9090    1.9210 ca        1 957     -0.106300
     22 C22         2.6010   -3.1300    1.5130 ca        1 957     -0.218000
     23 C23         2.1080   -4.0340    2.4800 ca        1 957      0.196400
     24 C24         2.1380   -3.7100    3.8470 ca        1 957     -0.178000
     25 C25         2.6790   -2.4710    4.2360 ca        1 957      0.196400
     26 C26         3.1770   -1.5690    3.2760 ca        1 957     -0.218000
     27 F27         1.6000   -5.2160    2.0800 f         1 957     -0.094400
     28 F28         2.7200   -2.1360    5.5420 f         1 957     -0.094400
     29 O29         5.2700    1.1270   -0.1930 oh        1 957     -0.592800
     30 C30         5.4340    6.0180   -0.8260 cx        1 957     -0.086900
     31 C31         4.9670    5.7340    0.5650 cx        1 957     -0.086900
     32 H1          0.7280   -1.7890    0.4660 hc        1 957      0.130033
     33 H1A        -0.3460   -1.0670   -0.8290 hc        1 957      0.130033
     34 H1B        -0.6980   -0.7400    0.9280 hc        1 957      0.130033
     35 HN3         1.6690    1.5720    1.6280 hn        1 957      0.470300
     36 H4          3.8370    0.8620    2.0100 hx        1 957      0.126700
     37 H5          3.3770    0.9540   -1.0880 h1        1 957      0.088700
     38 H6          2.5420    3.0510   -0.0540 hx        1 957      0.116200
     39 H6A         3.9630    3.1000    1.1230 hx        1 957      0.116200
     40 HN7         4.0940    3.4510   -1.8310 hn        1 957      0.460800
     41 H10         1.8510    5.3520    0.9830 ha        1 957      0.148000
     42 H12         0.1680    6.9840   -2.6730 h4        1 957      0.209000
     43 H14        -0.7680    5.5560    0.7720 hc        1 957      0.053700
     44 H14A       -1.4740    6.2890   -0.7310 hc        1 957      0.053700
     45 H16         0.1760    8.8590    2.3240 hc        1 957      0.041478
     46 H16A        0.2420    7.0610    2.5420 hc        1 957      0.041478
     47 H16B        1.3110    7.8670    1.3160 hc        1 957      0.041478
     48 H17        -0.8120    9.8470    0.2760 hc        1 957      0.041478
     49 H17A       -1.5380    8.7890   -1.0040 hc        1 957      0.041478
     50 H17B        0.2630    8.8570   -0.7980 hc        1 957      0.041478
     51 H18        -2.9640    7.6230    0.6710 hc        1 957      0.041478
     52 H18A       -2.2940    8.7170    1.9520 hc        1 957      0.041478
     53 H18B       -2.2240    6.9190    2.1710 hc        1 957      0.041478
     54 H20         3.4770   -1.3530   -0.1350 hc        1 957      0.097700
     55 H20A        4.8600   -1.0510    1.0070 hc        1 957      0.097700
     56 H22         2.5950   -3.4300    0.4540 ha        1 957      0.157000
     57 H24         1.7630   -4.4210    4.6020 ha        1 957      0.205000
     58 H26         3.6550   -0.6410    3.6230 ha        1 957      0.157000
     59 HO29        5.4650    0.2720   -0.6080 ho        1 957      0.459000
     60 H30         5.2470    7.0160   -1.2750 hc        1 957      0.115700
     61 H30A        6.3930    5.5900   -1.1740 hc        1 957      0.115700
     62 H31         5.5910    5.0990    1.2220 hc        1 957      0.115700
     63 H31A        4.4370    6.5230    1.1370 hc        1 957      0.115700
     64 H32         1.6040   -0.0440    2.0650 hn        1 957      0.470300
     65 H72         5.4070    3.4060   -0.7970 hn        1 957      0.460800
@<TRIPOS>BOND
     1    1    2 1   
     2    1   32 1   
     3    1   33 1   
     4    1   34 1   
     5    2    3 1   
     6    2   19 2   
     7    3    4 1   
     8    3   35 1   
     9    3   64 1   
    10    4    5 1   
    11    4   20 1   
    12    4   36 1   
    13    5    6 1   
    14    5   29 1   
    15    5   37 1   
    16    6    7 1   
    17    6   38 1   
    18    6   39 1   
    19    7    8 1   
    20    7   40 1   
    21    7   65 1   
    22    8    9 1   
    23    8   30 1   
    24    8   31 1   
    25    9   10 2   
    26    9   13 1   
    27   10   11 1   
    28   10   41 1   
    29   11   12 2   
    30   11   14 1   
    31   12   13 1   
    32   12   42 1   
    33   14   15 1   
    34   14   43 1   
    35   14   44 1   
    36   15   16 1   
    37   15   17 1   
    38   15   18 1   
    39   16   45 1   
    40   16   46 1   
    41   16   47 1   
    42   17   48 1   
    43   17   49 1   
    44   17   50 1   
    45   18   51 1   
    46   18   52 1   
    47   18   53 1   
    48   20   21 1   
    49   20   54 1   
    50   20   55 1   
    51   21   22 ar  
    52   21   26 ar  
    53   22   23 ar  
    54   22   56 1   
    55   23   24 ar  
    56   23   27 1   
    57   24   25 ar  
    58   24   57 1   
    59   25   26 ar  
    60   25   28 1   
    61   26   58 1   
    62   29   59 1   
    63   30   31 1   
    64   30   60 1   
    65   30   61 1   
    66   31   62 1   
    67   31   63 1   
@<TRIPOS>SUBSTRUCTURE
     1 957         1 TEMP              0 ****  ****    0 ROOT
