@<TRIPOS>MOLECULE
957
   63    65     1     0     0
SMALL
bcc


@<TRIPOS>ATOM
      1 C1         -2.0910    3.4160   -0.6050 c3        1 957     -0.177100
      2 C2         -2.1960    1.9740   -1.0400 c         1 957      0.657100
      3 N3         -2.2310    1.0160   -0.0380 n         1 957     -0.571900
      4 C4         -2.4280   -0.3910   -0.2830 c3        1 957      0.096700
      5 C5         -1.2890   -1.0270   -1.1310 c3        1 957      0.112100
      6 C6          0.0750   -0.8300   -0.4460 c3        1 957      0.135800
      7 N7          1.1700   -1.4200   -1.1960 n3        1 957     -0.791200
      8 C8          2.3310   -1.7280   -0.3940 cx        1 957      0.201500
      9 C9          3.2660   -0.5980   -0.2640 cc        1 957     -0.083400
     10 C10         4.3430   -0.5240    0.6010 cd        1 957     -0.164000
     11 C11         5.0650    0.7040    0.4520 cd        1 957     -0.100300
     12 C12         4.4930    1.4980   -0.5260 cc        1 957     -0.204100
     13 S13         3.1630    0.7830   -1.2170 ss        1 957      0.096200
     14 C14         6.2360    1.0640    1.2760 c3        1 957     -0.007100
     15 C15         7.5830    0.6040    0.7040 c3        1 957     -0.050000
     16 C16         7.6040   -0.9080    0.5510 c3        1 957     -0.086767
     17 C17         7.8340    1.2590   -0.6450 c3        1 957     -0.086767
     18 C18         8.6810    1.0220    1.6740 c3        1 957     -0.086767
     19 O19        -2.2220    1.6590   -2.2460 o         1 957     -0.605100
     20 C20        -3.7690   -0.7220   -0.9680 c3        1 957     -0.076100
     21 C21        -4.9380   -0.4160   -0.0990 ca        1 957     -0.024300
     22 C22        -5.8200    0.6080   -0.4500 ca        1 957     -0.186000
     23 C23        -6.9330    0.8810    0.3670 ca        1 957      0.154900
     24 C24        -7.1710    0.1370    1.5340 ca        1 957     -0.212000
     25 C25        -6.2760   -0.8920    1.8680 ca        1 957      0.154900
     26 C26        -5.1630   -1.1710    1.0560 ca        1 957     -0.186000
     27 F27        -7.7850    1.8760    0.0270 f         1 957     -0.134900
     28 F28        -6.4890   -1.6240    2.9870 f         1 957     -0.134900
     29 O29        -1.5490   -2.4070   -1.3250 oh        1 957     -0.592800
     30 C30         2.9640   -3.1170   -0.4790 cx        1 957     -0.136900
     31 C31         2.2570   -2.7140    0.7750 cx        1 957     -0.136900
     32 H1         -2.9720    3.7040    0.0170 hc        1 957      0.068367
     33 H1A        -1.1570    3.5780   -0.0140 hc        1 957      0.068367
     34 H1B        -2.0610    4.0630   -1.5150 hc        1 957      0.068367
     35 HN3        -2.3510    1.3220    0.8970 hn        1 957      0.312500
     36 H4         -2.4210   -0.9010    0.7290 h1        1 957      0.045700
     37 H5         -1.2950   -0.5880   -2.1710 h1        1 957      0.126700
     38 H6          0.2950    0.2720   -0.3660 h1        1 957      0.043200
     39 H6A         0.0060   -1.2440    0.6030 h1        1 957      0.043200
     40 HN7         0.8590   -2.2390   -1.6900 hn        1 957      0.379800
     41 H10         4.6380   -1.2950    1.3160 ha        1 957      0.149000
     42 H12         4.8620    2.4780   -0.8220 h4        1 957      0.169000
     43 H14         6.2710    2.1800    1.3990 hc        1 957      0.045700
     44 H14A        6.1160    0.6140    2.2990 hc        1 957      0.045700
     45 H16         6.7920   -1.2380   -0.1410 hc        1 957      0.034589
     46 H16A        8.5860   -1.2410    0.1380 hc        1 957      0.034589
     47 H16B        7.4480   -1.4000    1.5410 hc        1 957      0.034589
     48 H17         7.8830    2.3690   -0.5330 hc        1 957      0.034589
     49 H17A        8.8000    0.9010   -1.0750 hc        1 957      0.034589
     50 H17B        7.0090    1.0090   -1.3550 hc        1 957      0.034589
     51 H18         8.5240    0.5440    2.6700 hc        1 957      0.034589
     52 H18A        9.6780    0.7100    1.2820 hc        1 957      0.034589
     53 H18B        8.6820    2.1310    1.8070 hc        1 957      0.034589
     54 H20        -3.8340   -0.1580   -1.9380 hc        1 957      0.087200
     55 H20A       -3.7690   -1.8190   -1.2170 hc        1 957      0.087200
     56 H22        -5.6590    1.2010   -1.3630 ha        1 957      0.155000
     57 H24        -8.0420    0.3520    2.1690 ha        1 957      0.166000
     58 H26        -4.4830   -1.9900    1.3310 ha        1 957      0.155000
     59 HO29       -1.5320   -2.8320   -0.4580 ho        1 957      0.392000
     60 H30         2.5080   -3.8800   -1.1350 hc        1 957      0.075950
     61 H30A        4.0680   -3.1740   -0.4800 hc        1 957      0.075950
     62 H31         2.8430   -2.4990    1.6850 hc        1 957      0.075950
     63 H31A        1.2860   -3.1840    1.0130 hc        1 957      0.075950
@<TRIPOS>BOND
     1    1    2 1   
     2    1   32 1   
     3    1   33 1   
     4    1   34 1   
     5    2    3 1   
     6    2   19 2   
     7    3    4 1   
     8    3   35 1   
     9    4    5 1   
    10    4   20 1   
    11    4   36 1   
    12    5    6 1   
    13    5   29 1   
    14    5   37 1   
    15    6    7 1   
    16    6   38 1   
    17    6   39 1   
    18    7    8 1   
    19    7   40 1   
    20    8    9 1   
    21    8   30 1   
    22    8   31 1   
    23    9   10 2   
    24    9   13 1   
    25   10   11 1   
    26   10   41 1   
    27   11   12 2   
    28   11   14 1   
    29   12   13 1   
    30   12   42 1   
    31   14   15 1   
    32   14   43 1   
    33   14   44 1   
    34   15   16 1   
    35   15   17 1   
    36   15   18 1   
    37   16   45 1   
    38   16   46 1   
    39   16   47 1   
    40   17   48 1   
    41   17   49 1   
    42   17   50 1   
    43   18   51 1   
    44   18   52 1   
    45   18   53 1   
    46   20   21 1   
    47   20   54 1   
    48   20   55 1   
    49   21   22 ar  
    50   21   26 ar  
    51   22   23 ar  
    52   22   56 1   
    53   23   24 ar  
    54   23   27 1   
    55   24   25 ar  
    56   24   57 1   
    57   25   26 ar  
    58   25   28 1   
    59   26   58 1   
    60   29   59 1   
    61   30   31 1   
    62   30   60 1   
    63   30   61 1   
    64   31   62 1   
    65   31   63 1   
@<TRIPOS>SUBSTRUCTURE
     1 957         1 TEMP              0 ****  ****    0 ROOT
