@<TRIPOS>MOLECULE
957
   65    67     1     0     0
SMALL
bcc


@<TRIPOS>ATOM
      1 C1          0.1570   -0.8990    0.1580 c3        1 957     -0.196100
      2 C2          0.9940    0.3270    0.0830 c         1 957      0.574100
      3 N3          1.8740    0.6110    1.2980 ny        1 957     -0.693800
      4 C4          3.3520    0.4780    1.0620 c3        1 957      0.093500
      5 C5          3.8830    1.3150   -0.1360 c3        1 957      0.116100
      6 C6          3.6390    2.8250    0.0870 c3        1 957      0.094800
      7 N7          4.4040    3.6770   -0.8630 ny        1 957     -0.720000
      8 C8          4.2040    5.1420   -0.5950 cx        1 957      0.112500
      9 C9          2.8650    5.5880   -0.9440 cc        1 957     -0.258400
     10 C10         1.7910    5.6430   -0.0550 cd        1 957     -0.114000
     11 C11         0.6260    6.1930   -0.6610 cd        1 957     -0.088300
     12 C12         0.8780    6.5330   -1.9870 cc        1 957     -0.135100
     13 S13         2.4310    6.2140   -2.4380 ss        1 957      0.157200
     14 C14        -0.6680    6.3610    0.0320 c3        1 957     -0.020100
     15 C15        -0.8270    7.7030    0.7590 c3        1 957     -0.049000
     16 C16         0.2560    7.8690    1.8120 c3        1 957     -0.090433
     17 C17        -0.7630    8.8520   -0.2330 c3        1 957     -0.090433
     18 C18        -2.1910    7.7080    1.4400 c3        1 957     -0.090433
     19 O19         1.0610    1.1630   -0.8040 o         1 957     -0.436100
     20 C20         3.7700   -0.9900    0.8830 c3        1 957     -0.060100
     21 C21         3.1780   -1.9060    1.8980 ca        1 957     -0.106300
     22 C22         2.6520   -3.1290    1.4830 ca        1 957     -0.218000
     23 C23         2.1660   -4.0420    2.4440 ca        1 957      0.196400
     24 C24         2.1920   -3.7260    3.8130 ca        1 957     -0.178000
     25 C25         2.7220   -2.4850    4.2100 ca        1 957      0.196400
     26 C26         3.2130   -1.5730    3.2550 ca        1 957     -0.218000
     27 F27         1.6680   -5.2260    2.0370 f         1 957     -0.094400
     28 F28         2.7600   -2.1570    5.5170 f         1 957     -0.094400
     29 O29         5.2870    1.1600   -0.1970 oh        1 957     -0.592800
     30 C30         5.4080    6.0560   -0.8020 cx        1 957     -0.086900
     31 C31         4.9410    5.7610    0.5860 cx        1 957     -0.086900
     32 H1         -0.6660   -0.7630    0.9090 hc        1 957      0.130033
     33 H1A        -0.3110   -1.0770   -0.8490 hc        1 957      0.130033
     34 H1B         0.7690   -1.7980    0.4420 hc        1 957      0.130033
     35 HN3         1.6280   -0.0550    2.0520 hn        1 957      0.470300
     36 H4          3.8540    0.8700    2.0030 hx        1 957      0.126700
     37 H5          3.3960    0.9760   -1.0940 h1        1 957      0.089700
     38 H6          2.5430    3.0600   -0.0500 hx        1 957      0.116200
     39 H6A         3.9620    3.1150    1.1290 hx        1 957      0.116200
     40 HN7         4.0930    3.4830   -1.8230 hn        1 957      0.460800
     41 H10         1.8290    5.3510    0.9970 ha        1 957      0.148000
     42 H12         0.1370    6.9830   -2.6550 h4        1 957      0.209000
     43 H14        -1.5010    6.2660   -0.7170 hc        1 957      0.053700
     44 H14A       -0.7910    5.5350    0.7840 hc        1 957      0.053700
     45 H16         0.1220    8.8400    2.3480 hc        1 957      0.041478
     46 H16A        0.2040    7.0420    2.5600 hc        1 957      0.041478
     47 H16B        1.2670    7.8610    1.3380 hc        1 957      0.041478
     48 H17        -0.8720    9.8270    0.3010 hc        1 957      0.041478
     49 H17A        0.2140    8.8490   -0.7730 hc        1 957      0.041478
     50 H17B       -1.5870    8.7660   -0.9830 hc        1 957      0.041478
     51 H18        -3.0050    7.5830    0.6860 hc        1 957      0.041478
     52 H18A       -2.2610    6.8800    2.1850 hc        1 957      0.041478
     53 H18B       -2.3460    8.6780    1.9720 hc        1 957      0.041478
     54 H20         3.5140   -1.3350   -0.1550 hc        1 957      0.097700
     55 H20A        4.8940   -1.0290    0.9900 hc        1 957      0.097700
     56 H22         2.6500   -3.4230    0.4220 ha        1 957      0.157000
     57 H24         1.8230   -4.4450    4.5640 ha        1 957      0.205000
     58 H26         3.6830   -0.6430    3.6070 ha        1 957      0.157000
     59 HO29        5.4890    0.3090   -0.6160 ho        1 957      0.459000
     60 H30         5.2140    7.0540   -1.2470 hc        1 957      0.115700
     61 H30A        6.3720    5.6380   -1.1510 hc        1 957      0.115700
     62 H31         4.4030    6.5420    1.1610 hc        1 957      0.115700
     63 H31A        5.5700    5.1280    1.2410 hc        1 957      0.115700
     64 H32         1.6810    1.5650    1.6230 hn        1 957      0.470300
     65 H72         5.4050    3.4440   -0.7870 hn        1 957      0.460800
@<TRIPOS>BOND
     1    1    2 1   
     2    1   32 1   
     3    1   33 1   
     4    1   34 1   
     5    2    3 1   
     6    2   19 2   
     7    3    4 1   
     8    3   35 1   
     9    3   64 1   
    10    4    5 1   
    11    4   20 1   
    12    4   36 1   
    13    5    6 1   
    14    5   29 1   
    15    5   37 1   
    16    6    7 1   
    17    6   38 1   
    18    6   39 1   
    19    7    8 1   
    20    7   40 1   
    21    7   65 1   
    22    8    9 1   
    23    8   30 1   
    24    8   31 1   
    25    9   10 2   
    26    9   13 1   
    27   10   11 1   
    28   10   41 1   
    29   11   12 2   
    30   11   14 1   
    31   12   13 1   
    32   12   42 1   
    33   14   15 1   
    34   14   43 1   
    35   14   44 1   
    36   15   16 1   
    37   15   17 1   
    38   15   18 1   
    39   16   45 1   
    40   16   46 1   
    41   16   47 1   
    42   17   48 1   
    43   17   49 1   
    44   17   50 1   
    45   18   51 1   
    46   18   52 1   
    47   18   53 1   
    48   20   21 1   
    49   20   54 1   
    50   20   55 1   
    51   21   22 ar  
    52   21   26 ar  
    53   22   23 ar  
    54   22   56 1   
    55   23   24 ar  
    56   23   27 1   
    57   24   25 ar  
    58   24   57 1   
    59   25   26 ar  
    60   25   28 1   
    61   26   58 1   
    62   29   59 1   
    63   30   31 1   
    64   30   60 1   
    65   30   61 1   
    66   31   62 1   
    67   31   63 1   
@<TRIPOS>SUBSTRUCTURE
     1 957         1 TEMP              0 ****  ****    0 ROOT
