@<TRIPOS>MOLECULE
959
   29    29     1     0     0
SMALL
bcc


@<TRIPOS>ATOM
      1 O15         0.4510   -1.2060    0.1740 o         1 959     -0.501100
      2 C13         1.2720   -0.2970    0.0390 c         1 959      0.572100
      3 C16         1.9610    0.4200    1.1380 c3        1 959     -0.201100
      4 C12         1.6660    0.1740   -1.3630 c3        1 959     -0.023200
      5 N10         0.8600   -0.4690   -2.4390 ny        1 959     -0.632800
      6 C9          1.5690   -0.4700   -3.7620 c         1 959      0.615100
      7 O11         2.7790   -0.6220   -3.8600 o         1 959     -0.427000
      8 O8          0.6940   -0.2900   -4.7570 os        1 959     -0.405900
      9 C7          1.2620   -0.3110   -6.1290 c3        1 959      0.221700
     10 C5          0.1010   -0.0900   -7.0190 ca        1 959     -0.155300
     11 C6         -0.2440    1.2100   -7.4130 ca        1 959     -0.086500
     12 C1         -1.3080    1.4110   -8.2900 ca        1 959     -0.129500
     13 C2         -2.0340    0.3200   -8.7710 ca        1 959     -0.080000
     14 C3         -1.6970   -0.9750   -8.3760 ca        1 959     -0.129500
     15 C4         -0.6330   -1.1830   -7.4990 ca        1 959     -0.086500
     16 H16         2.3390   -0.3200    1.8920 hc        1 959      0.098367
     17 H16A        2.8170    1.0340    0.7690 hc        1 959      0.098367
     18 H16B        1.2280    1.0910    1.6580 hc        1 959      0.098367
     19 H12         2.7590   -0.0780   -1.5280 hx        1 959      0.140200
     20 H12A        1.5400    1.2920   -1.4360 hx        1 959      0.140200
     21 HN10       -0.0470    0.0070   -2.5410 hn        1 959      0.483300
     22 H7          2.0240    0.5090   -6.1780 h1        1 959      0.085200
     23 H7A         1.7430   -1.3140   -6.2660 h1        1 959      0.085200
     24 H6          0.3320    2.0700   -7.0400 ha        1 959      0.137500
     25 H1         -1.5720    2.4320   -8.6070 ha        1 959      0.153500
     26 H2         -2.8730    0.4820   -9.4670 ha        1 959      0.155000
     27 H3         -2.2680   -1.8350   -8.7590 ha        1 959      0.153500
     28 H4         -0.3650   -2.2060   -7.1940 ha        1 959      0.137500
     29 H102        0.6700   -1.4500   -2.1700 hn        1 959      0.483300
@<TRIPOS>BOND
     1    1    2 2   
     2    2    3 1   
     3    2    4 1   
     4    3   16 1   
     5    3   17 1   
     6    3   18 1   
     7    4    5 1   
     8    4   19 1   
     9    4   20 1   
    10    5    6 1   
    11    5   21 1   
    12    5   29 1   
    13    6    7 2   
    14    6    8 1   
    15    8    9 1   
    16    9   10 1   
    17    9   22 1   
    18    9   23 1   
    19   10   11 ar  
    20   10   15 ar  
    21   11   12 ar  
    22   11   24 1   
    23   12   13 ar  
    24   12   25 1   
    25   13   14 ar  
    26   13   26 1   
    27   14   15 ar  
    28   14   27 1   
    29   15   28 1   
@<TRIPOS>SUBSTRUCTURE
     1 959         1 TEMP              0 ****  ****    0 ROOT
