@<TRIPOS>MOLECULE
959
   28    25     1     0     0
SMALL
bcc


@<TRIPOS>ATOM
      1 O15        -0.4290   -0.6480    4.4820 o         1 959     -0.287000
      2 C13         0.8060   -0.2880    4.4390 c1        1 959      0.199000
      3 C16         1.5160    0.0690    5.6810 c2        1 959     -0.270000
      4 C12         1.5680   -0.3070    3.1080 c3        1 959     -0.098000
      5 N10         0.7060    0.1250    2.0590 n         1 959     -0.304000
      6 C9          1.0370   -0.1570    0.6890 c2        1 959      0.375000
      7 O11         2.1600   -0.5560    0.3970 o         1 959     -0.396000
      8 O8          0.0190   -0.0720   -0.3220 os        1 959     -0.273000
      9 C7          0.5270   -0.0840   -1.6680 c3        1 959      0.039000
     10 C5         -0.6010    0.0490   -2.6270 c2        1 959     -0.090000
     11 C6         -1.0100    1.3100   -3.0490 c2        1 959     -0.102000
     12 C1         -2.0120    1.4330   -4.0440 c1        1 959     -0.132000
     13 C2         -2.5880    0.2860   -4.6000 c1        1 959     -0.127500
     14 C3         -2.1790   -0.9760   -4.1780 c1        1 959     -0.127500
     15 C4         -1.1840   -1.1040   -3.1900 c1        1 959     -0.120000
     16 H16         1.7530    0.9990    5.6580 ha        1 959      0.109333
     17 H16A        2.3140   -0.4620    5.7560 ha        1 959      0.109333
     18 H16B        0.9560   -0.0940    6.4270 ha        1 959      0.109333
     19 H12         1.8900   -1.2400    2.9170 h1        1 959      0.132500
     20 H12A        2.3640    0.3170    3.1700 h1        1 959      0.132500
     21 HN10       -0.0930    0.6070    2.2650 hn        1 959      0.239000
     22 H7          1.1550    0.6740   -1.7900 h1        1 959      0.104000
     23 H7A         0.9930   -0.9200   -1.8300 h1        1 959      0.104000
     24 H6         -0.5860    2.1520   -2.6400 ha        1 959      0.144000
     25 H1         -2.3000    2.3140   -4.3410 ha        1 959      0.133000
     26 H2         -3.3090    0.3740   -5.3150 ha        1 959      0.132500
     27 H3         -2.5830   -1.7750   -4.5680 ha        1 959      0.132500
     28 H4         -0.8880   -2.0230   -2.8860 ha        1 959      0.133000
@<TRIPOS>BOND
     1    1    2 1   
     2    2    4 1   
     3    3   16 1   
     4    3   17 1   
     5    3   18 1   
     6    4    5 1   
     7    4   19 1   
     8    4   20 1   
     9    5    6 1   
    10    5   21 1   
    11    6    7 1   
    12    6    8 1   
    13    8    9 1   
    14    9   10 1   
    15    9   22 1   
    16    9   23 1   
    17   10   11 1   
    18   10   15 1   
    19   11   12 1   
    20   11   24 1   
    21   12   25 1   
    22   13   14 1   
    23   13   26 1   
    24   14   27 1   
    25   15   28 1   
@<TRIPOS>SUBSTRUCTURE
     1 959         1 TEMP              0 ****  ****    0 ROOT
