@<TRIPOS>MOLECULE
959
   29    29     1     0     0
SMALL
bcc


@<TRIPOS>ATOM
      1 O15        -0.1970   -0.3830   -0.0670 o         1 959     -0.497100
      2 C13         1.0140   -0.2480   -0.2450 c         1 959      0.570100
      3 C16         2.0710   -0.4840    0.7680 c3        1 959     -0.202100
      4 C12         1.5430    0.2000   -1.6090 c3        1 959     -0.020200
      5 N10         0.4550    0.5310   -2.5750 n4        1 959     -0.632800
      6 C9          0.9990    0.7840   -3.9510 c         1 959      0.623100
      7 O11         1.1350    1.9210   -4.3760 o         1 959     -0.416000
      8 O8          1.3150   -0.3670   -4.5620 os        1 959     -0.407900
      9 C7          1.6220   -0.2930   -6.0030 c3        1 959      0.214700
     10 C5          0.3770   -0.2190   -6.8000 ca        1 959     -0.192300
     11 C6         -0.0760    1.0160   -7.2830 ca        1 959     -0.092500
     12 C1         -1.2190    1.0770   -8.0770 ca        1 959     -0.129500
     13 C2         -1.9140   -0.0920   -8.3930 ca        1 959     -0.082000
     14 C3         -1.4660   -1.3240   -7.9120 ca        1 959     -0.129500
     15 C4         -0.3230   -1.3900   -7.1180 ca        1 959     -0.092500
     16 H16         1.8690   -1.4470    1.3060 hc        1 959      0.098367
     17 H16A        3.0890   -0.5260    0.3130 hc        1 959      0.098367
     18 H16B        2.0450    0.3410    1.5270 hc        1 959      0.098367
     19 H12         2.1640   -0.6360   -2.0490 hx        1 959      0.135700
     20 H12A        2.1960    1.1110   -1.4770 hx        1 959      0.135700
     21 HN10       -0.0460    1.3730   -2.2570 hn        1 959      0.482800
     22 H7          2.3000    0.5830   -6.1730 h1        1 959      0.102200
     23 H7A         2.1660   -1.2700   -6.1320 h1        1 959      0.102200
     24 H6          0.4760    1.9380   -7.0380 ha        1 959      0.142500
     25 H1         -1.5680    2.0470   -8.4630 ha        1 959      0.154500
     26 H2         -2.8140   -0.0430   -9.0270 ha        1 959      0.155000
     27 H3         -2.0120   -2.2460   -8.1660 ha        1 959      0.154500
     28 H4          0.0360   -2.3640   -6.7500 ha        1 959      0.142500
     29 H102       -0.2130   -0.2550   -2.6050 hn        1 959      0.482800
@<TRIPOS>BOND
     1    1    2 2   
     2    2    3 1   
     3    2    4 1   
     4    3   16 1   
     5    3   17 1   
     6    3   18 1   
     7    4    5 1   
     8    4   19 1   
     9    4   20 1   
    10    5    6 1   
    11    5   21 1   
    12    5   29 1   
    13    6    7 2   
    14    6    8 1   
    15    8    9 1   
    16    9   10 1   
    17    9   22 1   
    18    9   23 1   
    19   10   11 ar  
    20   10   15 ar  
    21   11   12 ar  
    22   11   24 1   
    23   12   13 ar  
    24   12   25 1   
    25   13   14 ar  
    26   13   26 1   
    27   14   15 ar  
    28   14   27 1   
    29   15   28 1   
@<TRIPOS>SUBSTRUCTURE
     1 959         1 TEMP              0 ****  ****    0 ROOT
