@<TRIPOS>MOLECULE
959
   28    28     1     0     0
SMALL
bcc


@<TRIPOS>ATOM
      1 O15         3.6980   -1.8090   -0.1070 o         1 959     -0.526100
      2 C13         4.1660   -0.6680   -0.1540 c         1 959      0.538100
      3 C16         5.5170   -0.3180    0.3730 c3        1 959     -0.202100
      4 C12         3.4160    0.4990   -0.7750 c3        1 959     -0.032000
      5 N10         2.0140    0.2870   -1.0240 n         1 959     -0.494900
      6 C9          1.0970    0.8880   -0.1670 c         1 959      0.721100
      7 O11         1.2720    1.8740    0.5690 o         1 959     -0.585000
      8 O8         -0.1590    0.3260   -0.2470 os        1 959     -0.434900
      9 C7         -1.1790    1.0240    0.4980 c3        1 959      0.196700
     10 C5         -2.4620    0.2920    0.2950 ca        1 959     -0.097300
     11 C6         -3.3930    0.2550    1.3410 ca        1 959     -0.111000
     12 C1         -4.6170   -0.3860    1.1620 ca        1 959     -0.131500
     13 C2         -4.9150   -1.0000   -0.0550 ca        1 959     -0.124000
     14 C3         -3.9870   -0.9720   -1.0950 ca        1 959     -0.131500
     15 C4         -2.7630   -0.3260   -0.9220 ca        1 959     -0.111000
     16 H16         6.1210   -1.2390    0.5580 hc        1 959      0.070033
     17 H16A        6.0600    0.3370   -0.3510 hc        1 959      0.070033
     18 H16B        5.4030    0.2360    1.3380 hc        1 959      0.070033
     19 H12         3.5530    1.4100   -0.1210 h1        1 959      0.093200
     20 H12A        3.9020    0.7080   -1.7750 h1        1 959      0.093200
     21 HN10        1.7690   -0.6280   -1.3430 hn        1 959      0.325500
     22 H7         -0.8770    1.0500    1.5780 h1        1 959      0.064700
     23 H7A        -1.2490    2.0750    0.1070 h1        1 959      0.064700
     24 H6         -3.1580    0.7330    2.3030 ha        1 959      0.138500
     25 H1         -5.3480   -0.4090    1.9840 ha        1 959      0.133000
     26 H2         -5.8810   -1.5080   -0.1920 ha        1 959      0.132000
     27 H3         -4.2180   -1.4590   -2.0530 ha        1 959      0.133000
     28 H4         -2.0240   -0.3050   -1.7380 ha        1 959      0.138500
@<TRIPOS>BOND
     1    1    2 2   
     2    2    3 1   
     3    2    4 1   
     4    3   16 1   
     5    3   17 1   
     6    3   18 1   
     7    4    5 1   
     8    4   19 1   
     9    4   20 1   
    10    5    6 1   
    11    5   21 1   
    12    6    7 2   
    13    6    8 1   
    14    8    9 1   
    15    9   10 1   
    16    9   22 1   
    17    9   23 1   
    18   10   11 ar  
    19   10   15 ar  
    20   11   12 ar  
    21   11   24 1   
    22   12   13 ar  
    23   12   25 1   
    24   13   14 ar  
    25   13   26 1   
    26   14   15 ar  
    27   14   27 1   
    28   15   28 1   
@<TRIPOS>SUBSTRUCTURE
     1 959         1 TEMP              0 ****  ****    0 ROOT
