@<TRIPOS>MOLECULE
959
   29    29     1     0     0
SMALL
bcc


@<TRIPOS>ATOM
      1 O15         0.4380    1.1910    0.1650 o         1 959     -0.501100
      2 C13         1.2710    0.2930    0.0360 c         1 959      0.572100
      3 C16         1.9710   -0.4050    1.1410 c3        1 959     -0.201100
      4 C12         1.6710   -0.1860   -1.3610 c3        1 959     -0.023200
      5 N10         0.8560    0.4370   -2.4430 n4        1 959     -0.632800
      6 C9          1.5640    0.4370   -3.7660 c         1 959      0.615100
      7 O11         2.7720    0.6030   -3.8650 o         1 959     -0.427000
      8 O8          0.6900    0.2400   -4.7590 os        1 959     -0.405900
      9 C7          1.2570    0.2580   -6.1320 c3        1 959      0.221700
     10 C5          0.0980    0.0190   -7.0200 ca        1 959     -0.155300
     11 C6         -0.6470    1.1010   -7.5070 ca        1 959     -0.086500
     12 C1         -1.7090    0.8760   -8.3810 ca        1 959     -0.129500
     13 C2         -2.0340   -0.4250   -8.7680 ca        1 959     -0.080000
     14 C3         -1.2960   -1.5050   -8.2790 ca        1 959     -0.129500
     15 C4         -0.2340   -1.2870   -7.4040 ca        1 959     -0.086500
     16 H16         1.2480   -1.0830    1.6670 hc        1 959      0.098367
     17 H16A        2.8370   -1.0090    0.7770 hc        1 959      0.098367
     18 H16B        2.3370    0.3460    1.8900 hc        1 959      0.098367
     19 H12         1.5610   -1.3060   -1.4240 hx        1 959      0.140200
     20 H12A        2.7600    0.0800   -1.5300 hx        1 959      0.140200
     21 HN10       -0.0440   -0.0530   -2.5400 hn        1 959      0.483300
     22 H7          2.0270   -0.5540   -6.1760 h1        1 959      0.085200
     23 H7A         1.7270    1.2650   -6.2750 h1        1 959      0.085200
     24 H6         -0.3890    2.1280   -7.2090 ha        1 959      0.137500
     25 H1         -2.2890    1.7280   -8.7710 ha        1 959      0.153500
     26 H2         -2.8710   -0.6010   -9.4620 ha        1 959      0.155000
     27 H3         -1.5500   -2.5310   -8.5880 ha        1 959      0.153500
     28 H4          0.3510   -2.1390   -7.0260 ha        1 959      0.137500
     29 H102        0.6510    1.4170   -2.1810 hn        1 959      0.483300
@<TRIPOS>BOND
     1    1    2 2   
     2    2    3 1   
     3    2    4 1   
     4    3   16 1   
     5    3   17 1   
     6    3   18 1   
     7    4    5 1   
     8    4   19 1   
     9    4   20 1   
    10    5    6 1   
    11    5   21 1   
    12    5   29 1   
    13    6    7 2   
    14    6    8 1   
    15    8    9 1   
    16    9   10 1   
    17    9   22 1   
    18    9   23 1   
    19   10   11 ar  
    20   10   15 ar  
    21   11   12 ar  
    22   11   24 1   
    23   12   13 ar  
    24   12   25 1   
    25   13   14 ar  
    26   13   26 1   
    27   14   15 ar  
    28   14   27 1   
    29   15   28 1   
@<TRIPOS>SUBSTRUCTURE
     1 959         1 TEMP              0 ****  ****    0 ROOT
