@<TRIPOS>MOLECULE
961
   54    56     1     0     0
SMALL
bcc


@<TRIPOS>ATOM
      1 C1          0.6640   -1.0050    3.1980 ca        1 961      0.040900
      2 C2          1.2510   -0.6030    4.4050 ca        1 961     -0.114000
      3 C3          0.6660    0.4050    5.1710 ca        1 961     -0.117600
      4 C4         -0.5100    1.0070    4.7220 ca        1 961     -0.101000
      5 C5         -1.1120    0.6210    3.5280 ca        1 961     -0.150000
      6 C6         -0.5410   -0.3930    2.7370 ca        1 961     -0.014400
      7 C7          1.3100    0.8380    6.4840 c         1 961      0.910200
      8 C8         -1.2590    0.2970   -2.3810 ca        1 961     -0.101000
      9 C9         -1.3530   -0.7990   -1.5250 ca        1 961     -0.116300
     10 C10        -0.3750   -1.7980   -1.5890 ca        1 961     -0.126000
     11 C11         0.6670   -1.6870   -2.4990 ca        1 961     -0.125000
     12 C12         0.7650   -0.5890   -3.3700 ca        1 961     -0.055300
     13 C13         1.9170   -0.5520   -4.3380 c3        1 961     -0.005700
     14 C14         1.7040    0.5150   -5.4130 c3        1 961     -0.068400
     15 C15         1.2010    1.8140   -4.8380 c3        1 961     -0.070400
     16 C16        -0.1590    1.6620   -4.1540 c3        1 961     -0.004700
     17 C17        -0.2010    0.4270   -3.2930 ca        1 961     -0.058300
     18 C18        -0.3860    2.9100   -3.3030 c3        1 961     -0.086100
     19 C19        -1.2620    1.5790   -5.2050 c3        1 961     -0.086100
     20 C20         2.0580   -1.8970   -5.0500 c3        1 961     -0.084600
     21 C21         3.2060   -0.2680   -3.5720 c3        1 961     -0.084600
     22 C22        -2.4790   -0.9230   -0.5420 c3        1 961      0.118400
     23 C23        -2.0950   -0.2340    0.7910 c         1 961      0.633100
     24 N6         -1.1180   -0.8490    1.5300 n         1 961     -0.434100
     25 F1          1.2510   -1.9940    2.4660 f         1 961     -0.176900
     26 O22        -3.6840   -0.3750   -1.0340 oh        1 961     -0.590800
     27 O23        -2.7150    0.8000    1.1130 o         1 961     -0.614100
     28 O71         0.7420    1.7530    7.1420 o         1 961     -0.823800
     29 O72         2.3740    0.2560    6.8350 o         1 961     -0.823800
     30 H2          2.1800   -1.0760    4.7630 ha        1 961      0.170000
     31 H4         -0.9560    1.8030    5.3430 ha        1 961      0.162000
     32 H5         -2.0380    1.1190    3.2000 ha        1 961      0.153000
     33 H8         -2.0380    1.0750   -2.3350 ha        1 961      0.139000
     34 H10        -0.4300   -2.6720   -0.9230 ha        1 961      0.131000
     35 H11         1.4350   -2.4750   -2.5310 ha        1 961      0.132000
     36 H141        2.6740    0.6920   -5.9470 hc        1 961      0.039700
     37 H142        0.9700    0.1300   -6.1710 hc        1 961      0.039700
     38 H151        1.9430    2.2070   -4.0920 hc        1 961      0.043200
     39 H152        1.1130    2.5770   -5.6560 hc        1 961      0.043200
     40 H181       -1.4480    2.9790   -2.9690 hc        1 961      0.037367
     41 H182        0.2710    2.8910   -2.4010 hc        1 961      0.037367
     42 H183       -0.1490    3.8230   -3.9010 hc        1 961      0.037367
     43 H191       -2.2560    1.4580   -4.7100 hc        1 961      0.037367
     44 H192       -1.2780    2.5140   -5.8160 hc        1 961      0.037367
     45 H193       -1.0960    0.7090   -5.8830 hc        1 961      0.037367
     46 H201        2.4420   -2.6790   -4.3530 hc        1 961      0.036700
     47 H202        1.0710   -2.2300   -5.4520 hc        1 961      0.036700
     48 H203        2.7780   -1.8020   -5.8980 hc        1 961      0.036700
     49 H211        3.3640   -1.0420   -2.7840 hc        1 961      0.036700
     50 H212        4.0770   -0.2830   -4.2710 hc        1 961      0.036700
     51 H213        3.1580    0.7320   -3.0800 hc        1 961      0.036700
     52 H22        -2.7190   -2.0120   -0.3610 h1        1 961      0.087700
     53 HN6        -0.6320   -1.6050    1.0950 hn        1 961      0.318500
     54 HO22       -3.7110    0.5640   -0.7930 ho        1 961      0.427000
@<TRIPOS>BOND
     1    1    2 ar  
     2    1    6 ar  
     3    1   25 1   
     4    2    3 ar  
     5    2   30 1   
     6    3    4 ar  
     7    3    7 1   
     8    4    5 ar  
     9    4   31 1   
    10    5    6 ar  
    11    5   32 1   
    12    6   24 1   
    13    7   28 1   
    14    7   29 1   
    15    8    9 ar  
    16    8   17 ar  
    17    8   33 1   
    18    9   10 ar  
    19    9   22 1   
    20   10   11 ar  
    21   10   34 1   
    22   11   12 ar  
    23   11   35 1   
    24   12   13 1   
    25   12   17 ar  
    26   13   14 1   
    27   13   20 1   
    28   13   21 1   
    29   14   15 1   
    30   14   36 1   
    31   14   37 1   
    32   15   16 1   
    33   15   38 1   
    34   15   39 1   
    35   16   17 1   
    36   16   18 1   
    37   16   19 1   
    38   18   40 1   
    39   18   41 1   
    40   18   42 1   
    41   19   43 1   
    42   19   44 1   
    43   19   45 1   
    44   20   46 1   
    45   20   47 1   
    46   20   48 1   
    47   21   49 1   
    48   21   50 1   
    49   21   51 1   
    50   22   23 1   
    51   22   26 1   
    52   22   52 1   
    53   23   24 1   
    54   23   27 2   
    55   24   53 1   
    56   26   54 1   
@<TRIPOS>SUBSTRUCTURE
     1 961         1 TEMP              0 ****  ****    0 ROOT
