@<TRIPOS>MOLECULE
961
   54    56     1     0     0
SMALL
bcc


@<TRIPOS>ATOM
      1 C1         -0.0280    0.4830    0.2310 ca        1 961      0.040900
      2 C2          1.3630    0.4960    0.0590 ca        1 961     -0.114000
      3 C3          2.1940   -0.1240    0.9900 ca        1 961     -0.117600
      4 C4          1.6250   -0.7610    2.0950 ca        1 961     -0.101000
      5 C5          0.2470   -0.7890    2.2840 ca        1 961     -0.150000
      6 C6         -0.6140   -0.1690    1.3590 ca        1 961     -0.014400
      7 C7          3.7070   -0.1050    0.7960 c         1 961      0.910200
      8 C8         -4.9080    1.8450    3.5170 ca        1 961     -0.101000
      9 C9         -4.6590    1.0910    2.3720 ca        1 961     -0.116300
     10 C10        -4.7530    1.7060    1.1180 ca        1 961     -0.126000
     11 C11        -5.0950    3.0490    1.0310 ca        1 961     -0.125000
     12 C12        -5.3550    3.8130    2.1800 ca        1 961     -0.055300
     13 C13        -5.7340    5.2590    1.9990 c3        1 961     -0.005700
     14 C14        -6.2920    5.8520    3.2940 c3        1 961     -0.068400
     15 C15        -5.4740    5.4650    4.4990 c3        1 961     -0.070400
     16 C16        -5.4560    3.9540    4.7300 c3        1 961     -0.004700
     17 C17        -5.2380    3.2070    3.4410 ca        1 961     -0.058300
     18 C18        -4.3250    3.6540    5.7140 c3        1 961     -0.086100
     19 C19        -6.7760    3.5070    5.3530 c3        1 961     -0.086100
     20 C20        -6.8170    5.3950    0.9290 c3        1 961     -0.084600
     21 C21        -4.5060    6.0480    1.5530 c3        1 961     -0.084600
     22 C22        -4.2920   -0.3600    2.4610 c3        1 961      0.118400
     23 C23        -2.7560   -0.5100    2.5910 c         1 961      0.633100
     24 N6         -2.0210   -0.1880    1.4800 n         1 961     -0.434100
     25 F1         -0.8230    1.0940   -0.6930 f         1 961     -0.176900
     26 O22        -4.9290   -1.0090    3.5420 oh        1 961     -0.590800
     27 O23        -2.3010   -0.9400    3.6710 o         1 961     -0.614100
     28 O71         4.4160   -0.6830    1.6660 o         1 961     -0.823800
     29 O72         4.1600    0.4870   -0.2230 o         1 961     -0.823800
     30 H2          1.8150    0.9980   -0.8130 ha        1 961      0.170000
     31 H4          2.3010   -1.2450    2.8200 ha        1 961      0.162000
     32 H5         -0.1700   -1.2960    3.1680 ha        1 961      0.153000
     33 H8         -4.8450    1.3530    4.5010 ha        1 961      0.139000
     34 H10        -4.5610    1.1290    0.2010 ha        1 961      0.131000
     35 H11        -5.1550    3.5220    0.0390 ha        1 961      0.132000
     36 H141       -7.3500    5.5050    3.4300 hc        1 961      0.039700
     37 H142       -6.3160    6.9700    3.2010 hc        1 961      0.039700
     38 H151       -4.4200    5.8280    4.3700 hc        1 961      0.043200
     39 H152       -5.8910    5.9680    5.4120 hc        1 961      0.043200
     40 H181       -4.4050    2.6140    6.1110 hc        1 961      0.037533
     41 H182       -4.3790    4.3610    6.5770 hc        1 961      0.037533
     42 H183       -3.3340    3.7700    5.2150 hc        1 961      0.037533
     43 H191       -6.9240    4.0120    6.3370 hc        1 961      0.037533
     44 H192       -6.7710    2.4020    5.5140 hc        1 961      0.037533
     45 H193       -7.6330    3.7640    4.6850 hc        1 961      0.037533
     46 H201       -6.4020    5.1960   -0.0870 hc        1 961      0.036700
     47 H202       -7.6480    4.6760    1.1230 hc        1 961      0.036700
     48 H203       -7.2300    6.4330    0.9400 hc        1 961      0.036700
     49 H211       -3.7110    6.0110    2.3350 hc        1 961      0.036700
     50 H212       -4.7820    7.1130    1.3690 hc        1 961      0.036700
     51 H213       -4.0930    5.6150    0.6100 hc        1 961      0.036700
     52 H22        -4.6600   -0.9120    1.5470 h1        1 961      0.087700
     53 HN6        -2.5100    0.2500    0.7280 hn        1 961      0.318500
     54 HO22       -4.3630   -0.9210    4.3250 ho        1 961      0.427000
@<TRIPOS>BOND
     1    1    2 ar  
     2    1    6 ar  
     3    1   25 1   
     4    2    3 ar  
     5    2   30 1   
     6    3    4 ar  
     7    3    7 1   
     8    4    5 ar  
     9    4   31 1   
    10    5    6 ar  
    11    5   32 1   
    12    6   24 1   
    13    7   28 1   
    14    7   29 1   
    15    8    9 ar  
    16    8   17 ar  
    17    8   33 1   
    18    9   10 ar  
    19    9   22 1   
    20   10   11 ar  
    21   10   34 1   
    22   11   12 ar  
    23   11   35 1   
    24   12   13 1   
    25   12   17 ar  
    26   13   14 1   
    27   13   20 1   
    28   13   21 1   
    29   14   15 1   
    30   14   36 1   
    31   14   37 1   
    32   15   16 1   
    33   15   38 1   
    34   15   39 1   
    35   16   17 1   
    36   16   18 1   
    37   16   19 1   
    38   18   40 1   
    39   18   41 1   
    40   18   42 1   
    41   19   43 1   
    42   19   44 1   
    43   19   45 1   
    44   20   46 1   
    45   20   47 1   
    46   20   48 1   
    47   21   49 1   
    48   21   50 1   
    49   21   51 1   
    50   22   23 1   
    51   22   26 1   
    52   22   52 1   
    53   23   24 1   
    54   23   27 2   
    55   24   53 1   
    56   26   54 1   
@<TRIPOS>SUBSTRUCTURE
     1 961         1 TEMP              0 ****  ****    0 ROOT
