@<TRIPOS>MOLECULE
961
   55    57     1     0     0
SMALL
bcc


@<TRIPOS>ATOM
      1 C1          0.0300    0.8230    0.5760 ca        1 961      0.120900
      2 C2          0.8130    0.0780   -0.3130 ca        1 961     -0.120000
      3 C3          1.5520   -1.0120    0.1500 ca        1 961     -0.057600
      4 C4          1.5240   -1.3540    1.5090 ca        1 961     -0.100000
      5 C5          0.7560   -0.6320    2.4090 ca        1 961     -0.110000
      6 C6         -0.0100    0.4590    1.9500 ca        1 961     -0.163400
      7 C7          2.3970   -1.8460   -0.8410 c         1 961      0.914200
      8 C8         -4.6290    2.0440    3.6730 ca        1 961     -0.081000
      9 C9         -3.8210    1.4850    2.6840 ca        1 961     -0.167300
     10 C10        -3.6440    2.1600    1.4700 ca        1 961     -0.141000
     11 C11        -4.2760    3.3790    1.2700 ca        1 961     -0.123000
     12 C12        -5.0980    3.9520    2.2560 ca        1 961     -0.023300
     13 C13        -5.7690    5.2640    1.9440 c3        1 961     -0.013700
     14 C14        -6.8690    5.5770    2.9580 c3        1 961     -0.073400
     15 C15        -6.4400    5.3030    4.3770 c3        1 961     -0.072400
     16 C16        -6.0980    3.8300    4.6070 c3        1 961     -0.009700
     17 C17        -5.2580    3.2850    3.4820 ca        1 961     -0.056300
     18 C18        -5.3390    3.7360    5.9300 c3        1 961     -0.088100
     19 C19        -7.3790    3.0080    4.7190 c3        1 961     -0.088100
     20 C20        -6.4180    5.2120    0.5610 c3        1 961     -0.088100
     21 C21        -4.7210    6.3740    1.9520 c3        1 961     -0.088100
     22 C22        -3.1710    0.1510    2.8910 c3        1 961      0.167400
     23 C23        -1.8180    0.3410    3.5950 c         1 961      0.506100
     24 N6         -0.8190    1.2270    2.8960 n4        1 961     -0.521200
     25 F1         -0.6910    1.8890    0.1420 f         1 961     -0.153900
     26 O22        -3.9860   -0.6320    3.7320 oh        1 961     -0.548800
     27 O23        -1.4730   -0.1500    4.6590 o         1 961     -0.428100
     28 O71         2.3650   -1.4750   -2.0390 o         1 961     -0.775800
     29 O72         3.0240   -2.8130   -0.3470 o         1 961     -0.775800
     30 H2          0.8620    0.3360   -1.3880 ha        1 961      0.204000
     31 H4          2.1340   -2.2190    1.8350 ha        1 961      0.196000
     32 H5          0.7410   -0.9110    3.4750 ha        1 961      0.144000
     33 H8         -4.7900    1.4860    4.6110 ha        1 961      0.159000
     34 H10        -3.0300    1.7220    0.6650 ha        1 961      0.147000
     35 H11        -4.1330    3.9030    0.3100 ha        1 961      0.151000
     36 H141       -7.1570    6.6570    2.8580 hc        1 961      0.051700
     37 H142       -7.7780    4.9650    2.7150 hc        1 961      0.051700
     38 H151       -5.5450    5.9320    4.6290 hc        1 961      0.049700
     39 H152       -7.2630    5.5970    5.0800 hc        1 961      0.049700
     40 H181       -5.8870    4.3080    6.7180 hc        1 961      0.041033
     41 H182       -5.2530    2.6760    6.2690 hc        1 961      0.041033
     42 H183       -4.3150    4.1650    5.8260 hc        1 961      0.041033
     43 H191       -7.1340    1.9310    4.8840 hc        1 961      0.041033
     44 H192       -7.9890    3.3730    5.5800 hc        1 961      0.041033
     45 H193       -7.9860    3.0960    3.7870 hc        1 961      0.041033
     46 H201       -7.0820    6.1000    0.4270 hc        1 961      0.041700
     47 H202       -7.0300    4.2860    0.4520 hc        1 961      0.041700
     48 H203       -5.6460    5.2310   -0.2450 hc        1 961      0.041700
     49 H211       -4.2670    6.4810    2.9650 hc        1 961      0.041700
     50 H212       -3.9100    6.1460    1.2190 hc        1 961      0.041700
     51 H213       -5.1960    7.3440    1.6680 hc        1 961      0.041700
     52 H22        -2.9750   -0.3680    1.9060 h1        1 961      0.103700
     53 HN6        -1.3230    1.9690    2.3880 hn        1 961      0.461300
     54 HO22       -3.6450   -1.5380    3.7110 ho        1 961      0.432000
     55 H62        -0.1900    1.6520    3.5880 hn        1 961      0.461300
@<TRIPOS>BOND
     1    1    2 ar  
     2    1    6 ar  
     3    1   25 1   
     4    2    3 ar  
     5    2   30 1   
     6    3    4 ar  
     7    3    7 1   
     8    4    5 ar  
     9    4   31 1   
    10    5    6 ar  
    11    5   32 1   
    12    6   24 1   
    13    7   28 1   
    14    7   29 1   
    15    8    9 ar  
    16    8   17 ar  
    17    8   33 1   
    18    9   10 ar  
    19    9   22 1   
    20   10   11 ar  
    21   10   34 1   
    22   11   12 ar  
    23   11   35 1   
    24   12   13 1   
    25   12   17 ar  
    26   13   14 1   
    27   13   20 1   
    28   13   21 1   
    29   14   15 1   
    30   14   36 1   
    31   14   37 1   
    32   15   16 1   
    33   15   38 1   
    34   15   39 1   
    35   16   17 1   
    36   16   18 1   
    37   16   19 1   
    38   18   40 1   
    39   18   41 1   
    40   18   42 1   
    41   19   43 1   
    42   19   44 1   
    43   19   45 1   
    44   20   46 1   
    45   20   47 1   
    46   20   48 1   
    47   21   49 1   
    48   21   50 1   
    49   21   51 1   
    50   22   23 1   
    51   22   26 1   
    52   22   52 1   
    53   23   24 1   
    54   23   27 2   
    55   24   53 1   
    56   24   55 1   
    57   26   54 1   
@<TRIPOS>SUBSTRUCTURE
     1 961         1 TEMP              0 ****  ****    0 ROOT
