@<TRIPOS>MOLECULE
964
   60    61     1     0     0
SMALL
bcc


@<TRIPOS>ATOM
      1 O31        -3.4250    1.6100   -3.4370 os        1 964     -0.535200
      2 C1        -13.3320    6.3700   -9.5920 c3        1 964     -0.189100
      3 C2        -12.3090    5.2970   -9.4910 c         1 964      0.560100
      4 N4        -10.8990    5.7640   -9.1150 n4        1 964     -0.695800
      5 O3        -12.4150    4.0980   -9.6720 o         1 964     -0.384100
      6 C29        -2.6360    0.4480   -3.1500 c         1 964      0.665100
      7 O30        -2.7730    0.0230   -2.0260 o         1 964     -0.515500
      8 C24        -1.8710    0.1330   -4.3810 ca        1 964      0.249000
      9 N25        -0.9910   -0.8550   -4.6090 nb        1 964     -0.534000
     10 C26        -0.4620   -0.8500   -5.8580 ca        1 964      0.330400
     11 C27        -0.8120    0.1180   -6.8440 ca        1 964      0.330400
     12 N28        -1.7020    1.1140   -6.6150 nb        1 964     -0.534000
     13 C22        -2.2240    1.1120   -5.3780 ca        1 964      0.249000
     14 C21        -3.2040    2.0300   -4.7570 c         1 964      0.665100
     15 O23        -3.8500    3.0200   -5.0740 o         1 964     -0.515500
     16 N20         0.0470    2.3000    0.3770 n3        1 964     -0.905800
     17 C17        -1.2220    2.6420   -0.2230 c3        1 964      0.178500
     18 C18        -2.4510    2.4840    0.6920 c3        1 964     -0.103400
     19 C19        -3.7270    2.7490   -0.0820 c3        1 964     -0.080400
     20 C16        -1.2110    4.0710   -0.7910 c3        1 964     -0.103400
     21 C15        -2.4850    4.3470   -1.5650 c3        1 964     -0.080400
     22 C13        -3.6920    4.1620   -0.6550 c3        1 964     -0.138700
     23 C12        -4.9890    4.4970   -1.3460 c         1 964      0.553100
     24 O14        -5.8570    5.2650   -0.9660 o         1 964     -0.412100
     25 N11        -5.2420    3.7940   -2.6690 n4        1 964     -0.684800
     26 C10        -6.6170    4.0120   -3.2030 c3        1 964      0.109800
     27 C9         -6.7750    3.5670   -4.6460 c3        1 964     -0.068300
     28 S7         -8.9980    5.5720   -5.5590 ss        1 964     -0.101100
     29 C5        -10.5800    5.4090   -7.6970 c3        1 964      0.110800
     30 C6         -9.1410    5.6990   -7.3100 c3        1 964     -0.078300
     31 S8         -8.4710    3.5870   -5.1040 ss        1 964     -0.084100
     32 H11A      -13.3770    6.9850   -8.6570 hc        1 964      0.122700
     33 H12       -14.3360    5.8890   -9.7560 hc        1 964      0.122700
     34 H13A      -13.1150    7.0390  -10.4650 hc        1 964      0.122700
     35 H4        -10.2190    5.3040   -9.7330 hn        1 964      0.457800
     36 H26         0.2710   -1.6530   -6.0760 h4        1 964      0.080100
     37 H27        -0.3600    0.0940   -7.8560 h4        1 964      0.080100
     38 H20         0.0300    1.3670    0.7390 hn        1 964      0.367800
     39 H17        -1.3640    1.9230   -1.0900 h1        1 964      0.044700
     40 H181       -2.3760    3.1870    1.5620 hc        1 964      0.072200
     41 H182       -2.4910    1.4400    1.1000 hc        1 964      0.072200
     42 H191       -3.8140    1.9940   -0.9110 hc        1 964      0.053450
     43 H192       -4.6120    2.6330    0.5970 hc        1 964      0.053450
     44 H161       -0.3320    4.2020   -1.4770 hc        1 964      0.072200
     45 H162       -1.1020    4.8140    0.0420 hc        1 964      0.072200
     46 H151       -2.4610    5.3940   -1.9630 hc        1 964      0.053450
     47 H152       -2.5420    3.6390   -2.4360 hc        1 964      0.053450
     48 H13        -3.6110    4.8960    0.2050 hc        1 964      0.132700
     49 H11        -5.0660    2.7860   -2.5440 hn        1 964      0.473800
     50 H101       -6.8500    5.1150   -3.1130 hx        1 964      0.120200
     51 H102       -7.3380    3.4520   -2.5380 hx        1 964      0.120200
     52 H91        -6.4780    2.4900   -4.7760 h1        1 964      0.115200
     53 H92        -6.1210    4.1680   -5.3270 h1        1 964      0.115200
     54 H51       -10.8010    4.3060   -7.5720 hx        1 964      0.123200
     55 H52       -11.2820    5.9930   -7.0310 hx        1 964      0.123200
     56 H61        -8.4310    5.0280   -7.8530 h1        1 964      0.108700
     57 H62        -8.8590    6.7620   -7.5400 h1        1 964      0.108700
     58 H42       -10.8230    6.7770   -9.2440 hn        1 964      0.457800
     59 H202        0.2970    2.9400    1.1040 hn        1 964      0.367800
     60 H112       -4.5480    4.1270   -3.3580 hn        1 964      0.473800
@<TRIPOS>BOND
     1    1    6 1   
     2    1   14 1   
     3    2    3 1   
     4    2   32 1   
     5    2   33 1   
     6    2   34 1   
     7    3    4 1   
     8    3    5 2   
     9    4   29 1   
    10    4   35 1   
    11    4   58 1   
    12    6    7 2   
    13    6    8 1   
    14    8    9 ar  
    15    8   13 ar  
    16    9   10 ar  
    17   10   11 ar  
    18   10   36 1   
    19   11   12 ar  
    20   11   37 1   
    21   12   13 ar  
    22   13   14 1   
    23   14   15 2   
    24   16   17 1   
    25   16   38 1   
    26   16   59 1   
    27   17   18 1   
    28   17   20 1   
    29   17   39 1   
    30   18   19 1   
    31   18   40 1   
    32   18   41 1   
    33   19   22 1   
    34   19   42 1   
    35   19   43 1   
    36   20   21 1   
    37   20   44 1   
    38   20   45 1   
    39   21   22 1   
    40   21   46 1   
    41   21   47 1   
    42   22   23 1   
    43   22   48 1   
    44   23   24 2   
    45   23   25 1   
    46   25   26 1   
    47   25   49 1   
    48   25   60 1   
    49   26   27 1   
    50   26   50 1   
    51   26   51 1   
    52   27   31 1   
    53   27   52 1   
    54   27   53 1   
    55   28   30 1   
    56   28   31 1   
    57   29   30 1   
    58   29   54 1   
    59   29   55 1   
    60   30   56 1   
    61   30   57 1   
@<TRIPOS>SUBSTRUCTURE
     1 964         1 TEMP              0 ****  ****    0 ROOT
