@<TRIPOS>MOLECULE
964
   57    55     1     0     0
SMALL
bcc


@<TRIPOS>ATOM
      1 O31        -2.2780   -9.2340   -2.9630 o         1 964     -0.510000
      2 C1         -0.7790   11.8130    4.3380 c3        1 964     -0.243000
      3 C2         -1.3740   10.9030    3.2450 c2        1 964      0.293000
      4 N4         -0.5160   10.0600    2.4710 n         1 964     -0.362000
      5 O3         -2.5890   10.8920    3.0480 o         1 964     -0.386000
      6 C29        -1.3350   -8.7410   -3.6600 c1        1 964      0.380000
      7 O30        -1.6040   -8.0300   -4.6720 os        1 964     -0.564000
      8 C24         0.1360   -8.9000   -3.1940 c2        1 964     -0.050000
      9 N25         0.7790  -10.0760   -3.3800 n2        1 964     -0.102000
     10 C26         2.0960  -10.1860   -3.0780 c1        1 964     -0.118000
     11 C27         2.7860   -9.0920   -2.5760 c1        1 964     -0.168000
     12 N28         2.1430   -7.9120   -2.3890 n1        1 964     -0.082000
     13 C22         0.8280   -7.8020   -2.6910 c1        1 964     -0.118000
     14 C21         0.0420   -6.4890   -2.3110 c2        1 964      0.359000
     15 O23        -1.1470   -6.4400   -2.4580 o         1 964     -0.359000
     16 N20         0.7210   -5.4170   -1.6670 n         1 964     -0.334000
     17 C17        -0.0480   -4.2280   -1.1750 c3        1 964      0.018000
     18 C18         0.2420   -4.0390    0.2740 c3        1 964     -0.186500
     19 C19        -0.3400   -2.7570    0.8320 c3        1 964     -0.138500
     20 C16         0.3200   -3.0510   -2.0040 c3        1 964     -0.186500
     21 C15        -0.2610   -1.7490   -1.4790 c3        1 964     -0.138500
     22 C13         0.0600   -1.4990    0.0140 c3        1 964     -0.124000
     23 C12        -0.6030   -0.2040    0.5540 c2        1 964      0.316000
     24 O14        -1.8010   -0.1890    0.8050 o         1 964     -0.424000
     25 N11         0.1920    1.0290    0.6840 n         1 964     -0.381000
     26 C10        -0.4660    2.2970    0.8980 c3        1 964     -0.020000
     27 C9          0.5730    3.3430    1.3250 c3        1 964     -0.308000
     28 S7         -0.4300    6.2650    2.0470 ss        1 964      0.003000
     29 C5         -1.0260    8.9020    1.8670 c3        1 964     -0.032000
     30 C6          0.1040    7.9300    1.6150 c3        1 964     -0.317000
     31 S8          0.1770    4.9280    0.5710 ss        1 964     -0.003000
     32 H11A       -1.4990   12.3000    4.7850 hc        1 964      0.105000
     33 H12        -0.1530   12.4540    3.9280 hc        1 964      0.105000
     34 H13A       -0.2990   11.2620    4.9940 hc        1 964      0.105000
     35 H4          0.3640   10.2630    2.3900 hn        1 964      0.244000
     36 H26         2.5640  -11.0540   -3.2010 ha        1 964      0.148000
     37 H27         3.7330   -9.1960   -2.2720 ha        1 964      0.149000
     38 H20         1.6260   -5.4410   -1.5760 hn        1 964      0.246000
     39 H17        -0.9930   -4.4010   -1.2830 h1        1 964      0.101000
     40 H181        1.2000   -4.0260    0.4000 hc        1 964      0.110750
     41 H182       -0.1300   -4.7930    0.7700 hc        1 964      0.110750
     42 H191       -0.0300   -2.6480    1.7440 hc        1 964      0.081750
     43 H192       -1.3110   -2.8310    0.8380 hc        1 964      0.081750
     44 H161        1.2810   -2.9760   -2.0260 hc        1 964      0.110750
     45 H162       -0.0020   -3.1940   -2.9050 hc        1 964      0.110750
     46 H151       -1.2520   -1.7700   -1.5950 hc        1 964      0.081750
     47 H152        0.0990   -1.0140   -2.0020 hc        1 964      0.081750
     48 H13         0.9910   -1.2940    0.1340 hc        1 964      0.119000
     49 H11         1.1080    0.9850    0.6800 hn        1 964      0.235000
     50 H101       -1.1370    2.2020    1.5960 h1        1 964      0.106000
     51 H102       -0.8990    2.5870    0.0660 h1        1 964      0.106000
     52 H91         1.4610    3.0560    1.0330 h1        1 964      0.124500
     53 H92         0.5640    3.4350    2.3030 h1        1 964      0.124500
     54 H51        -1.4470    9.1350    1.0230 h1        1 964      0.112500
     55 H52        -1.6800    8.4930    2.4520 h1        1 964      0.112500
     56 H61         0.8820    8.1800    2.1700 h1        1 964      0.136500
     57 H62         0.3570    7.9590    0.6620 h1        1 964      0.136500
@<TRIPOS>BOND
     1    1    6 1   
     2    2    3 1   
     3    2   32 1   
     4    2   33 1   
     5    2   34 1   
     6    3    4 1   
     7    3    5 1   
     8    4   29 1   
     9    4   35 1   
    10    6    8 1   
    11    8    9 1   
    12    8   13 1   
    13    9   10 1   
    14   10   36 1   
    15   11   12 1   
    16   11   37 1   
    17   13   14 1   
    18   14   15 1   
    19   14   16 1   
    20   16   17 1   
    21   16   38 1   
    22   17   18 1   
    23   17   20 1   
    24   17   39 1   
    25   18   19 1   
    26   18   40 1   
    27   18   41 1   
    28   19   22 1   
    29   19   42 1   
    30   19   43 1   
    31   20   21 1   
    32   20   44 1   
    33   20   45 1   
    34   21   22 1   
    35   21   46 1   
    36   21   47 1   
    37   22   23 1   
    38   22   48 1   
    39   23   24 1   
    40   23   25 1   
    41   25   26 1   
    42   25   49 1   
    43   26   27 1   
    44   26   50 1   
    45   26   51 1   
    46   27   31 1   
    47   27   52 1   
    48   27   53 1   
    49   28   30 1   
    50   28   31 1   
    51   29   30 1   
    52   29   54 1   
    53   29   55 1   
    54   30   56 1   
    55   30   57 1   
@<TRIPOS>SUBSTRUCTURE
     1 964         1 TEMP              0 ****  ****    0 ROOT
