@<TRIPOS>MOLECULE
964
   60    61     1     0     0
SMALL
bcc


@<TRIPOS>ATOM
      1 O31        -2.8820    1.4060   -3.7270 os        1 964     -0.536200
      2 C1        -13.3310    6.9720   -9.2680 c3        1 964     -0.189100
      3 C2        -12.4590    5.7760   -9.1260 c         1 964      0.560100
      4 N4        -10.9740    6.0690   -8.8910 n4        1 964     -0.695800
      5 O3        -12.7440    4.5940   -9.1790 o         1 964     -0.384100
      6 C29        -1.5280    1.0040   -3.4950 c         1 964      0.667100
      7 O30        -1.0270    1.5040   -2.5130 o         1 964     -0.518000
      8 C24        -1.1660    0.0620   -4.5810 ca        1 964      0.249500
      9 N25        -0.0110   -0.5860   -4.7990 nb        1 964     -0.533500
     10 C26        -0.0190   -1.3840   -5.8960 ca        1 964      0.329900
     11 C27        -1.1560   -1.5220   -6.7450 ca        1 964      0.329900
     12 N28        -2.3220   -0.8670   -6.5260 nb        1 964     -0.533500
     13 C22        -2.3150   -0.0790   -5.4390 ca        1 964      0.249500
     14 C21        -3.3850    0.7730   -4.8750 c         1 964      0.667100
     15 O23        -4.5470    1.0620   -5.1240 o         1 964     -0.518000
     16 N20        -0.1020    4.7980    0.4600 n3        1 964     -0.904800
     17 C17        -1.2020    4.0990   -0.1650 c3        1 964      0.170500
     18 C18        -2.0990    3.2950    0.7960 c3        1 964     -0.099900
     19 C19        -3.1660    2.5380    0.0350 c3        1 964     -0.080400
     20 C16        -2.0910    5.0660   -0.9670 c3        1 964     -0.099900
     21 C15        -3.1490    4.2970   -1.7360 c3        1 964     -0.080400
     22 C13        -4.0250    3.5190   -0.7690 c3        1 964     -0.130700
     23 C12        -5.1750    2.7590   -1.3770 c         1 964      0.555100
     24 O14        -6.0480    2.1490   -0.7780 o         1 964     -0.418100
     25 N11        -5.3080    2.7080   -2.8930 n4        1 964     -0.680800
     26 C10        -6.5280    3.4360   -3.3500 c3        1 964      0.113800
     27 C9         -6.7980    3.2900   -4.8380 c3        1 964     -0.073300
     28 S7         -8.7620    5.6230   -5.5380 ss        1 964     -0.102100
     29 C5        -10.5640    5.6820   -7.5060 c3        1 964      0.109800
     30 C6         -9.0680    5.7890   -7.2660 c3        1 964     -0.076300
     31 S8         -8.5070    3.5680   -5.1520 ss        1 964     -0.090100
     32 H11A      -13.0720    7.5410  -10.1990 hc        1 964      0.122700
     33 H12       -13.2420    7.6510   -8.3820 hc        1 964      0.122700
     34 H13A      -14.3980    6.6260   -9.3500 hc        1 964      0.122700
     35 H4        -10.7880    7.0650   -9.0430 hn        1 964      0.457300
     36 H26         0.9210   -1.9350   -6.1010 h4        1 964      0.080100
     37 H27        -1.1290   -2.1830   -7.6340 h4        1 964      0.080100
     38 H20        -0.4220    5.4540    1.1430 hn        1 964      0.365300
     39 H17        -0.7450    3.3630   -0.8970 h1        1 964      0.073700
     40 H181       -1.4750    2.5550    1.3650 hc        1 964      0.067200
     41 H182       -2.5750    3.9820    1.5430 hc        1 964      0.067200
     42 H191       -2.6800    1.8080   -0.6660 hc        1 964      0.056950
     43 H192       -3.8150    1.9670    0.7500 hc        1 964      0.056950
     44 H161       -2.5790    5.8030   -0.2780 hc        1 964      0.067200
     45 H162       -1.4600    5.6430   -1.6940 hc        1 964      0.067200
     46 H151       -3.7660    5.0210   -2.3290 hc        1 964      0.056950
     47 H152       -2.6320    3.5890   -2.4420 hc        1 964      0.056950
     48 H13        -4.5080    4.2470   -0.0460 hc        1 964      0.122700
     49 H11        -5.3760    1.7210   -3.1920 hn        1 964      0.467800
     50 H101       -7.4040    3.0240   -2.7620 hx        1 964      0.116700
     51 H102       -6.3960    4.5240   -3.0820 hx        1 964      0.116700
     52 H91        -6.6200    2.2320   -5.1900 h1        1 964      0.120200
     53 H92        -6.1270    3.9540   -5.4350 h1        1 964      0.120200
     54 H51       -11.1180    6.3530   -6.7840 hx        1 964      0.124200
     55 H52       -10.9080    4.6170   -7.3410 hx        1 964      0.124200
     56 H61        -8.5050    5.0430   -7.8780 h1        1 964      0.109200
     57 H62        -8.6830    6.8120   -7.5220 h1        1 964      0.109200
     58 H42       -10.4180    5.5280   -9.5650 hn        1 964      0.457300
     59 H202        0.5340    4.1520    0.8820 hn        1 964      0.365300
     60 H112       -4.4680    3.0910   -3.3430 hn        1 964      0.467800
@<TRIPOS>BOND
     1    1    6 1   
     2    1   14 1   
     3    2    3 1   
     4    2   32 1   
     5    2   33 1   
     6    2   34 1   
     7    3    4 1   
     8    3    5 2   
     9    4   29 1   
    10    4   35 1   
    11    4   58 1   
    12    6    7 2   
    13    6    8 1   
    14    8    9 ar  
    15    8   13 ar  
    16    9   10 ar  
    17   10   11 ar  
    18   10   36 1   
    19   11   12 ar  
    20   11   37 1   
    21   12   13 ar  
    22   13   14 1   
    23   14   15 2   
    24   16   17 1   
    25   16   38 1   
    26   16   59 1   
    27   17   18 1   
    28   17   20 1   
    29   17   39 1   
    30   18   19 1   
    31   18   40 1   
    32   18   41 1   
    33   19   22 1   
    34   19   42 1   
    35   19   43 1   
    36   20   21 1   
    37   20   44 1   
    38   20   45 1   
    39   21   22 1   
    40   21   46 1   
    41   21   47 1   
    42   22   23 1   
    43   22   48 1   
    44   23   24 2   
    45   23   25 1   
    46   25   26 1   
    47   25   49 1   
    48   25   60 1   
    49   26   27 1   
    50   26   50 1   
    51   26   51 1   
    52   27   31 1   
    53   27   52 1   
    54   27   53 1   
    55   28   30 1   
    56   28   31 1   
    57   29   30 1   
    58   29   54 1   
    59   29   55 1   
    60   30   56 1   
    61   30   57 1   
@<TRIPOS>SUBSTRUCTURE
     1 964         1 TEMP              0 ****  ****    0 ROOT
