@<TRIPOS>MOLECULE
964
   60    61     1     0     0
SMALL
bcc


@<TRIPOS>ATOM
      1 O31        -2.8950    1.4030   -3.6730 os        1 964     -0.536200
      2 C1        -13.2450    6.9460   -9.4290 c3        1 964     -0.190100
      3 C2        -12.3780    5.7500   -9.2520 c         1 964      0.560100
      4 N4        -10.8960    6.0450   -8.9960 ny        1 964     -0.695800
      5 O3        -12.6640    4.5680   -9.2890 o         1 964     -0.384100
      6 C29        -1.5470    0.9970   -3.4180 c         1 964      0.667100
      7 O30        -1.0580    1.5020   -2.4330 o         1 964     -0.518000
      8 C24        -1.1730    0.0430   -4.4900 ca        1 964      0.249500
      9 N25        -0.0180   -0.6110   -4.6860 nb        1 964     -0.533500
     10 C26        -0.0130   -1.4180   -5.7760 ca        1 964      0.329900
     11 C27        -1.1380   -1.5580   -6.6410 ca        1 964      0.329900
     12 N28        -2.3050   -0.8960   -6.4450 nb        1 964     -0.533500
     13 C22        -2.3100   -0.0990   -5.3640 ca        1 964      0.249500
     14 C21        -3.3840    0.7620   -4.8240 c         1 964      0.667100
     15 O23        -4.5410    1.0550   -5.0920 o         1 964     -0.518000
     16 N20        -0.1610    4.8170    0.5240 n8        1 964     -0.904800
     17 C17        -1.2550    4.1180   -0.1110 c3        1 964      0.170500
     18 C18        -2.1700    3.3260    0.8440 c3        1 964     -0.099900
     19 C19        -3.2300    2.5680    0.0740 c3        1 964     -0.080400
     20 C16        -2.1280    5.0820   -0.9340 c3        1 964     -0.099900
     21 C15        -3.1780    4.3110   -1.7120 c3        1 964     -0.080400
     22 C13        -4.0720    3.5460   -0.7510 c3        1 964     -0.130700
     23 C12        -5.2170    2.7870   -1.3690 c         1 964      0.555100
     24 O14        -6.1010    2.1870   -0.7780 o         1 964     -0.418100
     25 N11        -5.3280    2.7230   -2.8860 ny        1 964     -0.680800
     26 C10        -6.5390    3.4500   -3.3680 c3        1 964      0.113800
     27 C9         -6.7870    3.2910   -4.8580 c3        1 964     -0.073300
     28 S7         -8.7350    5.6240   -5.6070 ss        1 964     -0.102100
     29 C5        -10.5070    5.6690   -7.6010 c3        1 964      0.109800
     30 C6         -9.0150    5.7750   -7.3400 c3        1 964     -0.076300
     31 S8         -8.4910    3.5720   -5.1990 ss        1 964     -0.090100
     32 H11A      -12.9660    7.5010  -10.3620 hc        1 964      0.122700
     33 H12       -14.3110    6.5990   -9.5270 hc        1 964      0.122700
     34 H13A      -13.1720    7.6370   -8.5510 hc        1 964      0.122700
     35 H4        -10.3310    5.4980   -9.6570 hn        1 964      0.457300
     36 H26         0.9270   -1.9750   -5.9630 h4        1 964      0.080100
     37 H27        -1.1020   -2.2270   -7.5240 h4        1 964      0.080100
     38 H20        -0.4870    5.4810    1.1970 hn        1 964      0.365300
     39 H17        -0.7910    3.3740   -0.8300 h1        1 964      0.073700
     40 H181       -2.6540    4.0220    1.5780 hc        1 964      0.067200
     41 H182       -1.5580    2.5890    1.4280 hc        1 964      0.067200
     42 H191       -3.8910    2.0070    0.7840 hc        1 964      0.056950
     43 H192       -2.7370    1.8300   -0.6140 hc        1 964      0.056950
     44 H161       -2.6220    5.8280   -0.2590 hc        1 964      0.067200
     45 H162       -1.4830    5.6500   -1.6560 hc        1 964      0.067200
     46 H151       -2.6540    3.5950   -2.4040 hc        1 964      0.056950
     47 H152       -3.7830    5.0340   -2.3200 hc        1 964      0.056950
     48 H13        -4.5610    4.2830   -0.0410 hc        1 964      0.122700
     49 H11        -5.3940    1.7340   -3.1770 hn        1 964      0.467800
     50 H101       -7.4250    3.0450   -2.7880 hx        1 964      0.116700
     51 H102       -6.4070    4.5400   -3.1070 hx        1 964      0.116700
     52 H91        -6.1060    3.9490   -5.4510 h1        1 964      0.120200
     53 H92        -6.6070    2.2310   -5.1980 h1        1 964      0.120200
     54 H51       -11.0700    6.3470   -6.8940 hx        1 964      0.124200
     55 H52       -10.8550    4.6050   -7.4330 hx        1 964      0.124200
     56 H61        -8.6240    6.7960   -7.6000 h1        1 964      0.109200
     57 H62        -8.4440    5.0240   -7.9380 h1        1 964      0.109200
     58 H42       -10.7070    7.0390   -9.1530 hn        1 964      0.457300
     59 H202        0.4660    4.1720    0.9620 hn        1 964      0.365300
     60 H112       -4.4800    3.1000   -3.3270 hn        1 964      0.467800
@<TRIPOS>BOND
     1    1    6 1   
     2    1   14 1   
     3    2    3 1   
     4    2   32 1   
     5    2   33 1   
     6    2   34 1   
     7    3    4 1   
     8    3    5 2   
     9    4   29 1   
    10    4   35 1   
    11    4   58 1   
    12    6    7 2   
    13    6    8 1   
    14    8    9 ar  
    15    8   13 ar  
    16    9   10 ar  
    17   10   11 ar  
    18   10   36 1   
    19   11   12 ar  
    20   11   37 1   
    21   12   13 ar  
    22   13   14 1   
    23   14   15 2   
    24   16   17 1   
    25   16   38 1   
    26   16   59 1   
    27   17   18 1   
    28   17   20 1   
    29   17   39 1   
    30   18   19 1   
    31   18   40 1   
    32   18   41 1   
    33   19   22 1   
    34   19   42 1   
    35   19   43 1   
    36   20   21 1   
    37   20   44 1   
    38   20   45 1   
    39   21   22 1   
    40   21   46 1   
    41   21   47 1   
    42   22   23 1   
    43   22   48 1   
    44   23   24 2   
    45   23   25 1   
    46   25   26 1   
    47   25   49 1   
    48   25   60 1   
    49   26   27 1   
    50   26   50 1   
    51   26   51 1   
    52   27   31 1   
    53   27   52 1   
    54   27   53 1   
    55   28   30 1   
    56   28   31 1   
    57   29   30 1   
    58   29   54 1   
    59   29   55 1   
    60   30   56 1   
    61   30   57 1   
@<TRIPOS>SUBSTRUCTURE
     1 964         1 TEMP              0 ****  ****    0 ROOT
