@<TRIPOS>MOLECULE
964
   57    58     1     0     0
SMALL
bcc


@<TRIPOS>ATOM
      1 O31        -0.3330   -2.1810   -5.4650 o         1 964     -0.798800
      2 C1          3.6240   -0.7830    9.9820 c3        1 964     -0.176100
      3 C2          2.1340   -0.7860    9.7390 c         1 964      0.653100
      4 N4          1.6760   -0.1180    8.6170 n         1 964     -0.570900
      5 O3          1.3470   -1.3350   10.5360 o         1 964     -0.606100
      6 C29        -0.5480   -1.3500   -6.3910 c         1 964      0.825100
      7 O30        -1.6570   -0.8780   -6.7250 o         1 964     -0.798800
      8 C24         0.7000   -0.8510   -7.1600 ca        1 964      0.301500
      9 N25         0.9770   -1.4020   -8.3640 nb        1 964     -0.628000
     10 C26         2.0770   -0.9580   -9.0020 ca        1 964      0.280900
     11 C27         2.9210    0.0340   -8.4500 ca        1 964      0.230900
     12 N28         2.6640    0.5980   -7.2530 nb        1 964     -0.611000
     13 C22         1.5540    0.1640   -6.6130 ca        1 964      0.239500
     14 C21         1.2200    0.8080   -5.2900 c         1 964      0.579600
     15 O23         1.0860    2.0420   -5.1810 o         1 964     -0.606100
     16 N20         1.1590   -0.0560   -4.2040 n         1 964     -0.533900
     17 C17         0.5060    0.3790   -2.9820 c3        1 964      0.095700
     18 C18        -1.0300    0.3550   -3.0770 c3        1 964     -0.101400
     19 C19        -1.6680    0.8070   -1.7840 c3        1 964     -0.063900
     20 C16         0.9540   -0.4930   -1.7960 c3        1 964     -0.101400
     21 C15         0.3110   -0.0220   -0.5100 c3        1 964     -0.063900
     22 C13        -1.2070   -0.0600   -0.6210 c3        1 964     -0.133700
     23 C12        -1.8290    0.4180    0.6840 c         1 964      0.655100
     24 O14        -2.3670    1.5330    0.8190 o         1 964     -0.605100
     25 N11        -1.7990   -0.4750    1.7510 n         1 964     -0.576900
     26 C10        -2.2360   -0.1070    3.0640 c3        1 964      0.096000
     27 C9         -1.2120    0.6720    3.8850 c3        1 964     -0.057300
     28 S7         -1.6890   -0.9200    6.5160 ss        1 964     -0.168100
     29 C5          0.2970   -0.1190    8.2200 c3        1 964      0.088000
     30 C6         -0.0530   -1.1290    7.1330 c3        1 964     -0.055300
     31 S8         -1.7180    0.9520    5.5460 ss        1 964     -0.163100
     32 H11A        3.8340   -1.3380   10.9280 hc        1 964      0.065033
     33 H12         4.1590   -1.2850    9.1400 hc        1 964      0.065033
     34 H13A        4.0020    0.2620   10.0820 hc        1 964      0.065033
     35 H4          2.3390    0.1930    7.9480 hn        1 964      0.304500
     36 H26         2.2930   -1.4100   -9.9830 h4        1 964      0.009100
     37 H27         3.8220    0.3860   -8.9750 h4        1 964      0.010100
     38 H20         1.0070   -1.0280   -4.4250 hn        1 964      0.342500
     39 H17         0.8290    1.4460   -2.7870 h1        1 964      0.066700
     40 H181       -1.3740   -0.6800   -3.3490 hc        1 964      0.064450
     41 H182       -1.3550    1.0390   -3.9070 hc        1 964      0.064450
     42 H191       -2.7840    0.7480   -1.8710 hc        1 964      0.043700
     43 H192       -1.4070    1.8780   -1.5730 hc        1 964      0.043700
     44 H161        0.6750   -1.5620   -1.9880 hc        1 964      0.064450
     45 H162        2.0690   -0.4440   -1.6890 hc        1 964      0.064450
     46 H151        0.6410    1.0260   -0.2820 hc        1 964      0.043700
     47 H152        0.6520   -0.6780    0.3330 hc        1 964      0.043700
     48 H13        -1.5340   -1.1200   -0.8210 hc        1 964      0.074700
     49 H11        -1.2230   -1.2780    1.6720 hn        1 964      0.303500
     50 H101       -2.5040   -1.0520    3.6220 h1        1 964      0.069700
     51 H102       -3.1660    0.5270    2.9640 h1        1 964      0.069700
     52 H91        -1.1050    1.7100    3.4670 h1        1 964      0.086700
     53 H92        -0.2100    0.1810    3.8520 h1        1 964      0.086700
     54 H51        -0.3390   -0.3270    9.1300 h1        1 964      0.077700
     55 H52         0.0460    0.9150    7.8390 h1        1 964      0.077700
     56 H61         0.6910   -1.0980    6.3000 h1        1 964      0.081200
     57 H62        -0.0610   -2.1690    7.5530 h1        1 964      0.081200
@<TRIPOS>BOND
     1    1    6 1   
     2    2    3 1   
     3    2   32 1   
     4    2   33 1   
     5    2   34 1   
     6    3    4 1   
     7    3    5 2   
     8    4   29 1   
     9    4   35 1   
    10    6    7 1   
    11    6    8 1   
    12    8    9 ar  
    13    8   13 ar  
    14    9   10 ar  
    15   10   11 ar  
    16   10   36 1   
    17   11   12 ar  
    18   11   37 1   
    19   12   13 ar  
    20   13   14 1   
    21   14   15 2   
    22   14   16 1   
    23   16   17 1   
    24   16   38 1   
    25   17   18 1   
    26   17   20 1   
    27   17   39 1   
    28   18   19 1   
    29   18   40 1   
    30   18   41 1   
    31   19   22 1   
    32   19   42 1   
    33   19   43 1   
    34   20   21 1   
    35   20   44 1   
    36   20   45 1   
    37   21   22 1   
    38   21   46 1   
    39   21   47 1   
    40   22   23 1   
    41   22   48 1   
    42   23   24 2   
    43   23   25 1   
    44   25   26 1   
    45   25   49 1   
    46   26   27 1   
    47   26   50 1   
    48   26   51 1   
    49   27   31 1   
    50   27   52 1   
    51   27   53 1   
    52   28   30 1   
    53   28   31 1   
    54   29   30 1   
    55   29   54 1   
    56   29   55 1   
    57   30   56 1   
    58   30   57 1   
@<TRIPOS>SUBSTRUCTURE
     1 964         1 TEMP              0 ****  ****    0 ROOT
