@<TRIPOS>MOLECULE
965
   71    66     1     0     0
SMALL
bcc


@<TRIPOS>ATOM
      1 O37        -1.2650   -6.2600   -6.9150 o         1 965     -0.571500
      2 C35        -1.0460   -5.1160   -6.5190 c2        1 965      0.340000
      3 O36         0.0400   -4.8440   -5.9920 o         1 965     -0.571500
      4 C34        -2.1600   -4.0760   -6.5480 c3        1 965     -0.219000
      5 C32        -2.7710   -3.9300   -5.1240 c2        1 965      0.023000
      6 C31        -3.6520   -4.9190   -4.6340 c1        1 965     -0.146000
      7 C30        -4.3050   -4.7340   -3.3900 c1        1 965     -0.139667
      8 C29        -4.0790   -3.5710   -2.6440 c1        1 965     -0.139667
      9 C28        -3.2020   -2.5830   -3.1290 c1        1 965      0.049000
     10 O27        -2.9740   -1.3950   -2.3660 os        1 965     -0.230000
     11 C26        -2.1360   -1.5940   -1.2180 c3        1 965     -0.019000
     12 C25        -1.8130   -0.2690   -0.5920 c3        1 965     -0.196000
     13 C17        -0.4840   -0.3940    0.2350 c3        1 965     -0.061000
     14 N09        -0.0050    0.9210    0.5800 n3        1 965     -0.277000
     15 C16         0.0490    1.7370   -0.5980 c3        1 965     -0.032000
     16 C18        -0.3720    3.2000   -0.2410 c2        1 965     -0.062000
     17 C23        -1.6600    3.4610    0.2630 c2        1 965     -0.064000
     18 C22        -2.0680    4.7770    0.4800 c1        1 965     -0.135000
     19 C21        -1.1940    5.8380    0.1960 c1        1 965     -0.083000
     20 C20         0.0930    5.5750   -0.3070 c1        1 965     -0.163000
     21 C19         0.5010    4.2670   -0.5240 c1        1 965     -0.013000
     22 CL4         2.0650    3.9500   -1.1960 cl        1 965      0.004000
     23 C39         1.0890    6.7380   -0.5180 c3        1 965      0.472000
     24 F41         1.2950    7.3640    0.6450 f         1 965     -0.167000
     25 F40         2.2880    6.2390   -0.9910 f         1 965     -0.167000
     26 F42         0.5750    7.6160   -1.4200 f         1 965     -0.167000
     27 C08         1.3360    0.8130    1.1630 c3        1 965     -0.050000
     28 C07         1.2720   -0.0370    2.4660 c3        1 965     -0.034000
     29 C01         2.3550   -1.1710    2.4080 c2        1 965     -0.056000
     30 C02         2.5180   -1.9280    1.2420 c2        1 965     -0.128500
     31 C03         3.4850   -2.9410    1.1940 c1        1 965     -0.130000
     32 C04         4.2870   -3.1960    2.3120 c1        1 965     -0.139667
     33 C05         4.1230   -2.4450    3.4680 c1        1 965     -0.139667
     34 C06         3.1470   -1.4230    3.5140 c1        1 965     -0.121000
     35 C10         1.5450    0.8890    3.7080 c2        1 965     -0.056000
     36 C15         2.7530    1.5940    3.8080 c2        1 965     -0.128500
     37 C14         2.9910    2.4280    4.9180 c1        1 965     -0.130000
     38 C13         2.0200    2.5520    5.9220 c1        1 965     -0.139667
     39 C12         0.8130    1.8470    5.8220 c1        1 965     -0.139667
     40 C11         0.5740    1.0140    4.7150 c1        1 965     -0.121000
     41 C33        -2.5450   -2.7660   -4.3780 c2        1 965     -0.215000
     42 H341       -1.7910   -3.2030   -6.8440 hc        1 965      0.077500
     43 H342       -2.8510   -4.3610   -7.1660 hc        1 965      0.077500
     44 H31        -3.9230   -5.7060   -5.2410 ha        1 965      0.184000
     45 H30        -4.9540   -5.4030   -3.0730 ha        1 965      0.124667
     46 H29        -4.6490   -3.3820   -1.8140 ha        1 965      0.124667
     47 H261       -2.6020   -2.1560   -0.5670 h1        1 965      0.090000
     48 H262       -1.3150   -2.0290   -1.4890 h1        1 965      0.090000
     49 H251       -1.7020    0.3950   -1.2820 hc        1 965      0.097500
     50 H252       -2.5630    0.0050    0.0180 hc        1 965      0.097500
     51 H171       -0.6580   -0.9070    1.0620 h1        1 965      0.074000
     52 H172        0.2330   -0.8860   -0.3330 h1        1 965      0.074000
     53 H161        0.9690    1.7390   -0.9540 h1        1 965      0.099500
     54 H162       -0.5480    1.3850   -1.2580 h1        1 965      0.099500
     55 H23        -2.2890    2.6950    0.4670 ha        1 965      0.161000
     56 H22        -2.9780    4.9630    0.8210 ha        1 965      0.145000
     57 H21        -1.4880    6.7890    0.3530 ha        1 965      0.151000
     58 H081        1.6650    1.6870    1.3680 h1        1 965      0.081000
     59 H082        1.9410    0.3790    0.5170 h1        1 965      0.081000
     60 H07         0.3660   -0.4480    2.5510 hc        1 965      0.108000
     61 H02         1.9750   -1.7550    0.4830 ha        1 965      0.134000
     62 H03         3.6080   -3.4870    0.3470 ha        1 965      0.130500
     63 H04         4.9770   -3.9200    2.2780 ha        1 965      0.124667
     64 H05         4.6540   -2.6560    4.2720 ha        1 965      0.124667
     65 H06         3.0340   -0.9040    4.3130 ha        1 965      0.137000
     66 H15         3.4610    1.5030    3.0750 ha        1 965      0.134000
     67 H14         3.8510    2.9310    4.9900 ha        1 965      0.130500
     68 H13         2.1900    3.1470    6.7130 ha        1 965      0.124667
     69 H12         0.1430    1.8790    6.5850 ha        1 965      0.124667
     70 H111       -0.2270    0.4520    4.6920 ha        1 965      0.137000
     71 H33        -2.0080   -1.9760   -4.7000 ha        1 965      0.124000
@<TRIPOS>BOND
     1    1    2 1   
     2    2    3 1   
     3    2    4 1   
     4    4    5 1   
     5    4   42 1   
     6    4   43 1   
     7    5    6 1   
     8    5   41 1   
     9    6   44 1   
    10    7    8 1   
    11    7   45 1   
    12    8   46 1   
    13    9   10 1   
    14    9   41 1   
    15   10   11 1   
    16   11   12 1   
    17   11   47 1   
    18   11   48 1   
    19   12   13 1   
    20   12   49 1   
    21   12   50 1   
    22   13   14 1   
    23   13   51 1   
    24   13   52 1   
    25   14   15 1   
    26   14   27 1   
    27   15   16 1   
    28   15   53 1   
    29   15   54 1   
    30   16   17 1   
    31   16   21 1   
    32   17   18 1   
    33   17   55 1   
    34   18   56 1   
    35   19   20 1   
    36   19   57 1   
    37   20   23 1   
    38   21   22 1   
    39   23   24 1   
    40   23   25 1   
    41   23   26 1   
    42   27   28 1   
    43   27   58 1   
    44   27   59 1   
    45   28   29 1   
    46   28   35 1   
    47   28   60 1   
    48   29   30 1   
    49   29   34 1   
    50   30   31 1   
    51   30   61 1   
    52   31   62 1   
    53   32   33 1   
    54   32   63 1   
    55   33   64 1   
    56   34   65 1   
    57   35   36 1   
    58   35   40 1   
    59   36   37 1   
    60   36   66 1   
    61   37   67 1   
    62   38   39 1   
    63   38   68 1   
    64   39   69 1   
    65   40   70 1   
    66   41   71 1   
@<TRIPOS>SUBSTRUCTURE
     1 965         1 TEMP              0 ****  ****    0 ROOT
