@<TRIPOS>MOLECULE
965
   71    74     1     0     0
SMALL
bcc


@<TRIPOS>ATOM
      1 O37         9.0320    0.8980    2.3570 o         1 965     -0.838800
      2 C35         9.2290    0.6110    1.1450 c         1 965      0.918600
      3 O36        10.0190    1.2350    0.3800 o         1 965     -0.838800
      4 C34         8.4840   -0.6220    0.5740 c3        1 965     -0.180100
      5 C32         7.4920   -0.2750   -0.4680 ca        1 965      0.007700
      6 C31         7.8500    0.5780   -1.5280 ca        1 965     -0.139000
      7 C30         6.9340    0.8890   -2.5250 ca        1 965     -0.121000
      8 C29         5.6390    0.3660   -2.4940 ca        1 965     -0.218000
      9 C28         5.2820   -0.4690   -1.4320 ca        1 965      0.087100
     10 O27         4.0310   -1.0780   -1.3440 os        1 965     -0.347900
     11 C26         2.9500   -0.2650   -1.8060 c3        1 965      0.132400
     12 C25         1.7100   -0.7490   -1.0710 c3        1 965     -0.092400
     13 C17         0.4910    0.0150   -1.5810 c3        1 965      0.170800
     14 N09        -0.7250   -0.2800   -0.8300 n3        1 965     -0.738600
     15 C16        -1.3210   -1.5510   -1.2240 c3        1 965      0.210100
     16 C18        -2.1810   -2.1550   -0.1470 ca        1 965     -0.077300
     17 C23        -1.5660   -2.5020    1.0630 ca        1 965     -0.060000
     18 C22        -2.2940   -3.1070    2.0820 ca        1 965     -0.134000
     19 C21        -3.6490   -3.3740    1.9030 ca        1 965     -0.081000
     20 C20        -4.2830   -3.0320    0.7060 ca        1 965     -0.171300
     21 C19        -3.5500   -2.4150   -0.3220 ca        1 965      0.061400
     22 CL4        -4.3210   -1.9790   -1.7750 cl        1 965     -0.075400
     23 C39        -5.7710   -3.3470    0.5690 c3        1 965      0.693200
     24 F41        -6.3250   -3.9580    1.6710 f         1 965     -0.237633
     25 F40        -6.5810   -2.2550    0.3760 f         1 965     -0.237633
     26 F42        -6.0920   -4.2020   -0.4570 f         1 965     -0.237633
     27 C08        -1.6860    0.8140   -0.8390 c3        1 965      0.178800
     28 C07        -1.3200    1.9660    0.1230 c3        1 965      0.021900
     29 C01        -2.0220    3.2280   -0.2820 ca        1 965     -0.066800
     30 C02        -1.3570    4.4530   -0.1290 ca        1 965     -0.122000
     31 C03        -1.9760    5.6450   -0.4980 ca        1 965     -0.131000
     32 C04        -3.2670    5.6300   -1.0260 ca        1 965     -0.135000
     33 C05        -3.9360    4.4160   -1.1810 ca        1 965     -0.131000
     34 C06        -3.3180    3.2220   -0.8120 ca        1 965     -0.122000
     35 C10        -1.6280    1.6000    1.5440 ca        1 965     -0.066800
     36 C15        -2.9480    1.4880    1.9950 ca        1 965     -0.122000
     37 C14        -3.2150    1.1500    3.3200 ca        1 965     -0.131000
     38 C13        -2.1650    0.9180    4.2090 ca        1 965     -0.135000
     39 C12        -0.8470    1.0240    3.7660 ca        1 965     -0.131000
     40 C11        -0.5780    1.3630    2.4400 ca        1 965     -0.122000
     41 C33         6.1940   -0.7930   -0.4170 ca        1 965     -0.165000
     42 H341        9.2590   -1.2960    0.1240 hc        1 965      0.040700
     43 H342        7.9930   -1.1660    1.4210 hc        1 965      0.040700
     44 H31         8.8670    1.0160   -1.5160 ha        1 965      0.189000
     45 H30         7.2250    1.5590   -3.3470 ha        1 965      0.114000
     46 H29         4.9190    0.6090   -3.2850 ha        1 965      0.113000
     47 H261        3.1450    0.8190   -1.5970 h1        1 965      0.034200
     48 H262        2.8430   -0.4130   -2.9140 h1        1 965      0.034200
     49 H251        1.5920   -1.8510   -1.2330 hc        1 965      0.059200
     50 H252        1.8460   -0.5880    0.0300 hc        1 965      0.059200
     51 H171        0.7070    1.1180   -1.4920 h1        1 965      0.034200
     52 H172        0.3570   -0.2070   -2.6810 h1        1 965      0.034200
     53 H161       -1.9100   -1.4500   -2.1830 h1        1 965      0.052700
     54 H162       -0.4840   -2.2830   -1.4260 h1        1 965      0.052700
     55 H23        -0.4940   -2.2790    1.2010 ha        1 965      0.165000
     56 H22        -1.8030   -3.3700    3.0310 ha        1 965      0.148000
     57 H21        -4.2260   -3.8550    2.7100 ha        1 965      0.153000
     58 H081       -1.8000    1.2490   -1.8760 h1        1 965      0.040200
     59 H082       -2.6890    0.4040   -0.5270 h1        1 965      0.040200
     60 H07        -0.2090    2.1610    0.0470 hc        1 965      0.071700
     61 H02        -0.3380    4.4730    0.2870 ha        1 965      0.135000
     62 H03        -1.4440    6.5990   -0.3720 ha        1 965      0.129500
     63 H04        -3.7560    6.5700   -1.3170 ha        1 965      0.126500
     64 H05        -4.9540    4.3980   -1.5970 ha        1 965      0.129500
     65 H06        -3.8580    2.2720   -0.9400 ha        1 965      0.135000
     66 H15        -3.7790    1.6780    1.2980 ha        1 965      0.135000
     67 H14        -4.2560    1.0670    3.6640 ha        1 965      0.129500
     68 H13        -2.3760    0.6540    5.2550 ha        1 965      0.126500
     69 H12        -0.0150    0.8430    4.4620 ha        1 965      0.129500
     70 H111        0.4660    1.4390    2.0980 ha        1 965      0.135000
     71 H33         5.8800   -1.4480    0.4070 ha        1 965      0.137000
@<TRIPOS>BOND
     1    1    2 1   
     2    2    3 1   
     3    2    4 1   
     4    4    5 1   
     5    4   42 1   
     6    4   43 1   
     7    5    6 ar  
     8    5   41 ar  
     9    6    7 ar  
    10    6   44 1   
    11    7    8 ar  
    12    7   45 1   
    13    8    9 ar  
    14    8   46 1   
    15    9   10 1   
    16    9   41 ar  
    17   10   11 1   
    18   11   12 1   
    19   11   47 1   
    20   11   48 1   
    21   12   13 1   
    22   12   49 1   
    23   12   50 1   
    24   13   14 1   
    25   13   51 1   
    26   13   52 1   
    27   14   15 1   
    28   14   27 1   
    29   15   16 1   
    30   15   53 1   
    31   15   54 1   
    32   16   17 ar  
    33   16   21 ar  
    34   17   18 ar  
    35   17   55 1   
    36   18   19 ar  
    37   18   56 1   
    38   19   20 ar  
    39   19   57 1   
    40   20   21 ar  
    41   20   23 1   
    42   21   22 1   
    43   23   24 1   
    44   23   25 1   
    45   23   26 1   
    46   27   28 1   
    47   27   58 1   
    48   27   59 1   
    49   28   29 1   
    50   28   35 1   
    51   28   60 1   
    52   29   30 ar  
    53   29   34 ar  
    54   30   31 ar  
    55   30   61 1   
    56   31   32 ar  
    57   31   62 1   
    58   32   33 ar  
    59   32   63 1   
    60   33   34 ar  
    61   33   64 1   
    62   34   65 1   
    63   35   36 ar  
    64   35   40 ar  
    65   36   37 ar  
    66   36   66 1   
    67   37   38 ar  
    68   37   67 1   
    69   38   39 ar  
    70   38   68 1   
    71   39   40 ar  
    72   39   69 1   
    73   40   70 1   
    74   41   71 1   
@<TRIPOS>SUBSTRUCTURE
     1 965         1 TEMP              0 ****  ****    0 ROOT
