@<TRIPOS>MOLECULE
965
   71    74     1     0     0
SMALL
bcc


@<TRIPOS>ATOM
      1 O37         1.8940   -1.5620    0.9880 o         1 965     -0.838800
      2 C35         1.9650   -0.3040    1.0870 c         1 965      0.918600
      3 O36         1.6490    0.3500    2.1180 o         1 965     -0.838800
      4 C34         2.4250    0.5000   -0.1540 c3        1 965     -0.180100
      5 C32         3.8440    0.2660   -0.5100 ca        1 965      0.007700
      6 C31         4.3410   -1.0470   -0.6020 ca        1 965     -0.139000
      7 C30         5.6630   -1.2790   -0.9600 ca        1 965     -0.121000
      8 C29         6.5260   -0.2140   -1.2330 ca        1 965     -0.218000
      9 C28         6.0330    1.0890   -1.1270 ca        1 965      0.087100
     10 O27         6.8040    2.2090   -1.4290 os        1 965     -0.347900
     11 C26         8.1770    2.0970   -1.0470 c3        1 965      0.133400
     12 C25         8.6740    3.5170   -0.8290 c3        1 965     -0.092400
     13 C17        10.1660    3.4840   -0.5050 c3        1 965      0.170800
     14 N09        10.7010    4.7910   -0.1380 n3        1 965     -0.738600
     15 C16        10.9440    5.6340   -1.3020 c3        1 965      0.210100
     16 C18        10.9310    7.1030   -0.9770 ca        1 965     -0.077300
     17 C23         9.7410    7.6520   -0.4810 ca        1 965     -0.060000
     18 C22         9.6480    9.0120   -0.2030 ca        1 965     -0.134000
     19 C21        10.7450    9.8420   -0.4200 ca        1 965     -0.081000
     20 C20        11.9420    9.3130   -0.9100 ca        1 965     -0.171300
     21 C19        12.0400    7.9390   -1.1830 ca        1 965      0.061400
     22 CL4        13.5020    7.2870   -1.7630 cl        1 965     -0.075400
     23 C39        13.1110   10.2720   -1.1240 c3        1 965      0.693200
     24 F41        12.8360   11.5830   -0.8100 f         1 965     -0.237633
     25 F40        14.2310    9.9990   -0.3770 f         1 965     -0.237633
     26 F42        13.5690   10.3500   -2.4170 f         1 965     -0.237633
     27 C08        11.8570    4.7120    0.7450 c3        1 965      0.178800
     28 C07        11.4930    4.4000    2.2130 c3        1 965      0.021900
     29 C01        12.6820    3.8440    2.9390 ca        1 965     -0.066800
     30 C02        12.4820    2.8470    3.9050 ca        1 965     -0.122000
     31 C03        13.5630    2.3050    4.5960 ca        1 965     -0.131000
     32 C04        14.8580    2.7500    4.3320 ca        1 965     -0.135000
     33 C05        15.0660    3.7400    3.3740 ca        1 965     -0.131000
     34 C06        13.9850    4.2850    2.6810 ca        1 965     -0.122000
     35 C10        10.9490    5.6150    2.9030 ca        1 965     -0.066800
     36 C15        11.7740    6.7020    3.2170 ca        1 965     -0.122000
     37 C14        11.2510    7.8210    3.8610 ca        1 965     -0.131000
     38 C13         9.8980    7.8670    4.1970 ca        1 965     -0.135000
     39 C12         9.0700    6.7900    3.8850 ca        1 965     -0.131000
     40 C11         9.5910    5.6680    3.2410 ca        1 965     -0.122000
     41 C33         4.7010    1.3400   -0.7660 ca        1 965     -0.165000
     42 H341        1.7800    0.1780   -1.0140 hc        1 965      0.040700
     43 H342        2.2420    1.5880    0.0370 hc        1 965      0.040700
     44 H31         3.6550   -1.8770   -0.3430 ha        1 965      0.189000
     45 H30         6.0400   -2.3090   -1.0250 ha        1 965      0.114000
     46 H29         7.5680   -0.3990   -1.5200 ha        1 965      0.113000
     47 H261        8.2840    1.4850   -0.1140 h1        1 965      0.034200
     48 H262        8.7370    1.5990   -1.8820 h1        1 965      0.034200
     49 H251        8.4760    4.1230   -1.7500 hc        1 965      0.059200
     50 H252        8.0980    3.9880    0.0090 hc        1 965      0.059200
     51 H171       10.7200    3.0480   -1.3880 h1        1 965      0.034200
     52 H172       10.3210    2.7780    0.3610 h1        1 965      0.034200
     53 H161       10.1110    5.4540   -2.0450 h1        1 965      0.052700
     54 H162       11.9110    5.3570   -1.8170 h1        1 965      0.052700
     55 H23         8.8790    6.9870   -0.3030 ha        1 965      0.165000
     56 H22         8.7100    9.4330    0.1910 ha        1 965      0.148000
     57 H21        10.6710   10.9200   -0.2020 ha        1 965      0.153000
     58 H081       12.3880    5.7070    0.7200 h1        1 965      0.040200
     59 H082       12.5870    3.9240    0.3920 h1        1 965      0.040200
     60 H07        10.6900    3.6040    2.2260 hc        1 965      0.071700
     61 H02        11.4620    2.4910    4.1190 ha        1 965      0.135000
     62 H03        13.3920    1.5240    5.3520 ha        1 965      0.129500
     63 H04        15.7110    2.3210    4.8780 ha        1 965      0.126500
     64 H05        16.0850    4.0950    3.1610 ha        1 965      0.129500
     65 H06        14.1650    5.0670    1.9270 ha        1 965      0.135000
     66 H15        12.8430    6.6650    2.9590 ha        1 965      0.135000
     67 H14        11.9080    8.6680    4.1040 ha        1 965      0.129500
     68 H13         9.4860    8.7490    4.7080 ha        1 965      0.126500
     69 H12         8.0020    6.8200    4.1480 ha        1 965      0.129500
     70 H111        8.9280    4.8250    2.9930 ha        1 965      0.135000
     71 H33         4.3460    2.3760   -0.6860 ha        1 965      0.137000
@<TRIPOS>BOND
     1    1    2 1   
     2    2    3 1   
     3    2    4 1   
     4    4    5 1   
     5    4   42 1   
     6    4   43 1   
     7    5    6 ar  
     8    5   41 ar  
     9    6    7 ar  
    10    6   44 1   
    11    7    8 ar  
    12    7   45 1   
    13    8    9 ar  
    14    8   46 1   
    15    9   10 1   
    16    9   41 ar  
    17   10   11 1   
    18   11   12 1   
    19   11   47 1   
    20   11   48 1   
    21   12   13 1   
    22   12   49 1   
    23   12   50 1   
    24   13   14 1   
    25   13   51 1   
    26   13   52 1   
    27   14   15 1   
    28   14   27 1   
    29   15   16 1   
    30   15   53 1   
    31   15   54 1   
    32   16   17 ar  
    33   16   21 ar  
    34   17   18 ar  
    35   17   55 1   
    36   18   19 ar  
    37   18   56 1   
    38   19   20 ar  
    39   19   57 1   
    40   20   21 ar  
    41   20   23 1   
    42   21   22 1   
    43   23   24 1   
    44   23   25 1   
    45   23   26 1   
    46   27   28 1   
    47   27   58 1   
    48   27   59 1   
    49   28   29 1   
    50   28   35 1   
    51   28   60 1   
    52   29   30 ar  
    53   29   34 ar  
    54   30   31 ar  
    55   30   61 1   
    56   31   32 ar  
    57   31   62 1   
    58   32   33 ar  
    59   32   63 1   
    60   33   34 ar  
    61   33   64 1   
    62   34   65 1   
    63   35   36 ar  
    64   35   40 ar  
    65   36   37 ar  
    66   36   66 1   
    67   37   38 ar  
    68   37   67 1   
    69   38   39 ar  
    70   38   68 1   
    71   39   40 ar  
    72   39   69 1   
    73   40   70 1   
    74   41   71 1   
@<TRIPOS>SUBSTRUCTURE
     1 965         1 TEMP              0 ****  ****    0 ROOT
