@<TRIPOS>MOLECULE
968
   37    33     1     0     0
SMALL
bcc


@<TRIPOS>ATOM
      1 O21        -3.4900   -0.2110    1.0240 o         1 968     -0.544500
      2 C20        -2.6810   -1.1520    0.8050 c2        1 968      0.361000
      3 O22        -2.5480   -2.0770    1.6490 o         1 968     -0.544500
      4 C18        -1.8980   -1.1900   -0.4880 c2        1 968      0.255000
      5 O23        -2.4370   -1.5550   -1.5130 o         1 968     -0.397000
      6 N17        -0.5460   -0.7610   -0.5120 n         1 968     -0.271000
      7 C19         0.1770   -0.7590   -1.7330 c2        1 968      0.105000
      8 C24         0.6240    0.4380   -2.2710 c1        1 968     -0.146000
      9 C25         1.2850    0.4460   -3.4900 c1        1 968     -0.154500
     10 C26         1.4980   -0.7420   -4.1700 c1        1 968     -0.154500
     11 C27         1.0510   -1.9390   -3.6320 c1        1 968     -0.116000
     12 C28         0.3900   -1.9470   -2.4130 c2        1 968     -0.086000
     13 C33        -0.0470   -3.2580   -1.7990 c2        1 968      0.358000
     14 O34        -1.2630   -3.5850   -1.8130 o         1 968     -0.571500
     15 O35         0.8100   -4.0420   -1.3120 o         1 968     -0.571500
     16 C13         0.0840   -0.3340    0.6870 c2        1 968      0.099000
     17 C12         0.9220   -1.3260    1.1790 c2        1 968     -0.087000
     18 C11         1.6630   -1.1000    2.3350 c1        1 968     -0.104000
     19 C10         1.5660    0.1170    2.9970 c1        1 968     -0.153000
     20 C3          0.7160    1.1230    2.4990 c1        1 968     -0.056000
     21 C2          0.5960    2.3470    3.1830 c1        1 968     -0.154500
     22 C1         -0.2610    3.3290    2.7050 c1        1 968     -0.154500
     23 C6         -1.0020    3.1030    1.5490 c1        1 968      0.036000
     24 O36        -1.6750    4.2890    1.2080 oh        1 968     -0.292000
     25 C5         -0.8850    1.8960    0.8730 c1        1 968     -0.137000
     26 C4         -0.0160    0.9000    1.3570 c1        1 968      0.002000
     27 H24         0.4540    1.2770   -1.8040 ha        1 968      0.130000
     28 H25         1.5980    1.2890   -3.8700 ha        1 968      0.100500
     29 H26         1.9840   -0.7400   -5.0150 ha        1 968      0.100500
     30 H27         1.1770   -2.7720   -4.1230 ha        1 968      0.125000
     31 H12         0.9910   -2.1810    0.7140 ha        1 968      0.201000
     32 H11         2.2520   -1.7980    2.6810 ha        1 968      0.118000
     33 H10         2.0870    0.2750    3.8100 ha        1 968      0.100000
     34 H2          1.1160    2.5050    3.9940 ha        1 968      0.100500
     35 H1         -0.3600    4.1690    3.1920 ha        1 968      0.100500
     36 H36        -2.5270    4.2280    1.4530 ho        1 968      0.224000
     37 H5         -1.4050    1.7380    0.0620 ha        1 968      0.178000
@<TRIPOS>BOND
     1    1    2 1   
     2    2    3 1   
     3    2    4 1   
     4    4    5 1   
     5    4    6 1   
     6    6    7 1   
     7    6   16 1   
     8    7    8 1   
     9    7   12 1   
    10    8   27 1   
    11    9   10 1   
    12    9   28 1   
    13   10   29 1   
    14   11   12 1   
    15   11   30 1   
    16   12   13 1   
    17   13   14 1   
    18   13   15 1   
    19   16   17 1   
    20   16   26 1   
    21   17   18 1   
    22   17   31 1   
    23   18   32 1   
    24   19   20 1   
    25   19   33 1   
    26   20   26 1   
    27   21   22 1   
    28   21   34 1   
    29   22   35 1   
    30   23   24 1   
    31   23   25 1   
    32   24   36 1   
    33   25   37 1   
@<TRIPOS>SUBSTRUCTURE
     1 968         1 TEMP              0 ****  ****    0 ROOT
