@<TRIPOS>MOLECULE
968
   38    40     1     0     0
SMALL
bcc


@<TRIPOS>ATOM
      1 O21         0.7210    1.6720   -1.4710 o         1 968     -0.727800
      2 C20         0.5110    0.5200   -1.0380 c         1 968      0.911600
      3 O22        -0.4830   -0.0000   -0.5130 o         1 968     -0.727800
      4 C18         1.7590   -0.4810   -1.1730 c         1 968      0.399100
      5 O23         1.7420   -1.6890   -1.2890 o         1 968     -0.440100
      6 N17         3.1220    0.2650   -1.1680 n4        1 968     -0.354000
      7 C19         3.7700    0.1840   -2.4870 ca        1 968     -0.007400
      8 C24         3.1260    0.9350   -3.5060 ca        1 968     -0.140000
      9 C25         3.6310    0.9400   -4.7950 ca        1 968     -0.153000
     10 C26         4.7830    0.2050   -5.0980 ca        1 968     -0.126000
     11 C27         5.4080   -0.5280   -4.1040 ca        1 968     -0.112000
     12 C28         4.9160   -0.5610   -2.7840 ca        1 968     -0.061600
     13 C33         5.7280   -1.4360   -1.8250 c         1 968      0.904200
     14 O34         6.8210   -0.9690   -1.4110 o         1 968     -0.803800
     15 O35         5.2810   -2.5870   -1.5690 o         1 968     -0.803800
     16 C13         3.9280   -0.0150    0.0180 ca        1 968     -0.011400
     17 C12         4.0540   -1.3150    0.4870 ca        1 968     -0.013000
     18 C11         4.7310   -1.5730    1.7020 ca        1 968     -0.120000
     19 C10         5.2770   -0.5470    2.4270 ca        1 968     -0.088000
     20 C3          5.1930    0.7920    1.9590 ca        1 968     -0.064000
     21 C2          5.7810    1.8480    2.7090 ca        1 968     -0.079000
     22 C1          5.7410    3.1440    2.2690 ca        1 968     -0.156000
     23 C6          5.1060    3.4220    1.0280 ca        1 968      0.138100
     24 O36         5.1180    4.7440    0.6390 oh        1 968     -0.506100
     25 C5          4.5210    2.4230    0.2730 ca        1 968     -0.223000
     26 C4          4.5380    1.0780    0.7320 ca        1 968      0.041000
     27 H24         2.2090    1.5120   -3.2760 ha        1 968      0.164000
     28 H25         3.1230    1.5210   -5.5770 ha        1 968      0.124000
     29 H26         5.1840    0.2130   -6.1210 ha        1 968      0.119000
     30 H27         6.3200   -1.1080   -4.3220 ha        1 968      0.149000
     31 H12         3.6670   -2.1760   -0.0960 ha        1 968      0.209000
     32 H11         4.8260   -2.6180    2.0300 ha        1 968      0.145000
     33 H10         5.8060   -0.7420    3.3720 ha        1 968      0.126000
     34 H2          6.2800    1.5980    3.6580 ha        1 968      0.129000
     35 H1          6.1910    3.9710    2.8340 ha        1 968      0.143000
     36 H36         4.6810    4.8050   -0.2230 ho        1 968      0.421000
     37 H5          4.0800    2.6920   -0.6980 ha        1 968      0.136000
     38 H171        2.8180    1.2550   -1.0810 hn        1 968      0.458800
@<TRIPOS>BOND
     1    1    2 1   
     2    2    3 1   
     3    2    4 1   
     4    4    5 2   
     5    4    6 1   
     6    6    7 1   
     7    6   16 1   
     8    6   38 1   
     9    7    8 ar  
    10    7   12 ar  
    11    8    9 ar  
    12    8   27 1   
    13    9   10 ar  
    14    9   28 1   
    15   10   11 ar  
    16   10   29 1   
    17   11   12 ar  
    18   11   30 1   
    19   12   13 1   
    20   13   14 1   
    21   13   15 1   
    22   16   17 ar  
    23   16   26 ar  
    24   17   18 ar  
    25   17   31 1   
    26   18   19 ar  
    27   18   32 1   
    28   19   20 ar  
    29   19   33 1   
    30   20   21 ar  
    31   20   26 ar  
    32   21   22 ar  
    33   21   34 1   
    34   22   23 ar  
    35   22   35 1   
    36   23   24 1   
    37   23   25 ar  
    38   24   36 1   
    39   25   26 ar  
    40   25   37 1   
@<TRIPOS>SUBSTRUCTURE
     1 968         1 TEMP              0 ****  ****    0 ROOT
