@<TRIPOS>MOLECULE
968
   37    39     1     0     0
SMALL
bcc


@<TRIPOS>ATOM
      1 O21        -0.8370    2.8200    1.6890 o         1 968     -0.809800
      2 C20        -1.5590    2.2750    0.8090 c         1 968      0.891600
      3 O22        -2.7990    2.1120    0.8590 o         1 968     -0.809800
      4 C18        -0.7940    1.8520   -0.4820 c         1 968      0.561100
      5 O23        -0.5770    2.6910   -1.3770 o         1 968     -0.636100
      6 N17        -0.2580    0.5530   -0.6080 n         1 968     -0.323200
      7 C19         0.8090    0.3030   -1.5200 ca        1 968      0.097600
      8 C24         1.9070    1.2050   -1.4860 ca        1 968     -0.146000
      9 C25         3.0070    1.0400   -2.3150 ca        1 968     -0.160000
     10 C26         3.0590   -0.0360   -3.1980 ca        1 968     -0.180000
     11 C27         1.9890   -0.9210   -3.2490 ca        1 968     -0.116000
     12 C28         0.8530   -0.7670   -2.4410 ca        1 968     -0.106600
     13 C33        -0.2330   -1.8060   -2.6870 c         1 968      0.909200
     14 O34        -1.3420   -1.4400   -3.1670 o         1 968     -0.836800
     15 O35         0.0600   -3.0200   -2.4730 o         1 968     -0.836800
     16 C13        -0.6110   -0.4840    0.3000 ca        1 968      0.091600
     17 C12        -1.5460   -1.4450   -0.0650 ca        1 968     -0.087000
     18 C11        -1.8360   -2.5340    0.7870 ca        1 968     -0.104000
     19 C10        -1.2030   -2.6750    1.9940 ca        1 968     -0.153000
     20 C3         -0.2750   -1.6930    2.4300 ca        1 968     -0.056000
     21 C2          0.3630   -1.8100    3.6960 ca        1 968     -0.121000
     22 C1          1.2020   -0.8310    4.1660 ca        1 968     -0.157000
     23 C6          1.4190    0.3210    3.3650 ca        1 968      0.081100
     24 O36         2.2330    1.2990    3.9110 oh        1 968     -0.538100
     25 C5          0.8530    0.4480    2.1120 ca        1 968     -0.137000
     26 C4          0.0030   -0.5710    1.6050 ca        1 968      0.002000
     27 H24         1.8700    2.0710   -0.8060 ha        1 968      0.130000
     28 H25         3.8350    1.7600   -2.2710 ha        1 968      0.093000
     29 H26         3.9320   -0.1800   -3.8470 ha        1 968      0.090000
     30 H27         2.0140   -1.7810   -3.9370 ha        1 968      0.125000
     31 H12        -2.0400   -1.3950   -1.0560 ha        1 968      0.201000
     32 H11        -2.5640   -3.2830    0.4420 ha        1 968      0.118000
     33 H10        -1.4030   -3.5380    2.6440 ha        1 968      0.100000
     34 H2          0.1590   -2.7040    4.3030 ha        1 968      0.104000
     35 H1          1.6940   -0.9040    5.1430 ha        1 968      0.115000
     36 H36         2.0450    2.1180    3.4270 ho        1 968      0.425000
     37 H5          0.9850    1.3800    1.5340 ha        1 968      0.178000
@<TRIPOS>BOND
     1    1    2 1   
     2    2    3 1   
     3    2    4 1   
     4    4    5 2   
     5    4    6 1   
     6    6    7 1   
     7    6   16 1   
     8    7    8 ar  
     9    7   12 ar  
    10    8    9 ar  
    11    8   27 1   
    12    9   10 ar  
    13    9   28 1   
    14   10   11 ar  
    15   10   29 1   
    16   11   12 ar  
    17   11   30 1   
    18   12   13 1   
    19   13   14 1   
    20   13   15 1   
    21   16   17 ar  
    22   16   26 ar  
    23   17   18 ar  
    24   17   31 1   
    25   18   19 ar  
    26   18   32 1   
    27   19   20 ar  
    28   19   33 1   
    29   20   21 ar  
    30   20   26 ar  
    31   21   22 ar  
    32   21   34 1   
    33   22   23 ar  
    34   22   35 1   
    35   23   24 1   
    36   23   25 ar  
    37   24   36 1   
    38   25   26 ar  
    39   25   37 1   
@<TRIPOS>SUBSTRUCTURE
     1 968         1 TEMP              0 ****  ****    0 ROOT
