@<TRIPOS>MOLECULE
96P
   61    63     1     0     0
SMALL
bcc


@<TRIPOS>ATOM
      1 F3         -6.5900    1.5830   -3.5800 f         1 96P     -0.235300
      2 C24        -6.7200    1.9430   -2.2590 c3        1 96P      0.689200
      3 F1         -5.8370    2.9830   -2.1070 f         1 96P     -0.235300
      4 F2         -7.9570    2.5380   -2.1980 f         1 96P     -0.235300
      5 C23        -6.5290    0.7890   -1.2810 ca        1 96P     -0.156300
      6 C22        -7.6060   -0.0560   -1.0020 ca        1 96P     -0.088000
      7 C21        -7.4390   -1.1240   -0.1210 ca        1 96P     -0.125000
      8 C20        -6.2050   -1.3540    0.4850 ca        1 96P     -0.103000
      9 C25        -5.2800    0.5810   -0.6930 ca        1 96P     -0.080000
     10 C19        -5.1330   -0.5000    0.1840 ca        1 96P      0.111100
     11 O12        -3.8980   -0.8620    0.7170 os        1 96P     -0.369200
     12 C1         -3.1670    0.1100    1.3970 c         1 96P      0.728100
     13 O1         -3.5140    1.2960    1.3320 o         1 96P     -0.556000
     14 N          -2.1350   -0.4510    2.1310 n         1 96P     -0.503900
     15 C2         -1.0490    0.3870    2.5660 c3        1 96P      0.078000
     16 C3          0.1460    0.4670    1.5940 c3        1 96P      0.106100
     17 O7          0.6670   -0.8690    1.4950 os        1 96P     -0.447900
     18 C12         1.2240   -1.2600    0.3010 c         1 96P      0.658700
     19 C13         1.8120   -2.6090    0.3360 ca        1 96P     -0.101600
     20 C18         2.3970   -3.0920   -0.8430 ca        1 96P     -0.128000
     21 C17         2.9670   -4.3660   -0.8500 ca        1 96P      0.094100
     22 O11         3.5640   -4.9260   -1.9590 oh        1 96P     -0.500600
     23 C16         2.9570   -5.1630    0.3120 ca        1 96P      0.055100
     24 O10         3.4970   -6.4260    0.3740 oh        1 96P     -0.507100
     25 C15         2.3650   -4.6600    1.4880 ca        1 96P      0.094100
     26 O9          2.3160   -5.3790    2.6560 oh        1 96P     -0.500600
     27 C14         1.7920   -3.3800    1.5000 ca        1 96P     -0.128000
     28 O8          1.1710   -0.4880   -0.6570 o         1 96P     -0.525000
     29 C4          1.2150    1.3790    2.1990 c3        1 96P      0.122400
     30 O2          2.1620    1.6020    1.1470 os        1 96P     -0.428900
     31 C5          3.1740    2.4890    1.4040 c         1 96P      0.654700
     32 O3          3.1910    3.0410    2.5090 o         1 96P     -0.545000
     33 C6          4.1150    2.6520    0.2860 ca        1 96P     -0.102600
     34 C11         3.9590    1.9210   -0.8940 ca        1 96P     -0.125000
     35 C10         4.8820    2.0960   -1.9350 ca        1 96P      0.090600
     36 O6          4.7000    1.3460   -3.0710 oh        1 96P     -0.500600
     37 C9          5.9510    3.0040   -1.7940 ca        1 96P      0.054100
     38 O5          6.8160    3.1240   -2.8560 oh        1 96P     -0.508100
     39 C8          6.0830    3.7330   -0.5950 ca        1 96P      0.090600
     40 O4          7.1530    4.6020   -0.5340 oh        1 96P     -0.500600
     41 C7          5.1710    3.5590    0.4470 ca        1 96P     -0.125000
     42 H1         -8.5840    0.1300   -1.4740 ha        1 96P      0.153000
     43 H2         -8.2880   -1.7880    0.1010 ha        1 96P      0.146000
     44 H3         -6.0590   -2.1930    1.1800 ha        1 96P      0.155000
     45 H4         -4.4370    1.2630   -0.8900 ha        1 96P      0.179000
     46 H5         -1.9010   -1.3980    1.9180 hn        1 96P      0.326500
     47 H6         -1.4320    1.4350    2.7310 h1        1 96P      0.087200
     48 H7         -0.6860   -0.0370    3.5460 h1        1 96P      0.087200
     49 H8         -0.1600    0.8440    0.5790 h1        1 96P      0.105700
     50 H9          2.4030   -2.4640   -1.7480 ha        1 96P      0.170000
     51 H10         3.5340   -4.2740   -2.6740 ho        1 96P      0.441500
     52 H11         3.8800   -6.6300   -0.4940 ho        1 96P      0.453000
     53 H12         2.7560   -6.2310    2.5050 ho        1 96P      0.441500
     54 H13         1.3390   -2.9970    2.4270 ha        1 96P      0.170000
     55 H14         0.7730    2.3570    2.5210 h1        1 96P      0.069200
     56 H15         1.7370    0.8900    3.0620 h1        1 96P      0.069200
     57 H16         3.1200    1.2120   -1.0180 ha        1 96P      0.177500
     58 H17         5.3720    1.6130   -3.7180 ho        1 96P      0.438500
     59 H18         7.4720    3.8040   -2.6320 ho        1 96P      0.452000
     60 H19         7.1200    5.0520    0.3230 ho        1 96P      0.438500
     61 H20         5.2710    4.1230    1.3870 ha        1 96P      0.177500
@<TRIPOS>BOND
     1    1    2 1   
     2    2    3 1   
     3    2    4 1   
     4    2    5 1   
     5    5    6 ar  
     6    5    9 ar  
     7    6    7 ar  
     8    6   42 1   
     9    7    8 ar  
    10    7   43 1   
    11    8   10 ar  
    12    8   44 1   
    13    9   10 ar  
    14    9   45 1   
    15   10   11 1   
    16   11   12 1   
    17   12   13 2   
    18   12   14 1   
    19   14   15 1   
    20   14   46 1   
    21   15   16 1   
    22   15   47 1   
    23   15   48 1   
    24   16   17 1   
    25   16   29 1   
    26   16   49 1   
    27   17   18 1   
    28   18   19 1   
    29   18   28 2   
    30   19   20 ar  
    31   19   27 ar  
    32   20   21 ar  
    33   20   50 1   
    34   21   22 1   
    35   21   23 ar  
    36   22   51 1   
    37   23   24 1   
    38   23   25 ar  
    39   24   52 1   
    40   25   26 1   
    41   25   27 ar  
    42   26   53 1   
    43   27   54 1   
    44   29   30 1   
    45   29   55 1   
    46   29   56 1   
    47   30   31 1   
    48   31   32 2   
    49   31   33 1   
    50   33   34 ar  
    51   33   41 ar  
    52   34   35 ar  
    53   34   57 1   
    54   35   36 1   
    55   35   37 ar  
    56   36   58 1   
    57   37   38 1   
    58   37   39 ar  
    59   38   59 1   
    60   39   40 1   
    61   39   41 ar  
    62   40   60 1   
    63   41   61 1   
@<TRIPOS>SUBSTRUCTURE
     1 96P         1 TEMP              0 ****  ****    0 ROOT
