@<TRIPOS>MOLECULE
96P
   62    64     1     0     0
SMALL
bcc


@<TRIPOS>ATOM
      1 F3          2.1230    0.7050    4.3600 f         1 96P     -0.222300
      2 C24         2.6480    0.9030    3.1080 c3        1 96P      0.690200
      3 F1          4.0020    1.0040    3.3130 f         1 96P     -0.222300
      4 F2          2.4790   -0.2940    2.4630 f         1 96P     -0.222300
      5 C23         2.0420    2.1000    2.3730 ca        1 96P     -0.153300
      6 C22         0.9130    1.9260    1.5690 ca        1 96P     -0.045000
      7 C21         0.3470    3.0200    0.9090 ca        1 96P     -0.113000
      8 C20         0.9030    4.2920    1.0450 ca        1 96P     -0.077000
      9 C25         2.6240    3.3600    2.5280 ca        1 96P     -0.062000
     10 C19         2.0310    4.4350    1.8610 ca        1 96P      0.046100
     11 O12         2.5090    5.7350    2.1350 os        1 96P     -0.316200
     12 C1          3.4820    6.2180    1.3140 c         1 96P      0.607100
     13 O1          3.9650    5.6610    0.3420 o         1 96P     -0.397000
     14 N           3.8930    7.5790    1.7620 n4        1 96P     -0.636800
     15 C2          5.3560    7.6320    2.0650 c3        1 96P      0.080800
     16 C3          5.8260    9.0440    2.4480 c3        1 96P      0.102100
     17 O7          6.1840    9.7800    1.2760 os        1 96P     -0.429900
     18 C12         5.2040   10.5330    0.6620 c         1 96P      0.696700
     19 C13         5.6950   11.5250   -0.2880 ca        1 96P     -0.133600
     20 C18         4.7530   12.3500   -0.9230 ca        1 96P     -0.116500
     21 C17         5.1970   13.3110   -1.8310 ca        1 96P      0.097100
     22 O11         4.3590   14.1660   -2.5110 oh        1 96P     -0.490100
     23 C16         6.5720   13.4550   -2.1150 ca        1 96P      0.088100
     24 O10         7.0750   14.3720   -2.9980 oh        1 96P     -0.492100
     25 C15         7.5030   12.6140   -1.4660 ca        1 96P      0.097100
     26 O9          8.8530   12.6900   -1.6900 oh        1 96P     -0.490100
     27 C14         7.0630   11.6500   -0.5490 ca        1 96P     -0.116500
     28 O8          4.0340   10.2460    0.9620 o         1 96P     -0.618000
     29 C4          7.1270    8.9430    3.2660 c3        1 96P      0.145400
     30 O2          6.9110    8.1650    4.4370 os        1 96P     -0.452900
     31 C5          6.3360    8.7970    5.5270 c         1 96P      0.656700
     32 O3          5.8190    9.8960    5.3080 o         1 96P     -0.541000
     33 C6          6.3960    8.0300    6.7710 ca        1 96P     -0.124600
     34 C11         6.9900    6.7650    6.8090 ca        1 96P     -0.126000
     35 C10         7.0270    6.0570    8.0180 ca        1 96P      0.097600
     36 O6          7.6030    4.8130    7.9950 oh        1 96P     -0.493100
     37 C9          6.4780    6.6220    9.1890 ca        1 96P      0.076100
     38 O5          6.5460    5.8690   10.3320 oh        1 96P     -0.496100
     39 C8          5.8910    7.9030    9.1270 ca        1 96P      0.097600
     40 O4          5.3730    8.3770   10.3110 oh        1 96P     -0.493100
     41 C7          5.8450    8.6080    7.9240 ca        1 96P     -0.126000
     42 H1          0.4740    0.9190    1.4520 ha        1 96P      0.178000
     43 H2         -0.5450    2.8780    0.2770 ha        1 96P      0.171000
     44 H3          0.4630    5.1600    0.5320 ha        1 96P      0.161000
     45 H4          3.5150    3.4950    3.1610 ha        1 96P      0.170000
     46 H5          3.6770    8.2590    1.0060 hn        1 96P      0.489800
     47 H6          5.9150    7.2750    1.1510 hx        1 96P      0.130700
     48 H7          5.5630    6.9320    2.9270 hx        1 96P      0.130700
     49 H8          5.0500    9.6030    3.0460 h1        1 96P      0.112700
     50 H9          3.6810   12.2390   -0.7000 ha        1 96P      0.168000
     51 H10         3.4560   14.0300   -2.1870 ho        1 96P      0.448000
     52 H11         6.3380   14.8980   -3.3510 ho        1 96P      0.464000
     53 H12         9.0190   13.4030   -2.3300 ho        1 96P      0.448000
     54 H13         7.8030   11.0070   -0.0480 ha        1 96P      0.168000
     55 H14         7.9190    8.3810    2.7030 h1        1 96P      0.101700
     56 H15         7.4750    9.9780    3.5230 h1        1 96P      0.101700
     57 H16         7.4410    6.3190    5.9090 ha        1 96P      0.167500
     58 H17         7.6210    4.4670    8.9030 ho        1 96P      0.447500
     59 H18         6.2010    6.4000   11.0700 ho        1 96P      0.462000
     60 H19         5.1090    9.3010   10.1780 ho        1 96P      0.447500
     61 H20         5.3890    9.6100    7.8750 ha        1 96P      0.167500
     62 HN3         3.3520    7.8540    2.5950 hn        1 96P      0.489800
@<TRIPOS>BOND
     1    1    2 1   
     2    2    3 1   
     3    2    4 1   
     4    2    5 1   
     5    5    6 ar  
     6    5    9 ar  
     7    6    7 ar  
     8    6   42 1   
     9    7    8 ar  
    10    7   43 1   
    11    8   10 ar  
    12    8   44 1   
    13    9   10 ar  
    14    9   45 1   
    15   10   11 1   
    16   11   12 1   
    17   12   13 2   
    18   12   14 1   
    19   14   15 1   
    20   14   46 1   
    21   14   62 1   
    22   15   16 1   
    23   15   47 1   
    24   15   48 1   
    25   16   17 1   
    26   16   29 1   
    27   16   49 1   
    28   17   18 1   
    29   18   19 1   
    30   18   28 2   
    31   19   20 ar  
    32   19   27 ar  
    33   20   21 ar  
    34   20   50 1   
    35   21   22 1   
    36   21   23 ar  
    37   22   51 1   
    38   23   24 1   
    39   23   25 ar  
    40   24   52 1   
    41   25   26 1   
    42   25   27 ar  
    43   26   53 1   
    44   27   54 1   
    45   29   30 1   
    46   29   55 1   
    47   29   56 1   
    48   30   31 1   
    49   31   32 2   
    50   31   33 1   
    51   33   34 ar  
    52   33   41 ar  
    53   34   35 ar  
    54   34   57 1   
    55   35   36 1   
    56   35   37 ar  
    57   36   58 1   
    58   37   38 1   
    59   37   39 ar  
    60   38   59 1   
    61   39   40 1   
    62   39   41 ar  
    63   40   60 1   
    64   41   61 1   
@<TRIPOS>SUBSTRUCTURE
     1 96P         1 TEMP              0 ****  ****    0 ROOT
