@<TRIPOS>MOLECULE
96P
   61    53     1     0     0
SMALL
bcc


@<TRIPOS>ATOM
      1 F3         -3.2930   -4.2890    1.3370 f         1 96P     -0.166000
      2 C24        -3.6030   -3.4890    0.3070 c3        1 96P      0.468000
      3 F1         -4.6200   -4.0220   -0.3820 f         1 96P     -0.166000
      4 F2         -2.5390   -3.3620   -0.4940 f         1 96P     -0.166000
      5 C23        -4.0070   -2.1300    0.8290 c2        1 96P     -0.149000
      6 C22        -5.3100   -1.6820    0.6550 c1        1 96P     -0.094000
      7 C21        -5.6520   -0.3870    1.0140 c1        1 96P     -0.112000
      8 C20        -4.6930    0.4620    1.5480 c1        1 96P     -0.112000
      9 C25        -3.0470   -1.2800    1.3630 c2        1 96P     -0.091000
     10 C19        -3.3900    0.0150    1.7220 c1        1 96P      0.076000
     11 O12        -2.3890    0.9110    2.1770 o         1 96P     -0.304000
     12 C1         -1.3960    0.3010    2.9850 c2        1 96P      0.389000
     13 O1         -1.6380   -0.7400    3.5590 o         1 96P     -0.304000
     14 N          -0.0910    0.9070    3.1060 n         1 96P     -0.326000
     15 C2          1.0960    0.0800    3.0640 c3        1 96P     -0.047000
     16 C3          1.6620    0.0740    1.6460 c3        1 96P     -0.016000
     17 O7          1.2840   -1.1060    0.9980 os        1 96P     -0.270000
     18 C12         0.2490   -0.9420    0.0890 c1        1 96P      0.363000
     19 C13        -0.0470   -2.0210   -0.9120 c1        1 96P     -0.084000
     20 C18        -0.3030   -1.6850   -2.2310 c1        1 96P     -0.152000
     21 C17        -0.7120   -2.6570   -3.1250 c1        1 96P      0.024000
     22 O11        -1.0330   -2.3050   -4.4420 o         1 96P     -0.258250
     23 C16        -0.8650   -3.9670   -2.7030 c1        1 96P      0.014000
     24 O10        -1.3810   -4.9290   -3.5820 o         1 96P     -0.258250
     25 C15        -0.6080   -4.3030   -1.3850 c1        1 96P      0.073000
     26 O9         -0.8570   -5.6090   -0.9350 o         1 96P     -0.258250
     27 C14        -0.1990   -3.3300   -0.4890 c2        1 96P     -0.096000
     28 O8         -0.3580    0.1080    0.0460 o         1 96P     -0.372000
     29 C4          3.1690    0.1540    1.7030 c3        1 96P     -0.013000
     30 O2          3.6610    0.5870    0.4610 os        1 96P     -0.265000
     31 C5          4.3900    1.7800    0.5230 c2        1 96P      0.351000
     32 O3          5.4470    1.8130    1.1140 o         1 96P     -0.359000
     33 C6          3.9200    2.9860   -0.2400 c2        1 96P     -0.082000
     34 C11         2.9770    3.8370    0.3190 c2        1 96P     -0.153000
     35 C10         2.5220    4.9310   -0.3950 c1        1 96P      0.023000
     36 O6          1.4460    5.7050    0.1110 o         1 96P     -0.258250
     37 C9          3.0090    5.1770   -1.6700 c2        1 96P      0.011000
     38 O5          2.4710    6.2170   -2.4310 oh        1 96P     -0.260000
     39 C8          3.9520    4.3270   -2.2280 c1        1 96P      0.073000
     40 O4          4.3960    4.5380   -3.5470 oh        1 96P     -0.239000
     41 C7          4.4060    3.2320   -1.5130 c1        1 96P     -0.098000
     42 H1         -5.9880   -2.2810    0.2780 ha        1 96P      0.153000
     43 H2         -6.5690   -0.0720    0.8920 ha        1 96P      0.157000
     44 H3         -4.9340    1.3730    1.8010 ha        1 96P      0.157000
     45 H4         -2.1370   -1.5930    1.4840 ha        1 96P      0.164000
     46 H5         -0.0160    1.8100    3.2530 hn        1 96P      0.257000
     47 H6          1.7660    0.4380    3.6830 h1        1 96P      0.121000
     48 H7          0.8630   -0.8400    3.3280 h1        1 96P      0.121000
     49 H8          1.3150    0.8420    1.1540 h1        1 96P      0.138000
     50 H9         -0.2690   -0.7500   -2.5110 ha        1 96P      0.163000
     51 H10        -1.8740   -2.0240   -4.4760 ho        1 96P      0.242000
     52 H11        -2.2330   -4.7520   -3.7460 ho        1 96P      0.242000
     53 H12        -1.1540   -6.1060   -1.6120 ho        1 96P      0.242000
     54 H13        -0.0190   -3.5660    0.4380 ha        1 96P      0.177000
     55 H14         3.5340   -0.7290    1.9080 h1        1 96P      0.126000
     56 H15         3.4360    0.7870    2.3990 h1        1 96P      0.126000
     57 H16         2.6620    3.6840    1.2280 ha        1 96P      0.164000
     58 H17         1.7240    6.1790    0.8050 ho        1 96P      0.242000
     59 H18         1.7260    5.9400   -2.8250 ho        1 96P      0.252000
     60 H19         5.0670    5.1230   -3.5440 ho        1 96P      0.241000
     61 H20         5.0710    2.6320   -1.9060 ha        1 96P      0.179000
@<TRIPOS>BOND
     1    1    2 1   
     2    2    3 1   
     3    2    4 1   
     4    2    5 1   
     5    5    6 1   
     6    5    9 1   
     7    6   42 1   
     8    7    8 1   
     9    7   43 1   
    10    8   44 1   
    11    9   10 1   
    12    9   45 1   
    13   11   12 1   
    14   12   13 1   
    15   12   14 1   
    16   14   15 1   
    17   14   46 1   
    18   15   16 1   
    19   15   47 1   
    20   15   48 1   
    21   16   17 1   
    22   16   29 1   
    23   16   49 1   
    24   17   18 1   
    25   18   28 1   
    26   19   27 1   
    27   20   21 1   
    28   20   50 1   
    29   21   23 1   
    30   22   51 1   
    31   23   25 1   
    32   24   52 1   
    33   25   27 1   
    34   26   53 1   
    35   27   54 1   
    36   29   30 1   
    37   29   55 1   
    38   29   56 1   
    39   30   31 1   
    40   31   32 1   
    41   31   33 1   
    42   33   34 1   
    43   33   41 1   
    44   34   35 1   
    45   34   57 1   
    46   35   37 1   
    47   36   58 1   
    48   37   38 1   
    49   37   39 1   
    50   38   59 1   
    51   39   40 1   
    52   40   60 1   
    53   41   61 1   
@<TRIPOS>SUBSTRUCTURE
     1 96P         1 TEMP              0 ****  ****    0 ROOT
