@<TRIPOS>MOLECULE
96P
   62    64     1     0     0
SMALL
bcc


@<TRIPOS>ATOM
      1 F3          1.0830    2.3540   -2.1680 f         1 96P     -0.222633
      2 C24         0.5360    2.4600   -0.9140 c3        1 96P      0.691200
      3 F1         -0.3500    3.5040   -1.0120 f         1 96P     -0.222633
      4 F2         -0.2490    1.3450   -0.7780 f         1 96P     -0.222633
      5 C23         1.5760    2.6310    0.1940 ca        1 96P     -0.153300
      6 C22         2.1060    1.5080    0.8340 ca        1 96P     -0.048000
      7 C21         3.0660    1.6610    1.8370 ca        1 96P     -0.109000
      8 C20         3.5060    2.9310    2.2050 ca        1 96P     -0.086000
      9 C25         1.9890    3.9180    0.5450 ca        1 96P     -0.059000
     10 C19         2.9610    4.0360    1.5430 ca        1 96P      0.045100
     11 O12         3.4640    5.3380    1.7620 os        1 96P     -0.311200
     12 C1          3.3100    5.8580    3.0090 c         1 96P      0.611100
     13 O1          2.9350    5.2710    4.0110 o         1 96P     -0.400000
     14 N           3.7040    7.2950    3.0260 n4        1 96P     -0.634800
     15 C2          5.1870    7.4600    2.9260 c3        1 96P      0.080800
     16 C3          5.6190    8.9350    2.9700 c3        1 96P      0.101100
     17 O7          5.5700    9.5050    1.6610 os        1 96P     -0.431900
     18 C12         4.3960   10.1130    1.2660 c         1 96P      0.695700
     19 C13         4.5150   10.9830    0.1010 ca        1 96P     -0.133600
     20 C18         3.3650   11.6620   -0.3330 ca        1 96P     -0.116500
     21 C17         3.4530   12.5060   -1.4400 ca        1 96P      0.097100
     22 O11         2.3880   13.2140   -1.9490 oh        1 96P     -0.490100
     23 C16         4.6770   12.6750   -2.1220 ca        1 96P      0.088100
     24 O10         4.8320   13.4800   -3.2180 oh        1 96P     -0.492100
     25 C15         5.8210   11.9820   -1.6720 ca        1 96P      0.097100
     26 O9          7.0430   12.0910   -2.2820 oh        1 96P     -0.490100
     27 C14         5.7400   11.1370   -0.5560 ca        1 96P     -0.116500
     28 O8          3.3850    9.8120    1.9200 o         1 96P     -0.616000
     29 C4          7.1000    9.0180    3.3860 c3        1 96P      0.145400
     30 O2          7.2900    8.4030    4.6540 os        1 96P     -0.452900
     31 C5          6.9830    9.1500    5.7790 c         1 96P      0.657700
     32 O3          6.3270   10.1770    5.5870 o         1 96P     -0.541000
     33 C6          7.4550    8.5700    7.0370 ca        1 96P     -0.123600
     34 C11         8.1590    7.3630    7.0530 ca        1 96P     -0.125500
     35 C10         8.5930    6.8360    8.2770 ca        1 96P      0.097600
     36 O6          9.2620    5.6400    8.2380 oh        1 96P     -0.493600
     37 C9          8.3310    7.5240    9.4800 ca        1 96P      0.076100
     38 O5          8.7830    6.9460   10.6380 oh        1 96P     -0.496100
     39 C8          7.6260    8.7450    9.4380 ca        1 96P      0.097600
     40 O4          7.4070    9.3490   10.6550 oh        1 96P     -0.493600
     41 C7          7.1840    9.2700    8.2220 ca        1 96P     -0.125500
     42 H1          1.7570    0.4990    0.5480 ha        1 96P      0.178000
     43 H2          3.4790    0.7710    2.3410 ha        1 96P      0.171000
     44 H3          4.2520    3.0640    3.0030 ha        1 96P      0.161000
     45 H4          1.5720    4.8050    0.0420 ha        1 96P      0.174000
     46 H5          3.3630    7.7210    3.9000 hn        1 96P      0.489800
     47 H6          5.5230    6.9900    1.9560 hx        1 96P      0.129200
     48 H7          5.6620    6.9150    3.7940 hx        1 96P      0.129200
     49 H8          4.9930    9.5370    3.6900 h1        1 96P      0.113700
     50 H9          2.4120   11.5320    0.2020 ha        1 96P      0.168000
     51 H10         1.6270   13.0840   -1.3630 ho        1 96P      0.449000
     52 H11         3.9830   13.9180   -3.4040 ho        1 96P      0.465000
     53 H12         6.9630   12.7170   -3.0220 ho        1 96P      0.449000
     54 H13         6.6440   10.6100   -0.2130 ha        1 96P      0.168000
     55 H14         7.7510    8.4260    2.6900 h1        1 96P      0.100700
     56 H15         7.4100   10.0960    3.4050 h1        1 96P      0.100700
     57 H16         8.3880    6.8230    6.1220 ha        1 96P      0.167000
     58 H17         9.5590    5.4260    9.1390 ho        1 96P      0.447500
     59 H18         8.5950    7.5500   11.3760 ho        1 96P      0.462000
     60 H19         7.0130   10.2200   10.4950 ho        1 96P      0.447500
     61 H20         6.6350   10.2240    8.1860 ha        1 96P      0.167000
     62 HN3         3.2560    7.7920    2.2320 hn        1 96P      0.489800
@<TRIPOS>BOND
     1    1    2 1   
     2    2    3 1   
     3    2    4 1   
     4    2    5 1   
     5    5    6 ar  
     6    5    9 ar  
     7    6    7 ar  
     8    6   42 1   
     9    7    8 ar  
    10    7   43 1   
    11    8   10 ar  
    12    8   44 1   
    13    9   10 ar  
    14    9   45 1   
    15   10   11 1   
    16   11   12 1   
    17   12   13 2   
    18   12   14 1   
    19   14   15 1   
    20   14   46 1   
    21   14   62 1   
    22   15   16 1   
    23   15   47 1   
    24   15   48 1   
    25   16   17 1   
    26   16   29 1   
    27   16   49 1   
    28   17   18 1   
    29   18   19 1   
    30   18   28 2   
    31   19   20 ar  
    32   19   27 ar  
    33   20   21 ar  
    34   20   50 1   
    35   21   22 1   
    36   21   23 ar  
    37   22   51 1   
    38   23   24 1   
    39   23   25 ar  
    40   24   52 1   
    41   25   26 1   
    42   25   27 ar  
    43   26   53 1   
    44   27   54 1   
    45   29   30 1   
    46   29   55 1   
    47   29   56 1   
    48   30   31 1   
    49   31   32 2   
    50   31   33 1   
    51   33   34 ar  
    52   33   41 ar  
    53   34   35 ar  
    54   34   57 1   
    55   35   36 1   
    56   35   37 ar  
    57   36   58 1   
    58   37   38 1   
    59   37   39 ar  
    60   38   59 1   
    61   39   40 1   
    62   39   41 ar  
    63   40   60 1   
    64   41   61 1   
@<TRIPOS>SUBSTRUCTURE
     1 96P         1 TEMP              0 ****  ****    0 ROOT
