@<TRIPOS>MOLECULE
96P
   62    64     1     0     0
SMALL
bcc


@<TRIPOS>ATOM
      1 F3          2.0770    0.7110    4.3860 f         1 96P     -0.222300
      2 C24         2.6140    0.8990    3.1370 c3        1 96P      0.690200
      3 F1          3.9660    0.9990    3.3540 f         1 96P     -0.222300
      4 F2          2.4490   -0.3040    2.5000 f         1 96P     -0.222300
      5 C23         2.0160    2.0900    2.3870 ca        1 96P     -0.153300
      6 C22         0.8930    1.9110    1.5750 ca        1 96P     -0.045000
      7 C21         0.3350    3.0010    0.9020 ca        1 96P     -0.113000
      8 C20         0.8920    4.2730    1.0320 ca        1 96P     -0.077000
      9 C25         2.5980    3.3510    2.5380 ca        1 96P     -0.062000
     10 C19         2.0130    4.4210    1.8570 ca        1 96P      0.046100
     11 O12         2.4900    5.7230    2.1240 os        1 96P     -0.316200
     12 C1          3.4730    6.1970    1.3090 c         1 96P      0.607100
     13 O1          3.9660    5.6300    0.3480 o         1 96P     -0.397000
     14 N           3.8800    7.5610    1.7500 ny        1 96P     -0.636800
     15 C2          5.3410    7.6180    2.0610 c3        1 96P      0.080800
     16 C3          5.8090    9.0340    2.4330 c3        1 96P      0.102100
     17 O7          6.1740    9.7580    1.2570 os        1 96P     -0.429900
     18 C12         5.1980   10.5050    0.6280 c         1 96P      0.696700
     19 C13         5.6960   11.4870   -0.3280 ca        1 96P     -0.133600
     20 C18         4.7590   12.3060   -0.9780 ca        1 96P     -0.116500
     21 C17         5.2080   13.2580   -1.8930 ca        1 96P      0.097100
     22 O11         4.3750   14.1060   -2.5860 oh        1 96P     -0.490100
     23 C16         6.5850   13.3980   -2.1690 ca        1 96P      0.088100
     24 O10         7.0940   14.3060   -3.0580 oh        1 96P     -0.492100
     25 C15         7.5120   12.5640   -1.5060 ca        1 96P      0.097100
     26 O9          8.8630   12.6380   -1.7220 oh        1 96P     -0.490100
     27 C14         7.0660   11.6100   -0.5820 ca        1 96P     -0.116500
     28 O8          4.0270   10.2200    0.9230 o         1 96P     -0.618000
     29 C4          7.1040    8.9410    3.2610 c3        1 96P      0.145400
     30 O2          6.8800    8.1750    4.4380 os        1 96P     -0.452900
     31 C5          6.2970    8.8180    5.5180 c         1 96P      0.656700
     32 O3          5.7820    9.9140    5.2850 o         1 96P     -0.541000
     33 C6          6.3480    8.0620    6.7700 ca        1 96P     -0.124600
     34 C11         6.9420    6.7980    6.8240 ca        1 96P     -0.126000
     35 C10         6.9700    6.1020    8.0400 ca        1 96P      0.097600
     36 O6          7.5460    4.8580    8.0330 oh        1 96P     -0.493100
     37 C9          6.4130    6.6780    9.2020 ca        1 96P      0.076100
     38 O5          6.4720    5.9370   10.3530 oh        1 96P     -0.496100
     39 C8          5.8270    7.9590    9.1240 ca        1 96P      0.097600
     40 O4          5.3010    8.4450   10.2990 oh        1 96P     -0.493100
     41 C7          5.7890    8.6520    7.9130 ca        1 96P     -0.126000
     42 H1          0.4540    0.9040    1.4620 ha        1 96P      0.178000
     43 H2         -0.5510    2.8550    0.2630 ha        1 96P      0.171000
     44 H3          0.4570    5.1380    0.5080 ha        1 96P      0.161000
     45 H4          3.4840    3.4900    3.1760 ha        1 96P      0.170000
     46 H5          3.6690    8.2350    0.9860 hn        1 96P      0.489800
     47 H6          5.5430    6.9260    2.9310 hx        1 96P      0.130700
     48 H7          5.9060    7.2530    1.1540 hx        1 96P      0.130700
     49 H8          5.0280    9.5980    3.0200 h1        1 96P      0.112700
     50 H9          3.6850   12.1970   -0.7600 ha        1 96P      0.168000
     51 H10         3.4700   13.9730   -2.2670 ho        1 96P      0.448000
     52 H11         6.3590   14.8290   -3.4210 ho        1 96P      0.464000
     53 H12         9.0340   13.3440   -2.3680 ho        1 96P      0.448000
     54 H13         7.8030   10.9710   -0.0700 ha        1 96P      0.168000
     55 H14         7.4500    9.9790    3.5100 h1        1 96P      0.101700
     56 H15         7.9000    8.3740    2.7090 h1        1 96P      0.101700
     57 H16         7.3990    6.3430    5.9320 ha        1 96P      0.167500
     58 H17         7.5560    4.5210    8.9450 ho        1 96P      0.447500
     59 H18         6.1230    6.4750   11.0830 ho        1 96P      0.462000
     60 H19         5.0380    9.3670   10.1560 ho        1 96P      0.447500
     61 H20         5.3340    9.6530    7.8510 ha        1 96P      0.167500
     62 HN3         3.3340    7.8430    2.5760 hn        1 96P      0.489800
@<TRIPOS>BOND
     1    1    2 1   
     2    2    3 1   
     3    2    4 1   
     4    2    5 1   
     5    5    6 ar  
     6    5    9 ar  
     7    6    7 ar  
     8    6   42 1   
     9    7    8 ar  
    10    7   43 1   
    11    8   10 ar  
    12    8   44 1   
    13    9   10 ar  
    14    9   45 1   
    15   10   11 1   
    16   11   12 1   
    17   12   13 2   
    18   12   14 1   
    19   14   15 1   
    20   14   46 1   
    21   14   62 1   
    22   15   16 1   
    23   15   47 1   
    24   15   48 1   
    25   16   17 1   
    26   16   29 1   
    27   16   49 1   
    28   17   18 1   
    29   18   19 1   
    30   18   28 2   
    31   19   20 ar  
    32   19   27 ar  
    33   20   21 ar  
    34   20   50 1   
    35   21   22 1   
    36   21   23 ar  
    37   22   51 1   
    38   23   24 1   
    39   23   25 ar  
    40   24   52 1   
    41   25   26 1   
    42   25   27 ar  
    43   26   53 1   
    44   27   54 1   
    45   29   30 1   
    46   29   55 1   
    47   29   56 1   
    48   30   31 1   
    49   31   32 2   
    50   31   33 1   
    51   33   34 ar  
    52   33   41 ar  
    53   34   35 ar  
    54   34   57 1   
    55   35   36 1   
    56   35   37 ar  
    57   36   58 1   
    58   37   38 1   
    59   37   39 ar  
    60   38   59 1   
    61   39   40 1   
    62   39   41 ar  
    63   40   60 1   
    64   41   61 1   
@<TRIPOS>SUBSTRUCTURE
     1 96P         1 TEMP              0 ****  ****    0 ROOT
