@<TRIPOS>MOLECULE
972
   44    46     1     0     0
SMALL
bcc


@<TRIPOS>ATOM
      1 C1         -4.2410   -0.7500    0.2320 ca        1 972     -0.267900
      2 C2         -4.5290    0.6050   -0.0130 ca        1 972      0.010400
      3 CL2        -6.1380    1.1360   -0.2440 cl        1 972     -0.122400
      4 C3         -3.5140    1.5600   -0.1340 ca        1 972     -0.137000
      5 C4         -2.2010    1.1290   -0.0010 ca        1 972      0.009000
      6 C5         -1.8710   -0.2910    0.2590 ca        1 972      0.006000
      7 C6         -2.9170   -1.2060    0.3680 ca        1 972     -0.128000
      8 C7         -5.3080   -1.7640    0.3480 ce        1 972      0.535400
      9 N1         -6.3660   -1.5370    1.1640 nh        1 972     -0.484600
     10 N2         -5.1720   -2.9180   -0.3530 nh        1 972     -0.468700
     11 N3         -0.9840    1.7800   -0.0570 na        1 972     -0.286600
     12 N4         -0.5060   -0.4580    0.3540 nc        1 972     -0.322600
     13 C8          0.0520    0.7960    0.1500 cc        1 972      0.322500
     14 C1'         1.4220    1.1450    0.1340 cd        1 972     -0.330200
     15 C2'         1.8250    2.5100    0.2510 cd        1 972     -0.074000
     16 C3'         3.1320    2.8850    0.2810 cc        1 972     -0.200000
     17 C4'         4.1670    1.9040    0.2020 cc        1 972     -0.184000
     18 C5'         3.8370    0.5900    0.0820 cd        1 972     -0.003100
     19 C6'         2.4320    0.1040    0.0030 c         1 972      0.601500
     20 O6'         2.2010   -1.1010   -0.2000 o         1 972     -0.580100
     21 O5'         4.7390   -0.4550    0.0140 os        1 972     -0.304900
     22 C10         6.1180   -0.0850    0.0760 c3        1 972      0.126400
     23 C20         6.9150   -1.3850   -0.0110 c3        1 972     -0.070700
     24 C30         6.8430   -1.9620   -1.4080 c3        1 972     -0.090100
     25 C40         8.3490   -1.1280    0.3990 c3        1 972     -0.090100
     26 HC3        -3.7580    2.6120   -0.3360 ha        1 972      0.155000
     27 HC6        -2.6890   -2.2570    0.5930 ha        1 972      0.148000
     28 HH11       -6.4200   -0.6560    1.6320 hn        1 972      0.315700
     29 HH12       -7.1360   -2.1600    1.2390 hn        1 972      0.315700
     30 HH21       -5.8050   -3.6790   -0.2750 hn        1 972      0.315700
     31 HH22       -4.3520   -3.0330   -0.9110 hn        1 972      0.315700
     32 HN3        -0.8410    2.7350   -0.2450 hn        1 972      0.308700
     33 HC2'        1.0600    3.2960    0.3490 ha        1 972      0.087000
     34 HC3'        3.4220    3.9390    0.3790 ha        1 972      0.114000
     35 HC4'        5.2090    2.2490    0.2470 ha        1 972      0.119000
     36 H10A        6.3230    0.4400    1.0470 h1        1 972      0.031200
     37 H10B        6.3680    0.5970   -0.7780 h1        1 972      0.031200
     38 H20         6.4520   -2.1230    0.7040 hc        1 972      0.067700
     39 H30A        7.3590   -2.9500   -1.4460 hc        1 972      0.034533
     40 H30B        5.7740   -2.0980   -1.7030 hc        1 972      0.034533
     41 H30C        7.3330   -1.2780   -2.1430 hc        1 972      0.034533
     42 H40A        8.8170   -0.3620   -0.2650 hc        1 972      0.034533
     43 H40B        8.3960   -0.7600    1.4530 hc        1 972      0.034533
     44 H40C        8.9430   -2.0700    0.3240 hc        1 972      0.034533
@<TRIPOS>BOND
     1    1    2 ar  
     2    1    7 ar  
     3    1    8 1   
     4    2    3 1   
     5    2    4 ar  
     6    4    5 ar  
     7    4   26 1   
     8    5    6 ar  
     9    5   11 2   
    10    6    7 ar  
    11    6   12 2   
    12    7   27 1   
    13    8    9 2   
    14    8   10 1   
    15    9   28 1   
    16    9   29 1   
    17   10   30 1   
    18   10   31 1   
    19   11   13 1   
    20   11   32 1   
    21   12   13 1   
    22   13   14 2   
    23   14   15 1   
    24   14   19 1   
    25   15   16 2   
    26   15   33 1   
    27   16   17 1   
    28   16   34 1   
    29   17   18 2   
    30   17   35 1   
    31   18   19 1   
    32   18   21 1   
    33   19   20 2   
    34   21   22 1   
    35   22   23 1   
    36   22   36 1   
    37   22   37 1   
    38   23   24 1   
    39   23   25 1   
    40   23   38 1   
    41   24   39 1   
    42   24   40 1   
    43   24   41 1   
    44   25   42 1   
    45   25   43 1   
    46   25   44 1   
@<TRIPOS>SUBSTRUCTURE
     1 972         1 TEMP              0 ****  ****    0 ROOT
