@<TRIPOS>MOLECULE
972
   44    36     1     0     0
SMALL
bcc


@<TRIPOS>ATOM
      1 C1         -0.2940   -0.6670   -5.2020 c1        1 972     -0.203000
      2 C2          0.0480   -1.9750   -4.8980 c1        1 972     -0.051000
      3 CL2         0.0730   -3.4900   -5.7610 cl        1 972     -0.038000
      4 C3          0.4820   -2.2990   -3.6220 c1        1 972     -0.133000
      5 C4          0.5770   -1.2990   -2.6350 c1        1 972      0.006000
      6 C5          0.2410   -0.0110   -2.9350 c1        1 972      0.006000
      7 C6         -0.2010    0.3180   -4.2310 c1        1 972     -0.109000
      8 C7         -0.5610   -0.8020   -6.6860 c2        1 972      0.359000
      9 N1         -1.8810   -1.0320   -7.1510 n3        1 972     -0.328000
     10 N2          0.4270   -0.7060   -7.5400 n2        1 972     -0.335000
     11 N3          0.9630   -1.3380   -1.3360 n1        1 972     -0.230000
     12 N4          0.4210    0.7390   -1.8190 n1        1 972     -0.230000
     13 C8          0.8680   -0.0800   -0.8310 c2        1 972      0.207000
     14 C1'         1.3290    0.0180    0.4740 c1        1 972     -0.306000
     15 C2'         2.6920    0.0370    0.7270 c1        1 972     -0.133500
     16 C3'         3.1530    0.0830    2.0330 c1        1 972     -0.133500
     17 C4'         2.2520    0.1110    3.0870 c1        1 972     -0.070000
     18 C5'         0.8890    0.0920    2.8340 c1        1 972     -0.083000
     19 C6'         0.4270    0.0450    1.5270 c1        1 972      0.299000
     20 O6'        -0.9530    0.0040    1.2710 o         1 972     -0.467000
     21 O5'        -0.0220    0.0200    3.9030 os        1 972     -0.225000
     22 C10        -0.2970    1.2650    4.5030 c3        1 972     -0.022000
     23 C20        -1.2880    1.0720    5.6330 c3        1 972     -0.112000
     24 C30        -1.2550    2.2790    6.5440 c3        1 972     -0.205500
     25 C40        -2.6790    0.9100    5.0610 c3        1 972     -0.205500
     26 HC3         0.7230   -3.2200   -3.4080 ha        1 972      0.164000
     27 HC6        -0.4410    1.2390   -4.4460 ha        1 972      0.144000
     28 HH11       -2.5780   -1.0460   -6.5600 hn        1 972      0.265500
     29 HH12       -2.0390   -1.1360   -8.0460 hn        1 972      0.265500
     30 HH21        1.2790   -0.5580   -7.2400 DU        1 972      0.296000
     31 HH22        0.2650   -0.7880   -8.4380 hn        1 972      0.248000
     32 HN3         1.2390   -2.0790   -0.8810 DU        1 972      0.296000
     33 HC2'        3.3260    0.0180   -0.0140 ha        1 972      0.123500
     34 HC3'        4.1130    0.0970    2.2110 ha        1 972      0.123500
     35 HC4'        2.5780    0.1430    4.0060 ha        1 972      0.126000
     36 H10A       -0.6780    1.8720    3.8360 h1        1 972      0.082500
     37 H10B        0.5320    1.6470    4.8580 h1        1 972      0.082500
     38 H20        -1.0500    0.2740    6.1410 hc        1 972      0.103000
     39 H30A       -1.8690    2.1390    7.2950 hc        1 972      0.070833
     40 H30B       -0.3450    2.4060    6.8850 hc        1 972      0.070833
     41 H30C       -1.5290    3.0750    6.0420 hc        1 972      0.070833
     42 H40A       -2.7200    0.0870    4.5310 hc        1 972      0.070833
     43 H40B       -3.3290    0.8600    5.7930 hc        1 972      0.070833
     44 H40C       -2.8890    1.6780    4.4890 hc        1 972      0.070833
@<TRIPOS>BOND
     1    1    7 1   
     2    1    8 1   
     3    2    3 1   
     4    2    4 1   
     5    4   26 1   
     6    5    6 1   
     7    7   27 1   
     8    8    9 1   
     9    8   10 1   
    10    9   28 1   
    11    9   29 1   
    12   10   31 1   
    13   11   13 1   
    14   12   13 1   
    15   13   14 1   
    16   14   19 1   
    17   15   16 1   
    18   15   33 1   
    19   16   34 1   
    20   17   18 1   
    21   17   35 1   
    22   18   21 1   
    23   19   20 1   
    24   21   22 1   
    25   22   23 1   
    26   22   36 1   
    27   22   37 1   
    28   23   24 1   
    29   23   25 1   
    30   23   38 1   
    31   24   39 1   
    32   24   40 1   
    33   24   41 1   
    34   25   42 1   
    35   25   43 1   
    36   25   44 1   
@<TRIPOS>SUBSTRUCTURE
     1 972         1 TEMP              0 ****  ****    0 ROOT
