@<TRIPOS>MOLECULE
973
   38    41     1     0     0
SMALL
bcc


@<TRIPOS>ATOM
      1 C1          0.0910   -0.0300   -0.0710 ca        1 973     -0.131000
      2 C2          1.5000    0.0430    0.0250 ca        1 973     -0.119000
      3 C3          2.1160    0.0570    1.2530 ca        1 973     -0.128000
      4 C4          1.3570   -0.0080    2.4540 ca        1 973     -0.011000
      5 C5         -0.0590   -0.0620    2.3520 ca        1 973     -0.046000
      6 C6         -0.6710   -0.0790    1.0690 ca        1 973     -0.111000
      7 C7         -0.8520   -0.0910    3.5320 ca        1 973     -0.099000
      8 C8         -0.2570   -0.0610    4.7680 ca        1 973     -0.136000
      9 C9          1.1490   -0.0150    4.8810 ca        1 973     -0.080000
     10 C10         1.9570   -0.0020    3.7570 ca        1 973     -0.068800
     11 C11         3.4000   -0.0150    3.8820 ce        1 973     -0.036200
     12 C12         4.1280    0.4380    4.9170 cd        1 973      0.040100
     13 C13         5.5970    0.4380    5.0790 cd        1 973      0.177100
     14 C14         5.9270    1.0070    6.2870 cc        1 973     -0.247400
     15 C15         4.6510    1.4110    6.9180 c         1 973      0.736800
     16 O1          4.3180    1.9720    7.9500 o         1 973     -0.547500
     17 O2          3.5820    1.0360    6.0710 os        1 973     -0.338200
     18 C16         7.2180    1.2160    6.8890 ca        1 973     -0.018800
     19 C17         7.4340    2.3240    7.7260 ca        1 973     -0.118500
     20 C18         8.6840    2.5480    8.2940 ca        1 973     -0.118500
     21 C19         9.7330    1.6600    8.0350 ca        1 973      0.018400
     22 C20         9.5270    0.5400    7.2230 ca        1 973     -0.118500
     23 C21         8.2740    0.3200    6.6580 ca        1 973     -0.118500
     24 Cl1        11.2630    1.9360    8.7190 cl        1 973     -0.087400
     25 O3          6.3680   -0.0680    4.0920 oh        1 973     -0.458100
     26 H1         -0.3790   -0.0430   -1.0650 ha        1 973      0.135000
     27 H2          2.0970    0.0930   -0.8980 ha        1 973      0.133000
     28 H3          3.2120    0.1330    1.3070 ha        1 973      0.132000
     29 H6         -1.7690   -0.1280    1.0120 ha        1 973      0.134000
     30 H7         -1.9470   -0.1330    3.4310 ha        1 973      0.135000
     31 H8         -0.8640   -0.0730    5.6860 ha        1 973      0.140000
     32 H9          1.5990    0.0070    5.8880 ha        1 973      0.158000
     33 H11         3.9710   -0.4620    3.0450 ha        1 973      0.156000
     34 H17         6.5980    3.0100    7.9430 ha        1 973      0.145500
     35 H18         8.8420    3.4210    8.9470 ha        1 973      0.151000
     36 H20        10.3480   -0.1690    7.0360 ha        1 973      0.151000
     37 H21         8.1090   -0.5860    6.0560 ha        1 973      0.145500
     38 HO3         7.2970    0.1370    4.3010 ho        1 973      0.447000
@<TRIPOS>BOND
     1    1    2 ar  
     2    1    6 ar  
     3    1   26 1   
     4    2    3 ar  
     5    2   27 1   
     6    3    4 ar  
     7    3   28 1   
     8    4    5 ar  
     9    4   10 ar  
    10    5    6 ar  
    11    5    7 ar  
    12    6   29 1   
    13    7    8 ar  
    14    7   30 1   
    15    8    9 ar  
    16    8   31 1   
    17    9   10 ar  
    18    9   32 1   
    19   10   11 1   
    20   11   12 2   
    21   11   33 1   
    22   12   13 1   
    23   12   17 1   
    24   13   14 2   
    25   13   25 1   
    26   14   15 1   
    27   14   18 1   
    28   15   16 2   
    29   15   17 1   
    30   18   19 ar  
    31   18   23 ar  
    32   19   20 ar  
    33   19   34 1   
    34   20   21 ar  
    35   20   35 1   
    36   21   22 ar  
    37   21   24 1   
    38   22   23 ar  
    39   22   36 1   
    40   23   37 1   
    41   25   38 1   
@<TRIPOS>SUBSTRUCTURE
     1 973         1 TEMP              0 ****  ****    0 ROOT
