@<TRIPOS>MOLECULE
973
   38    41     1     0     0
SMALL
bcc


@<TRIPOS>ATOM
      1 C1          0.0910   -0.0320   -0.0710 ca        1 973     -0.131000
      2 C2          1.5000    0.0460    0.0250 ca        1 973     -0.119000
      3 C3          2.1160    0.0590    1.2530 ca        1 973     -0.128000
      4 C4          1.3570   -0.0110    2.4540 ca        1 973     -0.011000
      5 C5         -0.0580   -0.0700    2.3530 ca        1 973     -0.046000
      6 C6         -0.6710   -0.0850    1.0700 ca        1 973     -0.111000
      7 C7         -0.8500   -0.1030    3.5330 ca        1 973     -0.099000
      8 C8         -0.2550   -0.0740    4.7690 ca        1 973     -0.136000
      9 C9          1.1510   -0.0240    4.8810 ca        1 973     -0.080000
     10 C10         1.9590   -0.0060    3.7570 ca        1 973     -0.068800
     11 C11         3.4010   -0.0150    3.8810 ce        1 973     -0.036200
     12 C12         4.1280    0.4380    4.9170 cd        1 973      0.040100
     13 C13         5.5980    0.4420    5.0780 cd        1 973      0.177100
     14 C14         5.9260    1.0090    6.2870 cc        1 973     -0.247400
     15 C15         4.6500    1.4080    6.9200 c         1 973      0.736800
     16 O1          4.3160    1.9650    7.9540 o         1 973     -0.547500
     17 O2          3.5810    1.0310    6.0720 os        1 973     -0.338200
     18 C16         7.2170    1.2210    6.8890 ca        1 973     -0.018800
     19 C17         7.4300    2.3270    7.7290 ca        1 973     -0.118500
     20 C18         8.6790    2.5540    8.2970 ca        1 973     -0.118500
     21 C19         9.7310    1.6690    8.0350 ca        1 973      0.018400
     22 C20         9.5290    0.5510    7.2200 ca        1 973     -0.118500
     23 C21         8.2760    0.3280    6.6550 ca        1 973     -0.118500
     24 CL1        11.2610    1.9480    8.7190 cl        1 973     -0.087400
     25 O3          6.3690   -0.0590    4.0890 oh        1 973     -0.458100
     26 H1         -0.3810   -0.0440   -1.0650 ha        1 973      0.135000
     27 H2          2.0960    0.0990   -0.8980 ha        1 973      0.133000
     28 H3          3.2120    0.1380    1.3060 ha        1 973      0.132000
     29 H6         -1.7690   -0.1380    1.0130 ha        1 973      0.134000
     30 H7         -1.9450   -0.1490    3.4330 ha        1 973      0.135000
     31 H8         -0.8610   -0.0900    5.6870 ha        1 973      0.140000
     32 H9          1.6010   -0.0030    5.8880 ha        1 973      0.158000
     33 H11         3.9730   -0.4580    3.0430 ha        1 973      0.156000
     34 H17         6.5920    3.0090    7.9470 ha        1 973      0.145500
     35 H18         8.8350    3.4250    8.9510 ha        1 973      0.151000
     36 H20        10.3510   -0.1560    7.0310 ha        1 973      0.151000
     37 H21         8.1130   -0.5770    6.0510 ha        1 973      0.145500
     38 HO3         7.2980    0.1480    4.2980 ho        1 973      0.447000
@<TRIPOS>BOND
     1    1    2 ar  
     2    1    6 ar  
     3    1   26 1   
     4    2    3 ar  
     5    2   27 1   
     6    3    4 ar  
     7    3   28 1   
     8    4    5 ar  
     9    4   10 ar  
    10    5    6 ar  
    11    5    7 ar  
    12    6   29 1   
    13    7    8 ar  
    14    7   30 1   
    15    8    9 ar  
    16    8   31 1   
    17    9   10 ar  
    18    9   32 1   
    19   10   11 1   
    20   11   12 2   
    21   11   33 1   
    22   12   13 1   
    23   12   17 1   
    24   13   14 2   
    25   13   25 1   
    26   14   15 1   
    27   14   18 1   
    28   15   16 2   
    29   15   17 1   
    30   18   19 ar  
    31   18   23 ar  
    32   19   20 ar  
    33   19   34 1   
    34   20   21 ar  
    35   20   35 1   
    36   21   22 ar  
    37   21   24 1   
    38   22   23 ar  
    39   22   36 1   
    40   23   37 1   
    41   25   38 1   
@<TRIPOS>SUBSTRUCTURE
     1 973         1 TEMP              0 ****  ****    0 ROOT
