@<TRIPOS>MOLECULE
973
   38    33     1     0     0
SMALL
bcc


@<TRIPOS>ATOM
      1 C1         -3.5750    0.4690   -4.9940 c1        1 973     -0.131000
      2 C2         -2.1840    0.4660   -4.8350 c1        1 973     -0.120000
      3 C3         -1.6240    0.3220   -3.5620 c1        1 973     -0.120000
      4 C4         -2.4680    0.1770   -2.4290 c1        1 973     -0.012000
      5 C5         -3.8550    0.1800   -2.5950 c1        1 973     -0.045000
      6 C6         -4.4100    0.3270   -3.8830 c2        1 973     -0.109000
      7 C7         -4.7020    0.0360   -1.4740 c1        1 973     -0.120000
      8 C8         -4.1590   -0.1100   -0.2120 c1        1 973     -0.120000
      9 C9         -2.7530   -0.1130   -0.0430 c1        1 973     -0.078000
     10 C10        -1.9170    0.0300   -1.1520 c2        1 973     -0.054000
     11 C11        -0.6300   -0.6440   -0.6770 c2        1 973     -0.078000
     12 C12         0.2330    0.0330    0.0940 c1        1 973     -0.021000
     13 C13         1.3850   -0.5070    0.7480 c1        1 973      0.100000
     14 C14         2.2470    0.3720    1.0960 c1        1 973     -0.157000
     15 C15         1.8830    1.7340    0.7300 c2        1 973      0.345000
     16 O1          2.3150    2.7470    1.2290 o         1 973     -0.267000
     17 O2          0.5160    1.5750    0.0400 os        1 973     -0.201000
     18 C16         3.1880    0.1090    2.2820 c1        1 973     -0.012000
     19 C17         4.4650   -0.3610    2.0560 c2        1 973     -0.106000
     20 C18         5.2990   -0.6610    3.1340 c1        1 973     -0.130000
     21 C19         4.8360   -0.4840    4.4500 c1        1 973     -0.056000
     22 C20         3.5460   -0.0100    4.6740 c1        1 973     -0.126000
     23 C21         2.7220    0.2860    3.6050 c1        1 973     -0.108000
     24 CL1         5.9010   -0.8390    5.8240 cl        1 973     -0.014000
     25 O3          1.3000   -1.7710    1.4530 oh        1 973     -0.207000
     26 H1         -3.9640    0.5710   -5.8840 ha        1 973      0.136000
     27 H2         -1.5670    0.5680   -5.6660 ha        1 973      0.134250
     28 H3         -0.6210    0.3220   -3.4490 ha        1 973      0.134250
     29 H6         -5.4150    0.3300   -4.0050 ha        1 973      0.135000
     30 H7         -5.7020    0.0360   -1.5960 ha        1 973      0.134250
     31 H8         -4.7800   -0.2120    0.6110 ha        1 973      0.134250
     32 H9         -2.3560   -0.2210    0.8770 ha        1 973      0.158000
     33 H11        -0.4980   -1.5820   -0.8320 ha        1 973      0.133000
     34 H17         4.7770   -0.4810    1.1640 ha        1 973      0.151000
     35 H18         6.1650   -0.9790    2.9810 ha        1 973      0.148000
     36 H20         3.2120    0.1170    5.6170 ha        1 973      0.151000
     37 H21         1.8050    0.6230    3.7650 ha        1 973      0.164000
     38 HO3         1.3810   -2.4570    0.8570 ho        1 973      0.234000
@<TRIPOS>BOND
     1    1    6 1   
     2    1   26 1   
     3    2    3 1   
     4    2   27 1   
     5    3   28 1   
     6    4    5 1   
     7    4   10 1   
     8    5    6 1   
     9    6   29 1   
    10    7    8 1   
    11    7   30 1   
    12    8   31 1   
    13    9   10 1   
    14    9   32 1   
    15   10   11 1   
    16   11   12 1   
    17   11   33 1   
    18   12   17 1   
    19   13   14 1   
    20   13   25 1   
    21   14   15 1   
    22   15   16 1   
    23   15   17 1   
    24   18   19 1   
    25   18   23 1   
    26   19   20 1   
    27   19   34 1   
    28   20   35 1   
    29   21   22 1   
    30   21   24 1   
    31   22   36 1   
    32   23   37 1   
    33   25   38 1   
@<TRIPOS>SUBSTRUCTURE
     1 973         1 TEMP              0 ****  ****    0 ROOT
