@<TRIPOS>MOLECULE
973
   38    41     1     0     0
SMALL
bcc


@<TRIPOS>ATOM
      1 C1          6.8000   -1.7670    0.3640 ca        1 973     -0.131000
      2 C2          5.5850   -2.4790    0.2330 ca        1 973     -0.116000
      3 C3          4.4020   -1.8080    0.0380 ca        1 973     -0.131000
      4 C4          4.3680   -0.3880   -0.0430 ca        1 973     -0.012000
      5 C5          5.5880    0.3230    0.1110 ca        1 973     -0.045000
      6 C6          6.8000   -0.3960    0.3080 ca        1 973     -0.109000
      7 C7          5.5870    1.7440    0.0770 ca        1 973     -0.098000
      8 C8          4.4130    2.4330   -0.0980 ca        1 973     -0.135000
      9 C9          3.1960    1.7360   -0.2620 ca        1 973     -0.078000
     10 C10         3.1580    0.3520   -0.2530 ca        1 973     -0.065800
     11 C11         1.9150   -0.3550   -0.4870 ce        1 973     -0.066200
     12 C12         0.6740    0.0830   -0.2120 cd        1 973      0.023100
     13 C13        -0.6270   -0.5870   -0.4320 cd        1 973      0.144100
     14 C14        -1.6460    0.2160    0.0310 cc        1 973     -0.164400
     15 C15        -0.9930    1.4400    0.5570 c         1 973      0.729800
     16 O1         -1.3520    2.4860    1.0740 o         1 973     -0.542500
     17 O2          0.4090    1.3270    0.3880 os        1 973     -0.335200
     18 C16        -3.0690   -0.0010    0.0450 ca        1 973     -0.023800
     19 C17        -3.9340    0.9670    0.5880 ca        1 973     -0.107000
     20 C18        -5.3100    0.7610    0.6030 ca        1 973     -0.128000
     21 C19        -5.8420   -0.4180    0.0730 ca        1 973      0.022400
     22 C20        -4.9970   -1.3900   -0.4710 ca        1 973     -0.128000
     23 C21        -3.6210   -1.1800   -0.4830 ca        1 973     -0.107000
     24 CL1        -7.5220   -0.6710    0.0900 cl        1 973     -0.092400
     25 O3         -0.7830   -1.8070   -0.9990 oh        1 973     -0.452100
     26 H1          7.7360   -2.3250    0.5160 ha        1 973      0.136000
     27 H2          5.6000   -3.5770    0.2950 ha        1 973      0.134000
     28 H3          3.4650   -2.3780   -0.0400 ha        1 973      0.125000
     29 H6          7.7360    0.1740    0.4170 ha        1 973      0.135000
     30 H7          6.5430    2.2760    0.1990 ha        1 973      0.137000
     31 H8          4.4020    3.5330   -0.1130 ha        1 973      0.141000
     32 H9          2.2690    2.3160   -0.4030 ha        1 973      0.158000
     33 H11         2.0100   -1.3510   -0.9580 ha        1 973      0.133000
     34 H17        -3.5230    1.9000    1.0080 ha        1 973      0.157500
     35 H18        -5.9730    1.5280    1.0320 ha        1 973      0.149500
     36 H20        -5.4140   -2.3190   -0.8880 ha        1 973      0.149500
     37 H21        -2.9660   -1.9530   -0.9140 ha        1 973      0.157500
     38 HO3         0.0960   -2.1410   -1.2450 ho        1 973      0.435000
@<TRIPOS>BOND
     1    1    2 ar  
     2    1    6 ar  
     3    1   26 1   
     4    2    3 ar  
     5    2   27 1   
     6    3    4 ar  
     7    3   28 1   
     8    4    5 ar  
     9    4   10 ar  
    10    5    6 ar  
    11    5    7 ar  
    12    6   29 1   
    13    7    8 ar  
    14    7   30 1   
    15    8    9 ar  
    16    8   31 1   
    17    9   10 ar  
    18    9   32 1   
    19   10   11 1   
    20   11   12 2   
    21   11   33 1   
    22   12   13 1   
    23   12   17 1   
    24   13   14 2   
    25   13   25 1   
    26   14   15 1   
    27   14   18 1   
    28   15   16 2   
    29   15   17 1   
    30   18   19 ar  
    31   18   23 ar  
    32   19   20 ar  
    33   19   34 1   
    34   20   21 ar  
    35   20   35 1   
    36   21   22 ar  
    37   21   24 1   
    38   22   23 ar  
    39   22   36 1   
    40   23   37 1   
    41   25   38 1   
@<TRIPOS>SUBSTRUCTURE
     1 973         1 TEMP              0 ****  ****    0 ROOT
