@<TRIPOS>MOLECULE
974
   67    59     1     0     0
SMALL
bcc


@<TRIPOS>ATOM
      1 O1          1.5890    1.6210    1.6660 os        1 974     -0.135000
      2 C11         2.7410    2.2180    1.0160 c2        1 974     -0.008000
      3 C12         3.9940    2.1730    1.6360 c2        1 974     -0.071000
      4 C13         5.0930    2.8290    1.0520 c1        1 974     -0.135000
      5 C14         4.9330    3.5340   -0.1640 c1        1 974     -0.130000
      6 C15         3.6870    3.5810   -0.7840 c1        1 974     -0.130000
      7 C16         2.5810    2.9220   -0.1980 c1        1 974      0.086000
      8 O11         1.2770    3.0270   -0.8050 oh        1 974     -0.257000
      9 C17         6.4360    2.8500    1.7740 c2        1 974      0.111000
     10 N11         7.3920    1.9500    1.4510 n1        1 974     -0.289000
     11 N12         6.6820    3.8160    2.7880 n3        1 974     -0.328000
     12 C1          1.4460   -0.6530    0.8240 c1        1 974     -0.030000
     13 F1          2.4840   -1.0030    1.5910 f         1 974     -0.077500
     14 C2          0.7990   -1.5990    0.0810 c2        1 974      0.251000
     15 C3         -0.3020   -1.2440   -0.6900 c1        1 974     -0.025000
     16 F2         -0.9680   -2.1900   -1.3890 f         1 974     -0.077500
     17 C4         -0.7430    0.0690   -0.7070 c2        1 974      0.111000
     18 N5         -0.0900    1.0270    0.0440 n2        1 974     -0.253000
     19 C6          1.0010    0.6760    0.8090 c1        1 974      0.118000
     20 N31         1.3130   -2.9540    0.0300 n3        1 974     -0.232000
     21 C32         2.6570   -2.9450   -0.5580 c3        1 974     -0.097000
     22 C33         3.3410   -4.3530   -0.5510 c3        1 974     -0.166000
     23 C34         3.2770   -4.9200    0.8480 c3        1 974     -0.149000
     24 C35         1.9070   -4.8970    1.4180 c3        1 974     -0.202000
     25 C36         1.2690   -3.5380    1.3500 c3        1 974     -0.086000
     26 C37         2.7170   -5.3310   -1.6270 c2        1 974      0.312000
     27 O31         2.3010   -4.8710   -2.7320 o         1 974     -0.280000
     28 O32         2.6590   -6.6190   -1.3900 o         1 974     -0.280000
     29 O2         -1.8510    0.4500   -1.5680 os        1 974     -0.142000
     30 C21        -3.0240    0.7650   -0.7510 c2        1 974      0.046000
     31 C22        -2.8790    1.5000    0.4110 c2        1 974     -0.163000
     32 C23        -4.0180    1.9260    1.1220 c1        1 974     -0.106000
     33 C24        -5.3080    1.6020    0.6490 c1        1 974     -0.144000
     34 C25        -5.4550    0.8670   -0.5130 c1        1 974      0.015000
     35 C26        -4.3200    0.4410   -1.2240 c1        1 974     -0.104000
     36 C27        -6.7320    0.5610   -0.9870 c1        1 974     -0.023000
     37 N21        -7.5200    1.3730   -1.7100 n2        1 974     -0.133500
     38 C30        -7.2400    2.6720   -2.0550 c2        1 974     -0.080000
     39 N22        -7.3820   -0.6000   -0.8080 n2        1 974     -0.133500
     40 C28        -8.6440    0.7240   -1.9760 c1        1 974     -0.167500
     41 C29        -8.5580   -0.5080   -1.4130 c1        1 974     -0.167500
     42 H12         4.1070    1.6800    2.4900 ha        1 974      0.169000
     43 H14         5.7110    3.9980   -0.5760 ha        1 974      0.151500
     44 H15         3.5890    4.0210   -1.6740 ha        1 974      0.151500
     45 HO11        1.2640    3.7340   -1.3740 ho        1 974      0.232000
     46 HN11        7.2310    1.3200    0.7900 DU        1 974      0.173000
     47 H121        6.0460    4.4040    3.0070 hn        1 974      0.191000
     48 H122        7.4570    3.7910    3.2610 hn        1 974      0.191000
     49 HN5        -0.3660    1.9000    0.0140 hn        1 974      0.273000
     50 H321        3.2100   -2.3300   -0.0560 h1        1 974      0.117500
     51 H322        2.5940   -2.6280   -1.4790 h1        1 974      0.117500
     52 H33         4.2940   -4.2910   -0.8720 hc        1 974      0.138000
     53 H341        3.8960   -4.3660    1.4580 hc        1 974      0.097500
     54 H342        3.6000   -5.8530    0.8300 hc        1 974      0.097500
     55 H351        1.9500   -5.1780    2.3510 hc        1 974      0.103000
     56 H352        1.3470   -5.5340    0.9200 hc        1 974      0.103000
     57 H361        0.3120   -3.6170    1.6330 h1        1 974      0.103500
     58 H362        1.7530   -2.9150    2.0000 h1        1 974      0.103500
     59 H22        -1.9620    1.7940    0.7070 ha        1 974      0.156000
     60 H23        -3.9150    2.5040    1.9120 ha        1 974      0.140000
     61 H24        -6.1050    1.9010    1.1470 ha        1 974      0.138000
     62 H26        -4.4270   -0.0970   -2.0740 ha        1 974      0.174000
     63 H301       -7.8980    2.9850   -2.7020 ha        1 974      0.095667
     64 H302       -6.3360    2.7190   -2.4560 ha        1 974      0.095667
     65 H303       -7.2740    3.2670   -1.2110 ha        1 974      0.095667
     66 H28        -9.4080    1.0730   -2.4920 DU        1 974      0.173000
     67 H29        -9.2100   -1.2300   -1.5110 DU        1 974      0.173000
@<TRIPOS>BOND
     1    1    2 1   
     2    1   19 1   
     3    2    3 1   
     4    2    7 1   
     5    3    4 1   
     6    3   42 1   
     7    4    9 1   
     8    5    6 1   
     9    5   43 1   
    10    6   44 1   
    11    7    8 1   
    12    8   45 1   
    13    9   10 1   
    14    9   11 1   
    15   11   47 1   
    16   11   48 1   
    17   12   14 1   
    18   12   19 1   
    19   14   15 1   
    20   14   20 1   
    21   15   17 1   
    22   17   18 1   
    23   17   29 1   
    24   18   49 1   
    25   20   21 1   
    26   20   25 1   
    27   21   22 1   
    28   21   50 1   
    29   21   51 1   
    30   22   23 1   
    31   22   26 1   
    32   22   52 1   
    33   23   24 1   
    34   23   53 1   
    35   23   54 1   
    36   24   25 1   
    37   24   55 1   
    38   24   56 1   
    39   25   57 1   
    40   25   58 1   
    41   26   27 1   
    42   26   28 1   
    43   29   30 1   
    44   30   31 1   
    45   30   35 1   
    46   31   32 1   
    47   31   59 1   
    48   32   60 1   
    49   33   34 1   
    50   33   61 1   
    51   35   62 1   
    52   36   37 1   
    53   36   39 1   
    54   37   40 1   
    55   38   63 1   
    56   38   64 1   
    57   38   65 1   
    58   39   41 1   
    59   40   41 1   
@<TRIPOS>SUBSTRUCTURE
     1 974         1 TEMP              0 ****  ****    0 ROOT
