@<TRIPOS>MOLECULE
974
   68    71     1     0     0
SMALL
bcc


@<TRIPOS>ATOM
      1 O1          1.9420   -2.0420    0.1580 os        1 974     -0.123000
      2 C11         1.5580   -0.8400    0.7400 c2        1 974      0.027000
      3 C12         0.1670   -0.6900    1.2310 c3        1 974     -0.163000
      4 C13        -0.0330    0.5260    2.0550 c2        1 974     -0.090000
      5 C14         0.9380    1.4610    2.2230 c2        1 974     -0.134000
      6 C15         2.2140    1.3620    1.5820 c1        1 974     -0.047000
      7 C16         2.5170    0.1330    0.9160 c2        1 974      0.019000
      8 O11         3.7700   -0.0820    0.4110 oh        1 974     -0.221000
      9 C17        -1.3460    0.6850    2.7410 c2        1 974      0.035000
     10 N11        -1.5560    0.8470    3.9980 n2        1 974     -0.178000
     11 N12        -2.5160    0.6550    1.8370 n4        1 974     -0.080000
     12 C1          0.6520   -1.8200   -1.9270 c2        1 974     -0.105000
     13 F1          0.8210   -0.4830   -2.0210 f         1 974     -0.073000
     14 C2         -0.1390   -2.4770   -3.0290 c3        1 974      0.089000
     15 C3          0.1150   -3.9620   -3.0430 c2        1 974     -0.084000
     16 F2         -0.2240   -4.6200   -4.1710 f         1 974     -0.063000
     17 C4          0.7190   -4.5980   -1.9850 c2        1 974      0.152000
     18 N5          1.0430   -3.9340   -0.7990 n3        1 974     -0.234000
     19 C6          1.1610   -2.5440   -0.8750 c2        1 974      0.160000
     20 N31        -1.5910   -2.1590   -2.9210 n3        1 974     -0.092000
     21 C32        -1.9830   -0.8140   -3.3600 c3        1 974     -0.071000
     22 C33        -3.2400   -0.3100   -2.6470 c3        1 974     -0.160000
     23 C34        -4.3490   -1.3380   -2.7780 c3        1 974     -0.158000
     24 C35        -3.9170   -2.6800   -2.2230 c3        1 974     -0.180000
     25 C36        -2.4710   -2.9810   -2.4020 c2        1 974      0.149000
     26 C37        -2.9250   -0.0120   -1.1850 c2        1 974      0.330000
     27 O31        -3.0430    1.1640   -0.7400 o         1 974     -0.590000
     28 O32        -2.5270   -0.9500   -0.4070 o         1 974     -0.590000
     29 C21         0.4350   -6.8090   -1.2590 c2        1 974     -0.024000
     30 C22         0.9340   -8.2350   -1.2290 c3        1 974     -0.110000
     31 C23        -0.0320   -8.8710   -0.2630 c2        1 974     -0.129000
     32 C24        -0.9450   -7.9470    0.1680 c2        1 974     -0.071000
     33 C25        -2.0090   -8.1750    1.1090 c2        1 974     -0.074000
     34 C26        -0.6510   -6.6440   -0.4540 c2        1 974     -0.187000
     35 C27        -3.2870   -7.7200    0.9930 c2        1 974      0.116000
     36 N21        -3.7460   -6.9520   -0.1740 n3        1 974      0.187000
     37 C30        -4.1950   -7.6420   -1.2170 c2        1 974     -0.442500
     38 N22        -4.2460   -7.9590    1.9600 n2        1 974     -0.329000
     39 C28        -3.6790   -5.6150   -0.0890 c2        1 974     -0.442500
     40 C29        -5.0780   -8.1580    2.7820 c1        1 974      0.223000
     41 H12        -0.1100   -1.6060    1.8300 hc        1 974      0.175000
     42 H14        -0.5360   -0.6660    0.3340 hc        1 974      0.175000
     43 H15         0.7780    2.3620    2.8440 ha        1 974      0.173000
     44 HO11        4.3030    0.7090    0.6170 ho        1 974      0.259000
     45 HN11       -0.7570    0.8710    4.5980 hn        1 974      0.219000
     46 H121       -3.3940    0.8170    2.3350 hn        1 974      0.286000
     47 H122       -2.5610   -0.2670    1.3350 hn        1 974      0.286000
     48 HN5         1.6070   -4.4160   -0.1250 hn        1 974      0.278000
     49 H321        0.1820   -2.0350   -4.0280 h1        1 974      0.170000
     50 H322       -2.1610   -0.8610   -4.4730 h1        1 974      0.139000
     51 H33        -1.1270   -0.1070   -3.1560 h1        1 974      0.139000
     52 H341       -3.5520    0.6530   -3.1400 hc        1 974      0.156000
     53 H342       -5.2590   -0.9830   -2.2270 hc        1 974      0.114500
     54 H351       -4.6310   -1.4420   -3.8590 hc        1 974      0.114500
     55 H352       -4.0860   -2.6980   -1.1030 hc        1 974      0.158000
     56 H361       -4.5200   -3.5130   -2.6780 hc        1 974      0.158000
     57 H362       -2.1320   -3.9850   -2.0470 h4        1 974      0.194000
     58 H22         1.9900   -8.2950   -0.8650 hc        1 974      0.149500
     59 H23         0.8750   -8.7070   -2.2430 hc        1 974      0.149500
     60 H24         0.0360   -9.9250    0.0040 ha        1 974      0.167000
     61 H26        -1.7340   -8.7910    1.9890 ha        1 974      0.169000
     62 H301       -1.2330   -5.7410   -0.2680 ha        1 974      0.166000
     63 H302       -4.2070   -8.7360   -1.1960 h4        1 974      0.146500
     64 H303       -4.5590   -7.1070   -2.1000 h4        1 974      0.146500
     65 H28        -4.0680   -5.0160   -0.9150 h4        1 974      0.146500
     66 H29        -3.3520   -5.1420    0.8380 h4        1 974      0.146500
     67 H123       -2.4160    1.3730    1.0810 hn        1 974      0.286000
     68 O2          1.0940   -5.9330   -2.0970 os        1 974     -0.111000
@<TRIPOS>BOND
     1    1    2 1   
     2    1   19 1   
     3    2    3 1   
     4    2    7 1   
     5    3    4 1   
     6    3   41 1   
     7    3   42 1   
     8    4    5 1   
     9    4    9 1   
    10    5    6 1   
    11    5   43 1   
    12    6    7 1   
    13    7    8 1   
    14    8   44 1   
    15    9   10 1   
    16    9   11 1   
    17   10   45 1   
    18   11   46 1   
    19   11   47 1   
    20   11   67 1   
    21   12   13 1   
    22   12   14 1   
    23   12   19 1   
    24   14   15 1   
    25   14   20 1   
    26   14   49 1   
    27   15   16 1   
    28   15   17 1   
    29   17   18 1   
    30   17   68 1   
    31   18   19 1   
    32   18   48 1   
    33   20   21 1   
    34   20   25 1   
    35   21   22 1   
    36   21   50 1   
    37   21   51 1   
    38   22   23 1   
    39   22   26 1   
    40   22   52 1   
    41   23   24 1   
    42   23   53 1   
    43   23   54 1   
    44   24   25 1   
    45   24   55 1   
    46   24   56 1   
    47   25   57 1   
    48   26   27 1   
    49   26   28 1   
    50   29   30 1   
    51   29   34 1   
    52   29   68 1   
    53   30   31 1   
    54   30   58 1   
    55   30   59 1   
    56   31   32 1   
    57   31   60 1   
    58   32   33 1   
    59   32   34 1   
    60   33   35 1   
    61   33   61 1   
    62   34   62 1   
    63   35   36 1   
    64   35   38 1   
    65   36   37 1   
    66   36   39 1   
    67   37   63 1   
    68   37   64 1   
    69   38   40 1   
    70   39   65 1   
    71   39   66 1   
@<TRIPOS>SUBSTRUCTURE
     1 974         1 TEMP              0 ****  ****    0 ROOT
