@<TRIPOS>MOLECULE
974
   68    69     1     0     0
SMALL
bcc


@<TRIPOS>ATOM
      1 O1         -1.7630   -0.9850    1.1020 os        1 974     -0.146000
      2 C11        -0.5110   -1.5100    1.4080 c2        1 974      0.043000
      3 C12         0.5630   -0.6960    1.4220 c2        1 974     -0.228000
      4 C13         1.9130   -1.1960    1.8030 c3        1 974     -0.030000
      5 C14         2.0200   -2.6880    1.7640 c2        1 974     -0.196000
      6 C15         0.9490   -3.4890    1.7470 c2        1 974     -0.133000
      7 C16        -0.4180   -2.9340    1.8430 c2        1 974      0.261000
      8 O11        -1.3830   -3.5680    2.2730 o         1 974     -0.223000
      9 C17         2.3410   -0.7060    3.2050 c2        1 974      0.284000
     10 N11         1.4740   -0.0130    3.9680 n3        1 974     -0.309500
     11 N12         3.5970   -0.9940    3.6110 n3        1 974     -0.309500
     12 C1         -2.6060   -0.4710   -1.0740 c2        1 974      0.028000
     13 F1         -2.2840    0.8270   -0.9200 f         1 974     -0.076000
     14 C2         -3.3560   -0.8450   -2.3500 c3        1 974      0.092000
     15 C3         -3.1520   -2.3330   -2.6030 c2        1 974     -0.041000
     16 F2         -3.3370   -2.7530   -3.8710 f         1 974     -0.077000
     17 C4         -2.8080   -3.2030   -1.6040 c2        1 974      0.096000
     18 N5         -2.4380   -2.7890   -0.3130 n3        1 974     -0.278000
     19 C6         -2.2990   -1.4090   -0.1270 c2        1 974      0.057000
     20 N31        -4.7330   -0.3930   -2.2880 n3        1 974     -0.261000
     21 C32        -5.2750    0.2360   -3.4750 c3        1 974     -0.013000
     22 C33        -5.7720   -0.6650   -4.5630 c2        1 974     -0.206000
     23 C34        -6.8920   -0.4260   -5.2400 c2        1 974     -0.203000
     24 C35        -6.9370   -1.1930   -1.5570 c2        1 974     -0.284000
     25 C36        -5.6040   -1.0940   -1.4410 c2        1 974     -0.044000
     26 C37        -2.0470    1.5620   -6.1030 c1        1 974      0.420000
     27 O31        -1.7800    1.9910   -7.1780 o         1 974     -0.209500
     28 O32        -2.3100    1.1330   -5.0230 o         1 974     -0.209500
     29 C21        -1.6240   -5.2220   -1.5030 c2        1 974     -0.011000
     30 C22        -0.6700   -5.7220   -2.5610 c3        1 974     -0.106000
     31 C23         0.3960   -6.3850   -1.7310 c2        1 974     -0.269000
     32 C24         0.0920   -6.2780   -0.3940 c2        1 974      0.045000
     33 C25         0.8520   -6.6100    0.7120 c1        1 974     -0.357000
     34 C26        -1.1990   -5.5650   -0.2560 c2        1 974     -0.155000
     35 C27         1.3370   -7.5160    1.5030 c2        1 974      0.058000
     36 N21         1.0120   -8.9850    1.2930 n3        1 974     -0.008000
     37 C30         1.2360   -9.4690   -0.0560 c3        1 974     -0.158000
     38 N22         2.1700   -7.2990    2.5880 n2        1 974     -0.269000
     39 C28         0.4480   -9.7110    2.2030 c2        1 974     -0.034000
     40 C29         2.8890   -6.9950    3.4750 c1        1 974      0.101000
     41 H12         0.4900    0.3540    1.0950 ha        1 974      0.174000
     42 H14         2.6560   -0.7610    1.0630 hc        1 974      0.166000
     43 H15         3.0390   -3.0990    1.6840 ha        1 974      0.155000
     44 HO11        1.0190   -4.5990    1.6220 ha        1 974      0.243000
     45 HN11        0.5560    0.1780    3.6170 hn        1 974      0.278500
     46 H121        1.6970    0.3160    4.8840 hn        1 974      0.278500
     47 H122        3.9530   -0.7390    4.5080 hn        1 974      0.278500
     48 HN5        -2.7790   -3.3280    0.4590 hn        1 974      0.257000
     49 H321       -2.8500   -0.2900   -3.2050 h1        1 974      0.154000
     50 H322       -4.4690    0.8970   -3.9160 h1        1 974      0.105000
     51 H33        -6.1130    0.9080   -3.1230 h1        1 974      0.105000
     52 H341       -5.1360   -1.5380   -4.7910 ha        1 974      0.135000
     53 H342       -7.2280   -1.0720   -6.0620 ha        1 974      0.116500
     54 H351       -7.5500    0.4270   -5.0240 ha        1 974      0.116500
     55 H352       -7.5090   -0.7980   -2.4050 ha        1 974      0.125500
     56 H361       -7.5270   -1.6910   -0.7780 ha        1 974      0.125500
     57 H362       -5.0830   -1.5380   -0.5680 h4        1 974      0.122000
     58 H22        -0.2620   -4.8780   -3.1710 hc        1 974      0.126000
     59 H23        -1.1750   -6.4470   -3.2470 hc        1 974      0.126000
     60 H24         1.2780   -6.8290   -2.1830 ha        1 974      0.142000
     61 H26        -1.6650   -5.3660    0.7090 ha        1 974      0.156000
     62 H301        0.7500   -8.7610   -0.7870 h1        1 974      0.130000
     63 H302        0.8200  -10.5010   -0.1960 h1        1 974      0.130000
     64 H303        2.3440   -9.4790   -0.2460 h1        1 974      0.130000
     65 H28         0.1060  -10.7460    2.0050 h4        1 974      0.169500
     66 H29         0.2800   -9.3050    3.2190 h4        1 974      0.169500
     67 H123        4.1820   -1.5450    3.0180 hn        1 974      0.278500
     68 O2         -2.7970   -4.5770   -1.8610 os        1 974     -0.128000
@<TRIPOS>BOND
     1    1    2 1   
     2    1   19 1   
     3    2    3 1   
     4    2    7 1   
     5    3    4 1   
     6    3   41 1   
     7    4    5 1   
     8    4    9 1   
     9    4   42 1   
    10    5    6 1   
    11    5   43 1   
    12    6    7 1   
    13    6   44 1   
    14    7    8 1   
    15    9   10 1   
    16    9   11 1   
    17   10   45 1   
    18   10   46 1   
    19   11   47 1   
    20   11   67 1   
    21   12   13 1   
    22   12   14 1   
    23   12   19 1   
    24   14   15 1   
    25   14   20 1   
    26   14   49 1   
    27   15   16 1   
    28   15   17 1   
    29   17   18 1   
    30   17   68 1   
    31   18   19 1   
    32   18   48 1   
    33   20   21 1   
    34   20   25 1   
    35   21   22 1   
    36   21   50 1   
    37   21   51 1   
    38   22   23 1   
    39   22   52 1   
    40   23   53 1   
    41   23   54 1   
    42   24   25 1   
    43   24   55 1   
    44   24   56 1   
    45   25   57 1   
    46   26   27 1   
    47   26   28 1   
    48   29   30 1   
    49   29   34 1   
    50   29   68 1   
    51   30   31 1   
    52   30   58 1   
    53   30   59 1   
    54   31   32 1   
    55   31   60 1   
    56   32   33 1   
    57   32   34 1   
    58   33   35 1   
    59   34   61 1   
    60   35   36 1   
    61   35   38 1   
    62   36   37 1   
    63   36   39 1   
    64   37   62 1   
    65   37   63 1   
    66   37   64 1   
    67   38   40 1   
    68   39   65 1   
    69   39   66 1   
@<TRIPOS>SUBSTRUCTURE
     1 974         1 TEMP              0 ****  ****    0 ROOT
