@<TRIPOS>MOLECULE
974
   67    71     1     0     0
SMALL
bcc


@<TRIPOS>ATOM
      1 O1         13.3330   36.5760   12.5390 os        1 974     -0.204200
      2 C11        13.1570   36.3500   11.1680 ca        1 974      0.015100
      3 C12        12.0250   35.6420   10.7490 ca        1 974     -0.064000
      4 C13        11.9250   35.2480    9.4140 ca        1 974     -0.213900
      5 C14        12.9450   35.5570    8.5050 ca        1 974     -0.041000
      6 C15        14.0650   36.2740    8.9170 ca        1 974     -0.205000
      7 C16        14.1760   36.6820   10.2540 ca        1 974      0.132100
      8 O11        15.2320   37.4260   10.7210 oh        1 974     -0.517100
      9 C17        10.7040   34.5070    8.9550 ce        1 974      0.633800
     10 N11         9.4900   34.9400    9.1160 n2        1 974     -0.811100
     11 N12        10.9880   33.3180    8.2470 nh        1 974     -0.887800
     12 C1         11.7620   37.8480   13.8350 ca        1 974      0.027900
     13 F1         11.0380   36.7170   13.9730 f         1 974     -0.082900
     14 C2         11.3670   39.0870   14.5130 ca        1 974      0.240600
     15 C3         12.1870   40.2440   14.1430 ca        1 974      0.010900
     16 F2         11.9740   41.4530   14.7070 f         1 974     -0.090900
     17 C4         13.2500   40.1240   13.2480 ca        1 974      0.182800
     18 N5         13.6030   38.9260   12.6650 na        1 974     -0.195100
     19 C6         12.8790   37.8040   13.0020 ca        1 974      0.175800
     20 N31        10.3350   39.1360   15.3610 nh        1 974     -0.521000
     21 C32         9.9230   37.9970   16.2040 c3        1 974      0.180800
     22 C33         9.9820   38.3160   17.6940 c3        1 974     -0.231700
     23 C34         9.2720   39.6020   18.0450 c3        1 974     -0.073400
     24 C35         9.7250   40.7490   17.1650 c3        1 974     -0.092400
     25 C36         9.6040   40.3580   15.6930 c3        1 974      0.172800
     26 C37         9.2580   37.1160   18.4190 c         1 974      0.929600
     27 O31         8.1690   36.7370   17.9150 o         1 974     -0.796300
     28 O32         9.8390   36.6490   19.4250 o         1 974     -0.796300
     29 C21        13.6270   42.1530   12.1070 ca        1 974      0.068100
     30 C22        13.0210   41.8250   10.8910 ca        1 974     -0.156000
     31 C23        12.6560   42.8600   10.0320 ca        1 974     -0.109000
     32 C24        12.9010   44.1880   10.3790 ca        1 974     -0.123000
     33 C25        13.5190   44.5010   11.5970 ca        1 974     -0.084500
     34 C26        13.8800   43.4760   12.4850 ca        1 974     -0.076000
     35 C27        13.7600   45.8870   11.9940 cc        1 974      0.419000
     36 N21        14.2090   46.9050   11.1220 na        1 974     -0.185900
     37 C30        14.5450   46.7910    9.7420 c3        1 974      0.016600
     38 N22        13.5830   46.3790   13.2540 nd        1 974     -0.642000
     39 C28        14.3100   48.0680   11.8850 cc        1 974     -0.243600
     40 C29        13.9170   47.7220   13.1940 cd        1 974      0.297200
     41 H12        11.2420   35.3910   11.4850 ha        1 974      0.175000
     42 H14        12.8580   35.2340    7.4540 ha        1 974      0.167000
     43 H15        14.8640   36.5160    8.2010 ha        1 974      0.151000
     44 HO11       15.9320   37.4170   10.0500 ho        1 974      0.445000
     45 HN11        9.4190   35.8390    9.5400 hn        1 974      0.396400
     46 H121       10.1900   32.7590    8.0290 hn        1 974      0.401800
     47 H122       11.7300   32.7930    8.6560 hn        1 974      0.401800
     48 HN5        14.4430   38.8500   12.1190 hn        1 974      0.353700
     49 H321        8.8570   37.7330   15.9290 h1        1 974      0.101200
     50 H322       10.5810   37.1060   16.0150 h1        1 974      0.101200
     51 H33        11.0450   38.3520   18.0430 hc        1 974      0.056700
     52 H341        8.1650   39.4500   17.9330 hc        1 974      0.068700
     53 H342        9.4710   39.8480   19.1210 hc        1 974      0.068700
     54 H351        9.0830   41.6520   17.3330 hc        1 974      0.055200
     55 H352       10.7830   41.0320   17.4000 hc        1 974      0.055200
     56 H361        9.9070   41.2120   15.0310 h1        1 974      0.076200
     57 H362        8.5190   40.1180   15.4730 h1        1 974      0.076200
     58 H22        12.8270   40.7780   10.6210 ha        1 974      0.139000
     59 H23        12.1650   42.6260    9.0750 ha        1 974      0.146000
     60 H24        12.5860   44.9940    9.6980 ha        1 974      0.146000
     61 H26        14.3480   43.7000   13.4560 ha        1 974      0.183000
     62 H301       15.3790   47.5010    9.4950 h1        1 974      0.058033
     63 H302       14.8730   45.7410    9.5130 h1        1 974      0.058033
     64 H303       13.6540   47.0430    9.1030 h1        1 974      0.058033
     65 H28        14.6410   49.0140   11.4620 h4        1 974      0.182000
     66 H29        13.8580   48.3640   14.0730 h4        1 974      0.050100
     67 O2         14.1210   41.1700   12.9840 os        1 974     -0.235200
@<TRIPOS>BOND
     1    1    2 1   
     2    1   19 1   
     3    2    3 ar  
     4    2    7 ar  
     5    3    4 ar  
     6    3   41 1   
     7    4    5 ar  
     8    4    9 1   
     9    5    6 ar  
    10    5   42 1   
    11    6    7 ar  
    12    6   43 1   
    13    7    8 1   
    14    8   44 1   
    15    9   10 2   
    16    9   11 1   
    17   10   45 1   
    18   11   46 1   
    19   11   47 1   
    20   12   13 1   
    21   12   14 ar  
    22   12   19 ar  
    23   14   15 ar  
    24   14   20 1   
    25   15   16 1   
    26   15   17 ar  
    27   17   18 2   
    28   17   67 1   
    29   18   19 1   
    30   18   48 1   
    31   20   21 1   
    32   20   25 1   
    33   21   22 1   
    34   21   49 1   
    35   21   50 1   
    36   22   23 1   
    37   22   26 1   
    38   22   51 1   
    39   23   24 1   
    40   23   52 1   
    41   23   53 1   
    42   24   25 1   
    43   24   54 1   
    44   24   55 1   
    45   25   56 1   
    46   25   57 1   
    47   26   27 1   
    48   26   28 1   
    49   29   30 ar  
    50   29   34 ar  
    51   29   67 1   
    52   30   31 ar  
    53   30   58 1   
    54   31   32 ar  
    55   31   59 1   
    56   32   33 ar  
    57   32   60 1   
    58   33   34 ar  
    59   33   35 1   
    60   34   61 1   
    61   35   36 1   
    62   35   38 2   
    63   36   37 1   
    64   36   39 1   
    65   37   62 1   
    66   37   63 1   
    67   37   64 1   
    68   38   40 1   
    69   39   40 2   
    70   39   65 1   
    71   40   66 1   
@<TRIPOS>SUBSTRUCTURE
     1 974         1 TEMP              0 ****  ****    0 ROOT
