@<TRIPOS>MOLECULE
976
   44    46     1     0     0
SMALL
bcc


@<TRIPOS>ATOM
      1 N          -0.4670   -2.7530   -0.2210 nb        1 976     -0.699000
      2 CL         -5.2950    0.6070   -0.5270 cl        1 976     -0.132400
      3 C1         -3.8740   -0.3380   -0.4470 ca        1 976     -0.000600
      4 O1          3.7270   -1.3170    1.9030 o         1 976     -0.825800
      5 C2         -3.9880   -1.7440   -0.5630 ca        1 976     -0.142000
      6 O2          2.3130    0.2440    2.6350 o         1 976     -0.825800
      7 C3         -2.8650   -2.5260   -0.4920 ca        1 976     -0.161300
      8 C4         -1.5710   -1.9370   -0.3060 ca        1 976      0.389600
      9 C5         -1.4690   -0.5180   -0.2090 ca        1 976     -0.127300
     10 C6         -2.6500    0.2660   -0.2700 ca        1 976     -0.097000
     11 C7          0.7300   -2.2040   -0.0340 ca        1 976      0.462600
     12 C8          0.9480   -0.7700    0.0590 ca        1 976     -0.086600
     13 C9         -0.1660    0.0560   -0.0390 cp        1 976     -0.026000
     14 C10        -0.0700    1.5200    0.0260 cp        1 976     -0.041000
     15 C11         2.3100   -0.1980    0.2600 c3        1 976     -0.173400
     16 C12         2.8220   -0.4580    1.7180 c         1 976      0.924600
     17 C13         3.3080   -0.6620   -0.7890 c3        1 976     -0.062400
     18 C14         4.2260    0.4660   -1.2200 c3        1 976     -0.078400
     19 C15         5.2500   -0.0090   -2.2190 c3        1 976     -0.087100
     20 C16         1.8950   -3.1390    0.0830 c3        1 976     -0.181400
     21 C17         0.3870    2.1530    1.1920 ca        1 976     -0.110500
     22 C18         0.4390    3.5460    1.2510 ca        1 976     -0.147500
     23 C19         0.0510    4.3160    0.1550 ca        1 976     -0.140000
     24 C20        -0.3850    3.6900   -1.0120 ca        1 976     -0.147500
     25 C21        -0.4480    2.2990   -1.0770 ca        1 976     -0.110500
     26 H2         -4.9800   -2.1980   -0.7040 ha        1 976      0.132000
     27 H3         -2.9420   -3.6210   -0.5720 ha        1 976      0.141000
     28 H6         -2.5700    1.3610   -0.1680 ha        1 976      0.155000
     29 H11         2.2390    0.9260    0.1880 hc        1 976      0.061700
     30 H13         3.9340   -1.4920   -0.3590 hc        1 976      0.043200
     31 H13A        2.7730   -1.0610   -1.6910 hc        1 976      0.043200
     32 H14         3.6220    1.2980   -1.6690 hc        1 976      0.039700
     33 H14A        4.7440    0.8790   -0.3140 hc        1 976      0.039700
     34 H15         5.8830   -0.8160   -1.7780 hc        1 976      0.021033
     35 H15A        4.7520   -0.4150   -3.1330 hc        1 976      0.021033
     36 H15B        5.9150    0.8340   -2.5260 hc        1 976      0.021033
     37 H16         2.4550   -3.1510   -0.8850 hc        1 976      0.069700
     38 H16A        2.5840   -2.7870    0.8980 hc        1 976      0.069700
     39 H16B        1.5710   -4.1840    0.3120 hc        1 976      0.069700
     40 H17         0.7500    1.5360    2.0420 ha        1 976      0.170500
     41 H18         0.8010    4.0330    2.1680 ha        1 976      0.122000
     42 H19         0.0970    5.4120    0.2070 ha        1 976      0.114000
     43 H20        -0.6790    4.2920   -1.8830 ha        1 976      0.122000
     44 H21        -0.7920    1.8070   -1.9990 ha        1 976      0.170500
@<TRIPOS>BOND
     1    1    8 ar  
     2    1   11 ar  
     3    2    3 1   
     4    3    5 ar  
     5    3   10 ar  
     6    4   16 1   
     7    5    7 ar  
     8    5   26 1   
     9    6   16 1   
    10    7    8 ar  
    11    7   27 1   
    12    8    9 ar  
    13    9   10 ar  
    14    9   13 ar  
    15   10   28 1   
    16   11   12 ar  
    17   11   20 1   
    18   12   13 ar  
    19   12   15 1   
    20   13   14 1   
    21   14   21 ar  
    22   14   25 ar  
    23   15   16 1   
    24   15   17 1   
    25   15   29 1   
    26   17   18 1   
    27   17   30 1   
    28   17   31 1   
    29   18   19 1   
    30   18   32 1   
    31   18   33 1   
    32   19   34 1   
    33   19   35 1   
    34   19   36 1   
    35   20   37 1   
    36   20   38 1   
    37   20   39 1   
    38   21   22 ar  
    39   21   40 1   
    40   22   23 ar  
    41   22   41 1   
    42   23   24 ar  
    43   23   42 1   
    44   24   25 ar  
    45   24   43 1   
    46   25   44 1   
@<TRIPOS>SUBSTRUCTURE
     1 976         1 TEMP              0 ****  ****    0 ROOT
