@<TRIPOS>MOLECULE
976
   44    38     1     0     0
SMALL
bcc


@<TRIPOS>ATOM
      1 N          -0.4970    0.1590   -2.7210 n1        1 976     -0.173000
      2 CL          5.3740    0.3700   -3.0490 cl        1 976     -0.054000
      3 C1          3.6690    0.3910   -2.6830 c2        1 976     -0.079000
      4 O1         -1.4940    2.6190    1.1710 o         1 976     -0.560500
      5 C2          2.9910    0.3240   -3.8970 c1        1 976     -0.142000
      6 O2         -3.3960    1.6320    0.7670 o         1 976     -0.560500
      7 C3          1.6040    0.2440   -3.9140 c1        1 976     -0.096000
      8 C4          0.8840    0.2300   -2.7040 c1        1 976     -0.004000
      9 C5          1.5550    0.2960   -1.5050 c1        1 976     -0.062000
     10 C6          2.9600    0.3770   -1.4890 c2        1 976     -0.097000
     11 C7         -1.1960    0.1540   -1.5470 c1        1 976      0.040000
     12 C8         -0.5200    0.2200   -0.3330 c1        1 976     -0.014000
     13 C9          0.8450    0.2910   -0.3140 c1        1 976     -0.026000
     14 C10         1.7000    0.2570    0.7760 c1        1 976     -0.041000
     15 C11        -1.4420    0.2340    0.8660 c3        1 976     -0.170000
     16 C12        -2.1510    1.5690    0.9430 c2        1 976      0.344000
     17 C13        -2.4640   -0.8730    0.7300 c3        1 976     -0.141000
     18 C14        -3.1660   -1.0750    2.0530 c3        1 976     -0.157000
     19 C15        -4.2340   -2.1320    1.8990 c3        1 976     -0.205000
     20 C16        -2.4360    0.1300   -2.4180 c3        1 976     -0.205000
     21 C17         2.1960   -0.8780    1.3950 c1        1 976     -0.140500
     22 C18         2.9660   -0.7620    2.5420 c1        1 976     -0.140500
     23 C19         3.2380    0.4900    3.0700 c1        1 976     -0.140500
     24 C20         2.7420    1.6250    2.4520 c1        1 976     -0.140500
     25 C21         1.9720    1.5090    1.3040 c1        1 976     -0.094000
     26 H2          3.4890    0.3310   -4.7360 ha        1 976      0.132000
     27 H3          1.1280    0.1970   -4.7650 ha        1 976      0.141000
     28 H6          3.4380    0.4110   -0.6380 ha        1 976      0.155000
     29 H11        -0.9200    0.0960    1.6790 hc        1 976      0.101000
     30 H13        -3.1200   -0.6280    0.0460 hc        1 976      0.082500
     31 H13A       -2.0140   -1.7020    0.4690 hc        1 976      0.082500
     32 H14        -3.5780   -0.2340    2.3360 hc        1 976      0.079000
     33 H14A       -2.5180   -1.3630    2.7260 hc        1 976      0.079000
     34 H15        -4.6770   -2.2760    2.7610 hc        1 976      0.060333
     35 H15A       -4.8940   -1.8350    1.2380 hc        1 976      0.060333
     36 H15B       -3.8240   -2.9690    1.5980 hc        1 976      0.060333
     37 H16        -3.2160    0.3870   -1.8840 hc        1 976      0.109000
     38 H16A       -2.3260    0.7610   -3.1610 hc        1 976      0.109000
     39 H16B       -2.5680   -0.7740   -2.7750 hc        1 976      0.109000
     40 H17         1.9940   -1.7590    1.0310 ha        1 976      0.121250
     41 H18         3.3290   -1.5600    2.9690 ha        1 976      0.121250
     42 H19         3.7680    0.5710    3.8850 ha        1 976      0.121250
     43 H20         2.9440    2.5080    2.8160 ha        1 976      0.121250
     44 H21         1.8620    2.4350    1.0100 ha        1 976      0.214000
@<TRIPOS>BOND
     1    1    8 1   
     2    2    3 1   
     3    3    5 1   
     4    3   10 1   
     5    4   16 1   
     6    5   26 1   
     7    6   16 1   
     8    7    8 1   
     9    7   27 1   
    10    9   10 1   
    11    9   13 1   
    12   10   28 1   
    13   11   12 1   
    14   11   20 1   
    15   12   15 1   
    16   14   25 1   
    17   15   16 1   
    18   15   17 1   
    19   15   29 1   
    20   17   18 1   
    21   17   30 1   
    22   17   31 1   
    23   18   19 1   
    24   18   32 1   
    25   18   33 1   
    26   19   34 1   
    27   19   35 1   
    28   19   36 1   
    29   20   37 1   
    30   20   38 1   
    31   20   39 1   
    32   21   22 1   
    33   21   40 1   
    34   22   41 1   
    35   23   24 1   
    36   23   42 1   
    37   24   43 1   
    38   25   44 1   
@<TRIPOS>SUBSTRUCTURE
     1 976         1 TEMP              0 ****  ****    0 ROOT
