@<TRIPOS>MOLECULE
976
   44    46     1     0     0
SMALL
bcc


@<TRIPOS>ATOM
      1 N          -0.0010   -0.1690   -0.1070 nb        1 976     -0.699000
      2 Cl          5.8800   -0.3330    0.1790 cl        1 976     -0.132400
      3 C1          4.1730   -0.2950    0.1320 ca        1 976     -0.000600
      4 O1         -0.8460    2.5180    4.0080 o         1 976     -0.825800
      5 C2          3.5280   -0.3820   -1.1250 ca        1 976     -0.142000
      6 O2         -2.8520    1.7540    3.4050 o         1 976     -0.825800
      7 C3          2.1590   -0.3440   -1.1920 ca        1 976     -0.161300
      8 C4          1.3700   -0.2230   -0.0020 ca        1 976      0.389600
      9 C5          2.0320   -0.1540    1.2590 ca        1 976     -0.127300
     10 C6          3.4500   -0.1800    1.2970 ca        1 976     -0.097000
     11 C7         -0.7300   -0.0410    0.9980 ca        1 976      0.462600
     12 C8         -0.1580    0.0180    2.3320 ca        1 976     -0.086600
     13 C9          1.2260   -0.0480    2.4410 cp        1 976     -0.026000
     14 C10         1.9190   -0.0120    3.7360 cp        1 976     -0.041000
     15 C11        -1.0150    0.1520    3.5450 c3        1 976     -0.173400
     16 C12        -1.6250    1.5920    3.6490 c         1 976      0.924600
     17 C13        -2.0800   -0.9290    3.6400 c3        1 976     -0.062400
     18 C14        -2.2490   -1.4180    5.0660 c3        1 976     -0.078400
     19 C15        -3.3420   -2.4500    5.1680 c3        1 976     -0.087100
     20 C16        -2.2170    0.0430    0.8250 c3        1 976     -0.181400
     21 C17         1.8360    1.1230    4.5570 ca        1 976     -0.110500
     22 C18         2.5280    1.1560    5.7670 ca        1 976     -0.147500
     23 C19         3.2920    0.0640    6.1760 ca        1 976     -0.140000
     24 C20         3.3620   -1.0730    5.3710 ca        1 976     -0.147500
     25 C21         2.6800   -1.1130    4.1570 ca        1 976     -0.110500
     26 H2          4.1320   -0.4750   -2.0390 ha        1 976      0.132000
     27 H3          1.6470   -0.4020   -2.1650 ha        1 976      0.141000
     28 H6          3.9590   -0.1000    2.2720 ha        1 976      0.155000
     29 H11        -0.3580    0.0640    4.4580 hc        1 976      0.061700
     30 H13        -3.0610   -0.5100    3.2830 hc        1 976      0.043200
     31 H13A       -1.8140   -1.8000    2.9860 hc        1 976      0.043200
     32 H14        -2.4930   -0.5420    5.7240 hc        1 976      0.039700
     33 H14A       -1.2850   -1.8550    5.4360 hc        1 976      0.039700
     34 H15        -3.1110   -3.3350    4.5270 hc        1 976      0.021033
     35 H15A       -4.3180   -2.0220    4.8340 hc        1 976      0.021033
     36 H15B       -3.4530   -2.8000    6.2230 hc        1 976      0.021033
     37 H16        -2.6720   -0.9470    1.0750 hc        1 976      0.069700
     38 H16A       -2.5000    0.3040   -0.2240 hc        1 976      0.069700
     39 H16B       -2.6350    0.8240    1.5170 hc        1 976      0.069700
     40 H17         1.1790    1.9670    4.2560 ha        1 976      0.170500
     41 H18         2.4550    2.0480    6.4060 ha        1 976      0.122000
     42 H19         3.8330    0.0940    7.1320 ha        1 976      0.114000
     43 H20         3.9530   -1.9420    5.6940 ha        1 976      0.122000
     44 H21         2.7350   -2.0100    3.5230 ha        1 976      0.170500
@<TRIPOS>BOND
     1    1    8 ar  
     2    1   11 ar  
     3    2    3 1   
     4    3    5 ar  
     5    3   10 ar  
     6    4   16 1   
     7    5    7 ar  
     8    5   26 1   
     9    6   16 1   
    10    7    8 ar  
    11    7   27 1   
    12    8    9 ar  
    13    9   10 ar  
    14    9   13 ar  
    15   10   28 1   
    16   11   12 ar  
    17   11   20 1   
    18   12   13 ar  
    19   12   15 1   
    20   13   14 1   
    21   14   21 ar  
    22   14   25 ar  
    23   15   16 1   
    24   15   17 1   
    25   15   29 1   
    26   17   18 1   
    27   17   30 1   
    28   17   31 1   
    29   18   19 1   
    30   18   32 1   
    31   18   33 1   
    32   19   34 1   
    33   19   35 1   
    34   19   36 1   
    35   20   37 1   
    36   20   38 1   
    37   20   39 1   
    38   21   22 ar  
    39   21   40 1   
    40   22   23 ar  
    41   22   41 1   
    42   23   24 ar  
    43   23   42 1   
    44   24   25 ar  
    45   24   43 1   
    46   25   44 1   
@<TRIPOS>SUBSTRUCTURE
     1 976         1 TEMP              0 ****  ****    0 ROOT
