@<TRIPOS>MOLECULE
976
   44    46     1     0     0
SMALL
bcc


@<TRIPOS>ATOM
      1 N          -0.0010   -0.1570   -0.1060 nb        1 976     -0.699000
      2 CL          5.8800   -0.3180    0.1800 cl        1 976     -0.132400
      3 C1          4.1730   -0.2810    0.1330 ca        1 976     -0.000600
      4 O1         -0.8480    2.5070    4.0240 o         1 976     -0.825800
      5 C2          3.5280   -0.3620   -1.1250 ca        1 976     -0.142000
      6 O2         -2.8540    1.7450    3.4160 o         1 976     -0.825800
      7 C3          2.1590   -0.3250   -1.1910 ca        1 976     -0.161300
      8 C4          1.3690   -0.2100   -0.0010 ca        1 976      0.389600
      9 C5          2.0310   -0.1480    1.2600 ca        1 976     -0.127300
     10 C6          3.4500   -0.1730    1.2990 ca        1 976     -0.097000
     11 C7         -0.7310   -0.0360    1.0000 ca        1 976      0.462600
     12 C8         -0.1590    0.0170    2.3340 ca        1 976     -0.086600
     13 C9          1.2260   -0.0490    2.4430 cp        1 976     -0.026000
     14 C10         1.9180   -0.0200    3.7380 cp        1 976     -0.041000
     15 C11        -1.0160    0.1440    3.5480 c3        1 976     -0.173400
     16 C12        -1.6270    1.5830    3.6590 c         1 976      0.924600
     17 C13        -2.0810   -0.9390    3.6370 c3        1 976     -0.062400
     18 C14        -2.2490   -1.4340    5.0610 c3        1 976     -0.078400
     19 C15        -3.3420   -2.4680    5.1570 c3        1 976     -0.087100
     20 C16        -2.2170    0.0490    0.8270 c3        1 976     -0.181400
     21 C17         1.8350    1.1110    4.5650 ca        1 976     -0.110500
     22 C18         2.5260    1.1370    5.7760 ca        1 976     -0.147500
     23 C19         3.2920    0.0440    6.1780 ca        1 976     -0.140000
     24 C20         3.3620   -1.0890    5.3680 ca        1 976     -0.147500
     25 C21         2.6800   -1.1220    4.1530 ca        1 976     -0.110500
     26 H2          4.1320   -0.4490   -2.0390 ha        1 976      0.132000
     27 H3          1.6470   -0.3780   -2.1650 ha        1 976      0.141000
     28 H6          3.9580   -0.0980    2.2740 ha        1 976      0.155000
     29 H11        -0.3590    0.0510    4.4610 hc        1 976      0.061700
     30 H13        -3.0620   -0.5190    3.2820 hc        1 976      0.043200
     31 H13A       -1.8140   -1.8060    2.9790 hc        1 976      0.043200
     32 H14        -2.4940   -0.5620    5.7230 hc        1 976      0.039700
     33 H14A       -1.2850   -1.8730    5.4280 hc        1 976      0.039700
     34 H15        -3.1110   -3.3490    4.5110 hc        1 976      0.021033
     35 H15A       -3.4520   -2.8230    6.2100 hc        1 976      0.021033
     36 H15B       -4.3180   -2.0380    4.8250 hc        1 976      0.021033
     37 H16        -2.6360    0.8250    1.5230 hc        1 976      0.069700
     38 H16A       -2.6720   -0.9430    1.0720 hc        1 976      0.069700
     39 H16B       -2.5010    0.3150   -0.2200 hc        1 976      0.069700
     40 H17         1.1770    1.9560    4.2690 ha        1 976      0.170500
     41 H18         2.4530    2.0270    6.4190 ha        1 976      0.122000
     42 H19         3.8320    0.0700    7.1340 ha        1 976      0.114000
     43 H20         3.9530   -1.9580    5.6860 ha        1 976      0.122000
     44 H21         2.7360   -2.0160    3.5140 ha        1 976      0.170500
@<TRIPOS>BOND
     1    1    8 ar  
     2    1   11 ar  
     3    2    3 1   
     4    3    5 ar  
     5    3   10 ar  
     6    4   16 1   
     7    5    7 ar  
     8    5   26 1   
     9    6   16 1   
    10    7    8 ar  
    11    7   27 1   
    12    8    9 ar  
    13    9   10 ar  
    14    9   13 ar  
    15   10   28 1   
    16   11   12 ar  
    17   11   20 1   
    18   12   13 ar  
    19   12   15 1   
    20   13   14 1   
    21   14   21 ar  
    22   14   25 ar  
    23   15   16 1   
    24   15   17 1   
    25   15   29 1   
    26   17   18 1   
    27   17   30 1   
    28   17   31 1   
    29   18   19 1   
    30   18   32 1   
    31   18   33 1   
    32   19   34 1   
    33   19   35 1   
    34   19   36 1   
    35   20   37 1   
    36   20   38 1   
    37   20   39 1   
    38   21   22 ar  
    39   21   40 1   
    40   22   23 ar  
    41   22   41 1   
    42   23   24 ar  
    43   23   42 1   
    44   24   25 ar  
    45   24   43 1   
    46   25   44 1   
@<TRIPOS>SUBSTRUCTURE
     1 976         1 TEMP              0 ****  ****    0 ROOT
