@<TRIPOS>MOLECULE
977
   24    25     1     0     0
SMALL
bcc


@<TRIPOS>ATOM
      1 N1         -0.0100   -0.3460   -0.0050 n4        1 977     -0.817300
      2 C2          1.4740   -0.1620   -0.0140 ca        1 977      0.734900
      3 N3          2.0840   -0.1650    1.2000 nb        1 977     -0.682000
      4 C4          3.4420    0.0000    1.1880 cp        1 977      0.585800
      5 C5          4.1650    0.1800   -0.0170 ca        1 977     -0.237500
      6 BR6         5.9980    0.4650   -0.0180 br        1 977      0.066900
      7 C7          3.3990    0.1540   -1.2300 ca        1 977      0.716600
      8 O8          4.0590    0.3080   -2.4070 oh        1 977     -0.551300
      9 N9          2.0460   -0.0180   -1.2500 nb        1 977     -0.770000
     10 C10         4.1220   -0.0120    2.4960 cp        1 977     -0.210500
     11 C11         4.9940   -1.0590    2.8210 ca        1 977     -0.084500
     12 C12         5.6280   -1.0650    4.0620 ca        1 977     -0.124000
     13 C13         5.3960   -0.0350    4.9750 ca        1 977     -0.085000
     14 C14         4.5200    1.0020    4.6510 ca        1 977     -0.124000
     15 C15         3.8730    1.0140    3.4160 ca        1 977     -0.084500
     16 HN11       -0.3420   -0.4570    0.9630 hn        1 977      0.482467
     17 HN12       -0.4530    0.4780   -0.4310 hn        1 977      0.482467
     18 HO8         3.4400    0.2790   -3.1620 ho        1 977      0.473000
     19 H11         5.1790   -1.8750    2.1060 ha        1 977      0.141000
     20 H12         6.3150   -1.8860    4.3190 ha        1 977      0.154500
     21 H13         5.9040   -0.0420    5.9520 ha        1 977      0.155000
     22 H14         4.3360    1.8140    5.3720 ha        1 977      0.154500
     23 H15         3.1800    1.8300    3.1660 ha        1 977      0.141000
     24 H131       -0.2480   -1.1830   -0.5510 hn        1 977      0.482467
@<TRIPOS>BOND
     1    1    2 1   
     2    1   16 1   
     3    1   17 1   
     4    1   24 1   
     5    2    3 ar  
     6    2    9 ar  
     7    3    4 ar  
     8    4    5 ar  
     9    4   10 1   
    10    5    6 1   
    11    5    7 ar  
    12    7    8 1   
    13    7    9 ar  
    14    8   18 1   
    15   10   11 ar  
    16   10   15 ar  
    17   11   12 ar  
    18   11   19 1   
    19   12   13 ar  
    20   12   20 1   
    21   13   14 ar  
    22   13   21 1   
    23   14   15 ar  
    24   14   22 1   
    25   15   23 1   
@<TRIPOS>SUBSTRUCTURE
     1 977         1 TEMP              0 ****  ****    0 ROOT
