@<TRIPOS>MOLECULE
977
   23    18     1     0     0
SMALL
bcc


@<TRIPOS>ATOM
      1 N1         -3.6430    0.0490   -1.5610 nh        1 977     -0.896800
      2 C2         -2.2380    0.0840   -1.5790 ce        1 977      0.883500
      3 N3         -1.5390   -0.0070   -0.3970 n1        1 977     -0.804400
      4 C4         -0.2480   -0.0640   -0.4080 c1        1 977      0.471800
      5 C5          0.4480   -0.0330   -1.6400 c1        1 977     -0.115200
      6 BR6         2.3540    0.0950   -1.6510 br        1 977     -0.127800
      7 C7         -0.2430    0.0560   -2.7980 ch        1 977      0.273000
      8 O8          0.4410   -0.0250   -4.0510 o         1 977     -0.222000
      9 N9         -1.5700    0.1140   -2.7740 nf        1 977     -0.652700
     10 C10         0.4680   -0.0800    0.8150 c1        1 977     -0.052000
     11 C11         0.8780    1.1120    1.3930 c1        1 977     -0.061500
     12 C12         1.5590    1.0970    2.5940 c1        1 977     -0.061500
     13 C13         1.8350   -0.1170    3.2250 c1        1 977     -0.061500
     14 C14         1.4290   -1.3020    2.6510 c1        1 977     -0.061500
     15 C15         0.7440   -1.2870    1.4440 c1        1 977     -0.037500
     16 HN11       -4.0890    0.7110   -1.2230 hn        1 977      0.441300
     17 HN12       -4.0680   -0.6920   -1.8010 hn        1 977      0.441300
     18 HO8         0.5760    0.7780   -4.3600 ho        1 977      0.246000
     19 H11         0.6910    1.9450    0.9560 ha        1 977      0.078750
     20 H12         1.8380    1.9120    2.9910 ha        1 977      0.078750
     21 H13         2.2930   -0.1280    4.0310 ha        1 977      0.078750
     22 H14         1.6190   -2.1350    3.0840 ha        1 977      0.078750
     23 H15         0.4650   -2.0860    1.0590 ha        1 977      0.083500
@<TRIPOS>BOND
     1    1    2 1   
     2    1   16 1   
     3    1   17 1   
     4    2    3 1   
     5    2    9 2   
     6    3    4 3   
     7    5    6 1   
     8    5    7 3   
     9    7    9 1   
    10    8   18 1   
    11   10   15 3   
    12   11   12 3   
    13   11   19 1   
    14   12   20 1   
    15   13   14 3   
    16   13   21 1   
    17   14   22 1   
    18   15   23 1   
@<TRIPOS>SUBSTRUCTURE
     1 977         1 TEMP              0 ****  ****    0 ROOT
