@<TRIPOS>MOLECULE
977
   23    24     1     0     0
SMALL
bcc


@<TRIPOS>ATOM
      1 N1          3.2070   -0.5660    2.8400 nh        1 977     -0.942500
      2 C2          2.0140   -0.2940    2.1940 ca        1 977      0.921900
      3 N3          2.0120   -0.3270    0.8000 nb        1 977     -0.768000
      4 C4          0.8610    0.0050    0.1870 cp        1 977      0.595800
      5 C5         -0.3100    0.3750    0.8960 ca        1 977     -0.410500
      6 BR6        -1.8760    0.8730    0.0280 br        1 977     -0.054100
      7 C7         -0.2100    0.3540    2.3180 ca        1 977      0.720600
      8 O8         -1.2550    0.6660    3.1470 oh        1 977     -0.583300
      9 N9          0.9160    0.0220    2.9900 nb        1 977     -0.770000
     10 C10         0.8520   -0.0240   -1.2940 cp        1 977     -0.160500
     11 C11         0.1870   -1.0530   -1.9700 ca        1 977     -0.093000
     12 C12         0.1870   -1.0750   -3.3640 ca        1 977     -0.133500
     13 C13         0.8500   -0.0800   -4.0820 ca        1 977     -0.117000
     14 C14         1.5210    0.9390   -3.4050 ca        1 977     -0.133500
     15 C15         1.5300    0.9670   -2.0110 ca        1 977     -0.093000
     16 HN11        3.2040   -0.6830    3.8240 hn        1 977      0.448300
     17 HN12        3.9610   -0.9340    2.3140 hn        1 977      0.448300
     18 HO8        -2.0170    0.8970    2.5860 ho        1 977      0.441000
     19 H11        -0.3350   -1.8390   -1.4050 ha        1 977      0.141000
     20 H12        -0.3370   -1.8820   -3.8970 ha        1 977      0.135000
     21 H13         0.8470   -0.1000   -5.1820 ha        1 977      0.133000
     22 H14         2.0480    1.7220   -3.9700 ha        1 977      0.135000
     23 H15         2.0670    1.7640   -1.4760 ha        1 977      0.141000
@<TRIPOS>BOND
     1    1    2 1   
     2    1   16 1   
     3    1   17 1   
     4    2    3 ar  
     5    2    9 ar  
     6    3    4 ar  
     7    4    5 ar  
     8    4   10 1   
     9    5    6 1   
    10    5    7 ar  
    11    7    8 1   
    12    7    9 ar  
    13    8   18 1   
    14   10   11 ar  
    15   10   15 ar  
    16   11   12 ar  
    17   11   19 1   
    18   12   13 ar  
    19   12   20 1   
    20   13   14 ar  
    21   13   21 1   
    22   14   15 ar  
    23   14   22 1   
    24   15   23 1   
@<TRIPOS>SUBSTRUCTURE
     1 977         1 TEMP              0 ****  ****    0 ROOT
