@<TRIPOS>MOLECULE
977
   23    24     1     0     0
SMALL
bcc


@<TRIPOS>ATOM
      1 N1          0.0490   -0.4310   -0.0210 nv        1 977     -0.937500
      2 C2          1.4290   -0.2750   -0.0240 ca        1 977      0.921900
      3 N3          2.0820   -0.2690    1.2060 nb        1 977     -0.764000
      4 C4          3.4080   -0.0290    1.1920 cp        1 977      0.581800
      5 C5          4.1430    0.2110    0.0010 ca        1 977     -0.339500
      6 Br6         5.9610    0.5860    0.0300 br        1 977     -0.034100
      7 C7          3.3860    0.1560   -1.2020 ca        1 977      0.719600
      8 O8          4.0410    0.3550   -2.3880 oh        1 977     -0.593300
      9 N9          2.0540   -0.0900   -1.2490 nb        1 977     -0.839000
     10 C10         4.1000   -0.0210    2.5020 cp        1 977     -0.159500
     11 C11         4.9420   -1.0800    2.8570 ca        1 977     -0.092500
     12 C12         5.5840   -1.0670    4.0940 ca        1 977     -0.134500
     13 C13         5.3870   -0.0050    4.9760 ca        1 977     -0.117000
     14 C14         4.5400    1.0460    4.6240 ca        1 977     -0.134500
     15 C15         3.8900    1.0390    3.3900 ca        1 977     -0.092500
     16 HN11       -0.4020   -0.6300   -0.8810 hn        1 977      0.441300
     17 HN12       -0.3810   -0.7470    0.8150 hn        1 977      0.441300
     18 HO8         3.4070    0.3000   -3.1250 ho        1 977      0.447000
     19 H11         5.0980   -1.9190    2.1610 ha        1 977      0.141500
     20 H12         6.2480   -1.8990    4.3730 ha        1 977      0.135000
     21 H13         5.8970    0.0030    5.9500 ha        1 977      0.133000
     22 H14         4.3810    1.8830    5.3200 ha        1 977      0.135000
     23 H15         3.2140    1.8620    3.1150 ha        1 977      0.141500
@<TRIPOS>BOND
     1    1    2 1   
     2    1   16 1   
     3    1   17 1   
     4    2    3 ar  
     5    2    9 ar  
     6    3    4 ar  
     7    4    5 ar  
     8    4   10 1   
     9    5    6 1   
    10    5    7 ar  
    11    7    8 1   
    12    7    9 ar  
    13    8   18 1   
    14   10   11 ar  
    15   10   15 ar  
    16   11   12 ar  
    17   11   19 1   
    18   12   13 ar  
    19   12   20 1   
    20   13   14 ar  
    21   13   21 1   
    22   14   15 ar  
    23   14   22 1   
    24   15   23 1   
@<TRIPOS>SUBSTRUCTURE
     1 977         1 TEMP              0 ****  ****    0 ROOT
