@<TRIPOS>MOLECULE
979
   55    59     1     0     0
SMALL
bcc


@<TRIPOS>ATOM
      1 C1          0.0070   -0.2760   -0.0260 ca        1 979      0.682900
      2 N2          1.3640   -0.3850   -0.0380 nb        1 979     -0.710000
      3 C3          1.8870   -0.2800    1.2080 ca        1 979      0.616600
      4 C4          1.1350   -0.0760    2.4140 ca        1 979     -0.393400
      5 C5         -0.2850    0.0320    2.2730 ca        1 979      0.741200
      6 N6         -0.8400   -0.0860    1.0150 nb        1 979     -0.778000
      7 O8          3.2460   -0.3660    1.5040 os        1 979     -0.298400
      8 C9          3.3490   -0.2190    2.9140 cc        1 979      0.096900
      9 C10         2.1010   -0.0480    3.4920 cd        1 979     -0.034400
     10 N11        -1.0670    0.3030    3.3770 nu        1 979     -0.855900
     11 C12        -2.5060    0.2160    3.3250 c3        1 979      0.207800
     12 C13        -3.1450    0.5580    4.6910 c3        1 979      0.157800
     13 N16        -4.5690    0.2550    4.7250 n3        1 979     -0.727600
     14 C33         1.7750    0.1120    4.8960 ca        1 979     -0.045800
     15 C34         1.3370    1.3520    5.3830 ca        1 979     -0.117500
     16 C35         1.0150    1.5010    6.7310 ca        1 979     -0.135500
     17 C36         1.1210    0.4170    7.6020 ca        1 979     -0.126000
     18 C37         1.5520   -0.8200    7.1220 ca        1 979     -0.135500
     19 C38         1.8800   -0.9750    5.7770 ca        1 979     -0.117500
     20 C44         4.7010   -0.2700    3.4200 ca        1 979     -0.043800
     21 C45         5.7400   -0.7660    2.6150 ca        1 979     -0.101500
     22 C46         7.0430   -0.8130    3.1040 ca        1 979     -0.135000
     23 C47         7.3250   -0.3670    4.3960 ca        1 979     -0.116000
     24 C48         6.2980    0.1290    5.1990 ca        1 979     -0.135000
     25 C49         4.9920    0.1810    4.7170 ca        1 979     -0.101500
     26 C2         -5.0880    0.3090    6.0870 c3        1 979      0.165800
     27 C7         -5.3430    1.0730    3.8010 c3        1 979      0.165800
     28 C11        -6.6030    0.0390    6.1620 c3        1 979      0.161300
     29 C15        -6.8600    0.8100    3.8880 c3        1 979      0.161300
     30 N1         -7.3650    0.8610    5.2450 n7        1 979     -0.820200
     31 H1         -0.4820   -0.3590   -1.0210 h5        1 979      0.056100
     32 HN11       -0.6250    0.2000    4.2640 hn        1 979      0.442800
     33 H121       -2.8240   -0.8180    3.0050 h1        1 979      0.063700
     34 H122       -2.8730    0.9450    2.5470 h1        1 979      0.063700
     35 H131       -2.9410    1.6440    4.9230 h1        1 979      0.037700
     36 H132       -2.6530   -0.0610    5.4950 h1        1 979      0.037700
     37 H38         2.2240   -1.9500    5.4010 ha        1 979      0.146000
     38 H37         1.6380   -1.6760    7.8070 ha        1 979      0.137000
     39 H36         0.8670    0.5380    8.6650 ha        1 979      0.135000
     40 H35         0.6790    2.4790    7.1060 ha        1 979      0.137000
     41 H34         1.2540    2.2090    4.6960 ha        1 979      0.146000
     42 H45         5.5180   -1.1130    1.5930 ha        1 979      0.148500
     43 H46         7.8510   -1.2030    2.4680 ha        1 979      0.136000
     44 H47         8.3550   -0.4060    4.7800 ha        1 979      0.134000
     45 H48         6.5170    0.4840    6.2170 ha        1 979      0.136000
     46 H49         4.1830    0.5750    5.3530 ha        1 979      0.148500
     47 H21        -4.8740    1.3050    6.5740 h1        1 979      0.039200
     48 H22        -4.5660   -0.4890    6.6860 h1        1 979      0.039200
     49 H2         -5.0130    0.8150    2.7560 h1        1 979      0.039200
     50 H111       -6.7750   -1.0640    5.9920 h1        1 979      0.035700
     51 H112       -6.9460    0.2840    7.2060 h1        1 979      0.035700
     52 H3         -7.0760   -0.1800    3.3890 h1        1 979      0.035700
     53 HN1        -8.3310    0.5920    5.2620 hn        1 979      0.364800
     54 H7         -5.1570    2.1740    3.9650 h1        1 979      0.039200
     55 H15        -7.3830    1.6140    3.2990 h1        1 979      0.035700
@<TRIPOS>BOND
     1    1    2 ar  
     2    1    6 ar  
     3    1   31 1   
     4    2    3 ar  
     5    3    4 ar  
     6    3    7 1   
     7    4    5 ar  
     8    4    9 1   
     9    5    6 ar  
    10    5   10 1   
    11    7    8 1   
    12    8    9 2   
    13    8   20 1   
    14    9   14 1   
    15   10   11 1   
    16   10   32 1   
    17   11   12 1   
    18   11   33 1   
    19   11   34 1   
    20   12   13 1   
    21   12   35 1   
    22   12   36 1   
    23   13   26 1   
    24   13   27 1   
    25   14   15 ar  
    26   14   19 ar  
    27   15   16 ar  
    28   15   41 1   
    29   16   17 ar  
    30   16   40 1   
    31   17   18 ar  
    32   17   39 1   
    33   18   19 ar  
    34   18   38 1   
    35   19   37 1   
    36   20   21 ar  
    37   20   25 ar  
    38   21   22 ar  
    39   21   42 1   
    40   22   23 ar  
    41   22   43 1   
    42   23   24 ar  
    43   23   44 1   
    44   24   25 ar  
    45   24   45 1   
    46   25   46 1   
    47   26   28 1   
    48   26   47 1   
    49   26   48 1   
    50   27   29 1   
    51   27   49 1   
    52   27   54 1   
    53   28   30 1   
    54   28   50 1   
    55   28   51 1   
    56   29   30 1   
    57   29   52 1   
    58   29   55 1   
    59   30   53 1   
@<TRIPOS>SUBSTRUCTURE
     1 979         1 TEMP              0 ****  ****    0 ROOT
