@<TRIPOS>MOLECULE
979
   55    59     1     0     0
SMALL
bcc


@<TRIPOS>ATOM
      1 C1          2.4650   -6.2210    1.6080 ca        1 979      0.682900
      2 N2          2.1830   -5.6690    0.3960 nb        1 979     -0.710000
      3 C3          1.4920   -4.5090    0.5220 ca        1 979      0.616600
      4 C4          1.0880   -3.9080    1.7620 ca        1 979     -0.393400
      5 C5          1.4440   -4.6080    2.9580 ca        1 979      0.741200
      6 N6          2.1590   -5.7840    2.8540 nb        1 979     -0.778000
      7 O8          1.0770   -3.7170   -0.5470 os        1 979     -0.298400
      8 C9          0.4090   -2.6030    0.0280 cc        1 979      0.096900
      9 C10         0.4010   -2.6830    1.4110 cd        1 979     -0.034400
     10 N11         1.0250   -4.1310    4.1830 nh        1 979     -0.855900
     11 C12         1.5280   -4.6780    5.4200 c3        1 979      0.207800
     12 C13         0.9110   -3.9680    6.6470 c3        1 979      0.157800
     13 N16         1.5710   -4.3410    7.8900 n3        1 979     -0.727600
     14 C33        -0.1550   -1.7420    2.3630 ca        1 979     -0.045800
     15 C34        -1.3100   -2.0690    3.0890 ca        1 979     -0.117500
     16 C35        -1.8370   -1.1660    4.0110 ca        1 979     -0.135500
     17 C36        -1.2180    0.0660    4.2200 ca        1 979     -0.126000
     18 C37        -0.0670    0.3950    3.5040 ca        1 979     -0.135500
     19 C38         0.4640   -0.5010    2.5780 ca        1 979     -0.117500
     20 C44        -0.1110   -1.6590   -0.9350 ca        1 979     -0.043800
     21 C45         0.3270   -1.6960   -2.2700 ca        1 979     -0.101500
     22 C46        -0.1760   -0.7860   -3.1960 ca        1 979     -0.135000
     23 C47        -1.1170    0.1670   -2.8050 ca        1 979     -0.116000
     24 C48        -1.5580    0.2060   -1.4830 ca        1 979     -0.135000
     25 C49        -1.0610   -0.7010   -0.5490 ca        1 979     -0.101500
     26 C2          1.1750   -3.4610    8.9830 c3        1 979      0.165800
     27 C7          1.4000   -5.7500    8.2200 c3        1 979      0.165800
     28 C11         1.8160   -3.8500   10.3290 c3        1 979      0.161300
     29 C15         2.0310   -6.1340    9.5730 c3        1 979      0.161300
     30 N1          1.6360   -5.2510   10.6520 n3        1 979     -0.820200
     31 H1          3.0360   -7.1740    1.5720 h5        1 979      0.056100
     32 HN11        0.6720   -3.1990    4.1940 hn        1 979      0.442800
     33 H121        2.6530   -4.5910    5.4570 h1        1 979      0.063700
     34 H122        1.2660   -5.7740    5.4500 h1        1 979      0.063700
     35 H131       -0.1960   -4.1920    6.6750 h1        1 979      0.037700
     36 H132        1.0300   -2.8530    6.5280 h1        1 979      0.037700
     37 H38         1.3690   -0.2380    2.0110 ha        1 979      0.146000
     38 H37         0.4230    1.3670    3.6670 ha        1 979      0.137000
     39 H36        -1.6370    0.7770    4.9470 ha        1 979      0.135000
     40 H35        -2.7480   -1.4270    4.5710 ha        1 979      0.137000
     41 H34        -1.8000   -3.0400    2.9230 ha        1 979      0.146000
     42 H45         1.0670   -2.4510   -2.5790 ha        1 979      0.148500
     43 H46         0.1720   -0.8210   -4.2390 ha        1 979      0.136000
     44 H47        -1.5120    0.8840   -3.5390 ha        1 979      0.134000
     45 H48        -2.3020    0.9540   -1.1720 ha        1 979      0.136000
     46 H49        -1.4120   -0.6680    0.4940 ha        1 979      0.148500
     47 H21         0.0530   -3.4360    9.1120 h1        1 979      0.039200
     48 H22         1.5180   -2.4200    8.7280 h1        1 979      0.039200
     49 H2          1.9150   -6.3540    7.4220 h1        1 979      0.039200
     50 H111        2.9060   -3.5550   10.3010 h1        1 979      0.035700
     51 H112        1.3160   -3.2470   11.1370 h1        1 979      0.035700
     52 H3          1.6800   -7.1710    9.8350 h1        1 979      0.035700
     53 HN1         2.1420   -5.4800   11.4870 hn        1 979      0.364800
     54 H7          0.3110   -6.0450    8.2330 h1        1 979      0.039200
     55 H15         3.1530   -6.1720    9.4420 h1        1 979      0.035700
@<TRIPOS>BOND
     1    1    2 ar  
     2    1    6 ar  
     3    1   31 1   
     4    2    3 ar  
     5    3    4 ar  
     6    3    7 1   
     7    4    5 ar  
     8    4    9 1   
     9    5    6 ar  
    10    5   10 1   
    11    7    8 1   
    12    8    9 2   
    13    8   20 1   
    14    9   14 1   
    15   10   11 1   
    16   10   32 1   
    17   11   12 1   
    18   11   33 1   
    19   11   34 1   
    20   12   13 1   
    21   12   35 1   
    22   12   36 1   
    23   13   26 1   
    24   13   27 1   
    25   14   15 ar  
    26   14   19 ar  
    27   15   16 ar  
    28   15   41 1   
    29   16   17 ar  
    30   16   40 1   
    31   17   18 ar  
    32   17   39 1   
    33   18   19 ar  
    34   18   38 1   
    35   19   37 1   
    36   20   21 ar  
    37   20   25 ar  
    38   21   22 ar  
    39   21   42 1   
    40   22   23 ar  
    41   22   43 1   
    42   23   24 ar  
    43   23   44 1   
    44   24   25 ar  
    45   24   45 1   
    46   25   46 1   
    47   26   28 1   
    48   26   47 1   
    49   26   48 1   
    50   27   29 1   
    51   27   49 1   
    52   27   54 1   
    53   28   30 1   
    54   28   50 1   
    55   28   51 1   
    56   29   30 1   
    57   29   52 1   
    58   29   55 1   
    59   30   53 1   
@<TRIPOS>SUBSTRUCTURE
     1 979         1 TEMP              0 ****  ****    0 ROOT
