@<TRIPOS>MOLECULE
979
   55    48     1     0     0
SMALL
bcc


@<TRIPOS>ATOM
      1 C1         -0.2420    0.9370   -4.0450 c1        1 979      0.016000
      2 N2          1.1250    0.9760   -4.0180 n1        1 979     -0.180000
      3 C3          1.7840    0.9640   -2.8270 c1        1 979      0.116000
      4 C4          1.0840    0.9120   -1.6650 c1        1 979     -0.246000
      5 C5         -0.3050    0.8730   -1.6950 c1        1 979      0.206000
      6 N6         -0.9510    0.8850   -2.8720 n1        1 979     -0.247000
      7 O8          3.1460    0.9360   -2.5130 o         1 979     -0.084000
      8 C9          3.2660    0.8670   -1.1510 c2        1 979      0.044000
      9 C10         2.0000    0.8520   -0.6130 c1        1 979     -0.059000
     10 N11        -1.2230    1.0110   -0.5960 n3        1 979     -0.285000
     11 C12        -2.6030    0.5960   -0.7490 c3        1 979     -0.033000
     12 C13        -3.0120   -0.2880    0.4520 c3        1 979     -0.103000
     13 N16        -4.1830   -1.0760    0.0990 n3        1 979     -0.246000
     14 C33         2.0430    0.8490    0.7790 c1        1 979     -0.036000
     15 C34         2.0320    2.0510    1.4720 c1        1 979     -0.125750
     16 C35         1.9210    2.0530    2.8560 c1        1 979     -0.125750
     17 C36         1.8210    0.8540    3.5450 c1        1 979     -0.125750
     18 C37         1.8320   -0.3460    2.8530 c1        1 979     -0.125750
     19 C38         1.9430   -0.3500    1.4700 c1        1 979     -0.115000
     20 C44         4.6540    0.8980   -1.0420 c1        1 979     -0.034000
     21 C45         5.3710   -0.2880   -0.9910 c1        1 979     -0.125750
     22 C46         6.7470   -0.2590   -0.8240 c1        1 979     -0.125750
     23 C47         7.4060    0.9560   -0.7080 c1        1 979     -0.125750
     24 C48         6.6900    2.1400   -0.7590 c1        1 979     -0.125750
     25 C49         5.3130    2.1120   -0.9260 c1        1 979     -0.096000
     26 C2         -3.9860   -2.5360    0.5750 c3        1 979     -0.106500
     27 C7         -5.3380   -0.7500    1.0780 c3        1 979     -0.106500
     28 C11        -5.2190   -3.3960    0.3580 c3        1 979     -0.119000
     29 C15        -6.5600   -1.6250    0.8570 c3        1 979     -0.119000
     30 N1         -6.2610   -2.6820    0.2160 n3        1 979     -0.271000
     31 H1         -0.7140    0.9460   -4.9020 ha        1 979      0.194000
     32 HN11       -0.9510    1.4140    0.1760 hn        1 979      0.229000
     33 H121       -3.1810    1.3890   -0.7830 h1        1 979      0.112000
     34 H122       -2.7000    0.0870   -1.5770 h1        1 979      0.112000
     35 H131       -3.2220    0.2840    1.2240 h1        1 979      0.077500
     36 H132       -2.2720   -0.8890    0.6820 h1        1 979      0.077500
     37 H38         1.9510   -1.1950    0.9840 ha        1 979      0.144000
     38 H37         1.7610   -1.1880    3.3380 ha        1 979      0.138875
     39 H36         1.7420    0.8560    4.5180 ha        1 979      0.138875
     40 H35         1.9130    2.8970    3.3420 ha        1 979      0.138875
     41 H34         2.1030    2.8980    0.9850 ha        1 979      0.138875
     42 H45         4.9070   -1.1440   -1.0720 ha        1 979      0.138875
     43 H46         7.2520   -1.0920   -0.7880 ha        1 979      0.138875
     44 H47         8.3810    0.9760   -0.5900 ha        1 979      0.138875
     45 H48         7.1540    2.9960   -0.6780 ha        1 979      0.138875
     46 H49         4.8080    2.9460   -0.9620 ha        1 979      0.152000
     47 H21        -3.7710   -2.5300    1.5260 h1        1 979      0.095250
     48 H22        -3.2360   -2.9300    0.0830 h1        1 979      0.095250
     49 H2         -5.0220   -0.8790    1.9900 h1        1 979      0.095250
     50 H111       -5.0920   -3.9420   -0.4490 h1        1 979      0.094000
     51 H112       -5.3390   -3.9920    1.1350 h1        1 979      0.094000
     52 H3         -7.2280   -1.1200    0.3480 h1        1 979      0.094000
     53 HN1        -6.9990   -3.2250    0.1610 hn        1 979      0.143000
     54 H7         -5.5960    0.1870    0.9620 h1        1 979      0.095250
     55 H15        -6.9420   -1.8750    1.7330 h1        1 979      0.094000
@<TRIPOS>BOND
     1    1    6 1   
     2    1   31 1   
     3    2    3 1   
     4    4    5 1   
     5    5   10 1   
     6    7    8 1   
     7    8    9 1   
     8    8   20 1   
     9    9   14 1   
    10   10   11 1   
    11   10   32 1   
    12   11   12 1   
    13   11   33 1   
    14   11   34 1   
    15   12   13 1   
    16   12   35 1   
    17   12   36 1   
    18   13   26 1   
    19   13   27 1   
    20   14   19 1   
    21   15   16 1   
    22   15   41 1   
    23   16   40 1   
    24   17   18 1   
    25   17   39 1   
    26   18   38 1   
    27   19   37 1   
    28   20   25 1   
    29   21   22 1   
    30   21   42 1   
    31   22   43 1   
    32   23   24 1   
    33   23   44 1   
    34   24   45 1   
    35   25   46 1   
    36   26   28 1   
    37   26   47 1   
    38   26   48 1   
    39   27   29 1   
    40   27   49 1   
    41   27   54 1   
    42   28   30 1   
    43   28   50 1   
    44   28   51 1   
    45   29   30 1   
    46   29   52 1   
    47   29   55 1   
    48   30   53 1   
@<TRIPOS>SUBSTRUCTURE
     1 979         1 TEMP              0 ****  ****    0 ROOT
