@<TRIPOS>MOLECULE
979
   56    60     1     0     0
SMALL
bcc


@<TRIPOS>ATOM
      1 C1         -0.1610    1.0990   -0.1060 ca        1 979      0.663900
      2 N2          1.1980    0.9400   -0.0730 nb        1 979     -0.602000
      3 C3          1.6590    0.6410    1.1540 ca        1 979      0.604600
      4 C4          0.8360    0.4960    2.3490 ca        1 979     -0.267400
      5 C5         -0.5380    0.6900    2.1470 ca        1 979      0.506200
      6 N6         -1.0480    0.9940    0.9150 nb        1 979     -0.686000
      7 O8          2.9920    0.4220    1.4850 os        1 979     -0.278400
      8 C9          3.0200    0.1380    2.8760 cc        1 979      0.224900
      9 C10         1.7420    0.1810    3.4260 cd        1 979     -0.121400
     10 N11        -1.4740    0.5550    3.2790 n4        1 979     -0.736700
     11 C12        -2.1580    1.8450    3.6030 c3        1 979      0.108800
     12 C13        -3.0400    1.7330    4.8640 c3        1 979      0.139800
     13 N16        -3.9270    0.5840    4.8130 n3        1 979     -0.772600
     14 C33         1.3370   -0.0280    4.8010 ca        1 979     -0.077800
     15 C34         1.5790    0.9570    5.7700 ca        1 979     -0.133000
     16 C35         1.1880    0.7480    7.0920 ca        1 979     -0.127000
     17 C36         0.5580   -0.4420    7.4590 ca        1 979     -0.111000
     18 C37         0.3170   -1.4260    6.4990 ca        1 979     -0.127000
     19 C38         0.7030   -1.2230    5.1750 ca        1 979     -0.133000
     20 C44         4.3350   -0.1320    3.3990 ca        1 979     -0.106800
     21 C45         4.4890   -0.6880    4.6810 ca        1 979     -0.075000
     22 C46         5.7620   -0.9520    5.1770 ca        1 979     -0.135000
     23 C47         6.8910   -0.6680    4.4070 ca        1 979     -0.074000
     24 C48         6.7450   -0.1180    3.1310 ca        1 979     -0.135000
     25 C49         5.4760    0.1480    2.6240 ca        1 979     -0.075000
     26 C2         -4.2350    0.0610    6.1430 c3        1 979      0.161300
     27 C7         -5.1250    0.8390    4.0180 c3        1 979      0.161300
     28 C11        -5.2160   -1.1290    6.1040 c3        1 979      0.166300
     29 C15        -6.0980   -0.3580    3.9970 c3        1 979      0.166300
     30 N1         -6.4010   -0.8390    5.3270 n3        1 979     -0.824200
     31 H1         -0.5950    1.3450   -1.1030 h5        1 979      0.097100
     32 HN11       -0.9420    0.2260    4.1020 hn        1 979      0.475800
     33 H121       -1.3710    2.6310    3.7760 hx        1 979      0.111200
     34 H122       -2.7820    2.1400    2.7120 hx        1 979      0.111200
     35 H131       -2.3710    1.6540    5.7690 h1        1 979      0.074200
     36 H132       -3.5930    2.7170    4.9370 h1        1 979      0.074200
     37 H38         0.5480   -2.0190    4.4300 ha        1 979      0.148500
     38 H37        -0.1630   -2.3740    6.7910 ha        1 979      0.154500
     39 H36         0.2640   -0.6100    8.5070 ha        1 979      0.155000
     40 H35         1.3920    1.5200    7.8510 ha        1 979      0.154500
     41 H34         2.0930    1.8890    5.4890 ha        1 979      0.148500
     42 H45         3.6000   -0.9160    5.2910 ha        1 979      0.151000
     43 H46         5.8760   -1.3890    6.1810 ha        1 979      0.153000
     44 H47         7.8960   -0.8790    4.8040 ha        1 979      0.153000
     45 H48         7.6350    0.1040    2.5220 ha        1 979      0.153000
     46 H49         5.3640    0.5780    1.6160 ha        1 979      0.151000
     47 H21        -3.2730   -0.2980    6.6050 h1        1 979      0.046200
     48 H22        -4.6660    0.8630    6.8080 h1        1 979      0.046200
     49 H2         -5.6810    1.7480    4.3920 h1        1 979      0.046200
     50 H111       -5.5400   -1.3400    7.1620 h1        1 979      0.044200
     51 H112       -4.6610   -2.0360    5.7230 h1        1 979      0.044200
     52 H3         -7.0610   -0.0090    3.5270 h1        1 979      0.044200
     53 HN1        -7.0110   -1.6340    5.2910 hn        1 979      0.387800
     54 H7         -4.7990    1.0420    2.9600 h1        1 979      0.046200
     55 H15        -5.6600   -1.1620    3.3350 h1        1 979      0.044200
     56 H113       -2.1900   -0.1510    3.0480 hn        1 979      0.475800
@<TRIPOS>BOND
     1    1    2 ar  
     2    1    6 ar  
     3    1   31 1   
     4    2    3 ar  
     5    3    4 ar  
     6    3    7 1   
     7    4    5 ar  
     8    4    9 1   
     9    5    6 ar  
    10    5   10 1   
    11    7    8 1   
    12    8    9 2   
    13    8   20 1   
    14    9   14 1   
    15   10   11 1   
    16   10   32 1   
    17   10   56 1   
    18   11   12 1   
    19   11   33 1   
    20   11   34 1   
    21   12   13 1   
    22   12   35 1   
    23   12   36 1   
    24   13   26 1   
    25   13   27 1   
    26   14   15 ar  
    27   14   19 ar  
    28   15   16 ar  
    29   15   41 1   
    30   16   17 ar  
    31   16   40 1   
    32   17   18 ar  
    33   17   39 1   
    34   18   19 ar  
    35   18   38 1   
    36   19   37 1   
    37   20   21 ar  
    38   20   25 ar  
    39   21   22 ar  
    40   21   42 1   
    41   22   23 ar  
    42   22   43 1   
    43   23   24 ar  
    44   23   44 1   
    45   24   25 ar  
    46   24   45 1   
    47   25   46 1   
    48   26   28 1   
    49   26   47 1   
    50   26   48 1   
    51   27   29 1   
    52   27   49 1   
    53   27   54 1   
    54   28   30 1   
    55   28   50 1   
    56   28   51 1   
    57   29   30 1   
    58   29   52 1   
    59   29   55 1   
    60   30   53 1   
@<TRIPOS>SUBSTRUCTURE
     1 979         1 TEMP              0 ****  ****    0 ROOT
