@<TRIPOS>MOLECULE
97B
   65    70     1     0     0
SMALL
bcc


@<TRIPOS>ATOM
      1 O1          0.1150    0.5330    0.2880 o         1 97B     -0.596100
      2 C20         1.3450    0.3520    0.3930 c         1 97B      0.665700
      3 N5          1.9290    0.1590    1.6460 n         1 97B     -0.452800
      4 C24         3.2120   -0.4850    1.8050 c3        1 97B      0.078500
      5 C23         3.1260   -1.9130    2.3890 c3        1 97B      0.142800
      6 N6          2.2990   -1.9880    3.5840 n3        1 97B     -0.732600
      7 C25         2.2030   -3.3330    4.1050 c3        1 97B      0.157100
      8 C22         0.9940   -1.3660    3.4050 c3        1 97B      0.142800
      9 C21         1.0820    0.0580    2.8180 c3        1 97B      0.078500
     10 C17         2.2210    0.4230   -0.8110 ca        1 97B     -0.146600
     11 C18         1.8630   -0.3140   -1.9450 ca        1 97B     -0.080000
     12 C19         2.6320   -0.2430   -3.1000 ca        1 97B     -0.147500
     13 C16         3.3400    1.2580   -0.8550 ca        1 97B     -0.080000
     14 C15         4.1100    1.3530   -2.0110 ca        1 97B     -0.147500
     15 C14         3.7740    0.5900   -3.1490 ca        1 97B      0.154600
     16 N4          4.4930    0.7090   -4.3580 nu        1 97B     -0.714300
     17 C13         5.8780    0.4720   -4.4470 ca        1 97B      0.878900
     18 N3          6.3810    0.3090   -5.7300 nb        1 97B     -0.745000
     19 N2          6.6490    0.4590   -3.2890 nb        1 97B     -0.730000
     20 C12         7.9680    0.3300   -3.4670 ca        1 97B      0.477200
     21 C9          8.5800    0.1900   -4.7290 ca        1 97B     -0.368900
     22 C10         7.7230    0.1740   -5.8570 cp        1 97B      0.540800
     23 C8         10.0640    0.1230   -4.8580 c3        1 97B      0.163100
     24 N1         10.6130    1.2400   -5.5850 n2        1 97B     -0.547900
     25 C7         10.2920    1.4410   -6.8200 ce        1 97B      0.522500
     26 C2          9.4500    0.5630   -7.6700 ca        1 97B     -0.139900
     27 C3          8.2630   -0.0400   -7.2170 cp        1 97B     -0.128500
     28 C4          7.5470   -0.8800   -8.0880 ca        1 97B     -0.086000
     29 C5          7.9980   -1.1320   -9.3780 ca        1 97B     -0.122000
     30 C1          9.9010    0.3100   -8.9740 ca        1 97B     -0.106000
     31 C6          9.1820   -0.5330   -9.8200 ca        1 97B      0.026400
     32 Cl1         9.7480   -0.8340  -11.3920 cl        1 97B     -0.081400
     33 C11        10.8410    2.6380   -7.5080 ca        1 97B     -0.205900
     34 C26        12.1640    2.6440   -8.0000 ca        1 97B      0.175400
     35 F2         12.9420    1.5440   -7.8700 f         1 97B     -0.125400
     36 C27        12.6880    3.7830   -8.6390 ca        1 97B     -0.184000
     37 C28        11.8970    4.9190   -8.7770 ca        1 97B     -0.073000
     38 C29        10.5950    4.9440   -8.2900 ca        1 97B     -0.184000
     39 C30        10.0660    3.8080   -7.6470 ca        1 97B      0.175400
     40 F1          8.8040    3.8540   -7.1650 f         1 97B     -0.125400
     41 H24         3.8240    0.1560    2.5040 h1        1 97B      0.067450
     42 H24A        3.7520   -0.5500    0.8200 h1        1 97B      0.067450
     43 H23         4.1680   -2.2290    2.6730 h1        1 97B      0.039700
     44 H23A        2.7610   -2.6140    1.5820 h1        1 97B      0.039700
     45 H25         1.6870   -4.0470    3.4060 h1        1 97B      0.033367
     46 H25A        3.2370   -3.7160    4.3070 h1        1 97B      0.033367
     47 H25B        1.6330   -3.3050    5.0700 h1        1 97B      0.033367
     48 H22         0.5110   -1.2890    4.4190 h1        1 97B      0.039700
     49 H22A        0.3210   -1.9900    2.7480 h1        1 97B      0.039700
     50 H21         1.5120    0.7500    3.5970 h1        1 97B      0.067450
     51 H21A        0.0390    0.4000    2.5680 h1        1 97B      0.067450
     52 H18         0.9600   -0.9450   -1.9200 ha        1 97B      0.149000
     53 H19         2.3340   -0.8360   -3.9790 ha        1 97B      0.149000
     54 H16         3.6120    1.8600    0.0270 ha        1 97B      0.149000
     55 H15         4.9780    2.0310   -2.0240 ha        1 97B      0.149000
     56 HN4         3.9700    0.4860   -5.1810 hn        1 97B      0.446800
     57 H12         8.5760    0.3370   -2.5420 h4        1 97B      0.034100
     58 H8         10.5420    0.1560   -3.8360 h1        1 97B      0.069200
     59 H8A        10.3520   -0.8590   -5.3390 h1        1 97B      0.069200
     60 H4          6.6110   -1.3520   -7.7490 ha        1 97B      0.156000
     61 H5          7.4260   -1.7960  -10.0440 ha        1 97B      0.153000
     62 H1         10.8380    0.7770   -9.3210 ha        1 97B      0.158000
     63 H27        13.7200    3.7630   -9.0160 ha        1 97B      0.157000
     64 H28        12.3080    5.8100   -9.2760 ha        1 97B      0.146000
     65 H29         9.9690    5.8430   -8.3920 ha        1 97B      0.157000
@<TRIPOS>BOND
     1    1    2 2   
     2    2    3 1   
     3    2   10 1   
     4    3    4 1   
     5    3    9 1   
     6    4    5 1   
     7    4   41 1   
     8    4   42 1   
     9    5    6 1   
    10    5   43 1   
    11    5   44 1   
    12    6    7 1   
    13    6    8 1   
    14    7   45 1   
    15    7   46 1   
    16    7   47 1   
    17    8    9 1   
    18    8   48 1   
    19    8   49 1   
    20    9   50 1   
    21    9   51 1   
    22   10   11 ar  
    23   10   13 ar  
    24   11   12 ar  
    25   11   52 1   
    26   12   15 ar  
    27   12   53 1   
    28   13   14 ar  
    29   13   54 1   
    30   14   15 ar  
    31   14   55 1   
    32   15   16 1   
    33   16   17 1   
    34   16   56 1   
    35   17   18 ar  
    36   17   19 ar  
    37   18   22 ar  
    38   19   20 ar  
    39   20   21 ar  
    40   20   57 1   
    41   21   22 ar  
    42   21   23 1   
    43   22   27 1   
    44   23   24 1   
    45   23   58 1   
    46   23   59 1   
    47   24   25 2   
    48   25   26 1   
    49   25   33 1   
    50   26   27 ar  
    51   26   30 ar  
    52   27   28 ar  
    53   28   29 ar  
    54   28   60 1   
    55   29   31 ar  
    56   29   61 1   
    57   30   31 ar  
    58   30   62 1   
    59   31   32 1   
    60   33   34 ar  
    61   33   39 ar  
    62   34   35 1   
    63   34   36 ar  
    64   36   37 ar  
    65   36   63 1   
    66   37   38 ar  
    67   37   64 1   
    68   38   39 ar  
    69   38   65 1   
    70   39   40 1   
@<TRIPOS>SUBSTRUCTURE
     1 97B         1 TEMP              0 ****  ****    0 ROOT
