@<TRIPOS>MOLECULE
97B
   65    59     1     0     0
SMALL
bcc


@<TRIPOS>ATOM
      1 O1          4.9960    1.0020    3.6880 o         1 97B     -0.357000
      2 C20         4.7620   -0.1200    3.2710 c1        1 97B      0.339000
      3 N5          5.7070   -1.1990    3.5220 n2        1 97B     -0.311000
      4 C24         6.9170   -1.0180    4.2420 c3        1 97B     -0.037000
      5 C23         7.0720   -2.0280    5.3690 c3        1 97B     -0.094000
      6 N6          6.8810   -3.3800    4.9190 n3        1 97B     -0.258000
      7 C25         6.8940   -4.2700    6.0500 c3        1 97B     -0.119000
      8 C22         5.6510   -3.5460    4.1920 c3        1 97B     -0.094000
      9 C21         5.5030   -2.5270    3.0690 c3        1 97B     -0.037000
     10 C17         3.5190   -0.3720    2.3920 c2        1 97B     -0.128000
     11 C18         3.6500   -0.4190    1.0040 c2        1 97B     -0.090000
     12 C19         2.5140   -0.4770    0.1980 c1        1 97B     -0.121000
     13 C16         2.2540   -0.3830    2.9710 c1        1 97B     -0.072000
     14 C15         1.1160   -0.4410    2.1640 c1        1 97B     -0.176000
     15 C14         1.2470   -0.4880    0.7780 c1        1 97B      0.070000
     16 N4          0.0750   -0.7210   -0.0500 n3        1 97B     -0.232000
     17 C13        -0.7040    0.4000   -0.5340 c2        1 97B      0.156000
     18 N3         -1.0470    1.5040   -1.2770 n2        1 97B     -0.207000
     19 N2         -1.6720   -0.5000   -0.1480 n1        1 97B     -0.211000
     20 C12        -2.9640   -0.2980   -0.4980 c1        1 97B      0.013000
     21 C9         -3.3140    0.8190   -1.2490 c1        1 97B     -0.228000
     22 C10        -2.3530    1.7110   -1.6330 c1        1 97B      0.102000
     23 C8         -4.5120    1.5450   -0.5900 c3        1 97B     -0.048000
     24 N1         -5.0000    2.4640   -1.5360 n2        1 97B     -0.136000
     25 C7         -4.9940    2.1350   -2.8990 c1        1 97B      0.067000
     26 C2         -3.7140    1.5780   -3.5470 c1        1 97B     -0.040000
     27 C3         -2.5800    2.1710   -3.0030 c1        1 97B     -0.040000
     28 C4         -1.4770    2.4640   -3.8250 c1        1 97B     -0.096000
     29 C5         -1.5200    2.1590   -5.1860 c1        1 97B     -0.121000
     30 C1         -3.7560    1.2700   -4.9200 c1        1 97B     -0.096000
     31 C6         -2.6610    1.5610   -5.7340 c1        1 97B     -0.052000
     32 CL1        -2.8700    2.5700   -7.1440 cl        1 97B     -0.003000
     33 C11        -6.2960    2.1470   -3.6860 c2        1 97B     -0.121000
     34 C26        -6.9290    0.9480   -3.9930 c2        1 97B      0.145000
     35 F2         -6.3790   -0.2150   -3.6160 f         1 97B     -0.089000
     36 C27        -8.1780    0.9590   -4.6040 c1        1 97B     -0.184000
     37 C28        -8.7930    2.1680   -4.9060 c1        1 97B     -0.128500
     38 C29        -8.1610    3.3660   -4.5990 c1        1 97B     -0.128500
     39 C30        -6.9130    3.3570   -3.9890 c1        1 97B      0.136000
     40 F1         -6.3330    4.5130   -3.6320 f         1 97B     -0.093000
     41 H24         6.9280   -0.1120    4.6220 h1        1 97B      0.106500
     42 H24A        7.6760   -1.1140    3.6210 h1        1 97B      0.106500
     43 H23         6.4110   -1.8290    6.0690 h1        1 97B      0.079000
     44 H23A        7.9770   -1.9440    5.7510 h1        1 97B      0.079000
     45 H25         7.7620   -4.2080    6.5060 h1        1 97B      0.073000
     46 H25A        6.7510   -5.1920    5.7430 h1        1 97B      0.073000
     47 H25B        6.1780   -4.0190    6.6730 h1        1 97B      0.073000
     48 H22         5.6280   -4.4530    3.8050 h1        1 97B      0.079000
     49 H22A        4.8980   -3.4460    4.8130 h1        1 97B      0.079000
     50 H21         4.6020   -2.5990    2.6910 h1        1 97B      0.106500
     51 H21A        6.1620   -2.7290    2.3640 h1        1 97B      0.106500
     52 H18         4.5410   -0.4110    0.5950 ha        1 97B      0.147000
     53 H19         2.6070   -0.5100   -0.7780 ha        1 97B      0.162000
     54 H16         2.1610   -0.3490    3.9490 ha        1 97B      0.151000
     55 H15         0.2220   -0.4480    2.5740 ha        1 97B      0.138000
     56 HN4        -0.1530   -1.5770   -0.2910 hn        1 97B      0.240000
     57 H12        -3.6540   -0.9400   -0.2210 ha        1 97B      0.172000
     58 H8         -5.1530    0.8600   -0.2940 h1        1 97B      0.109000
     59 H8A        -4.3030    2.0020    0.2540 h1        1 97B      0.109000
     60 H4         -0.6770    2.8830   -3.4420 ha        1 97B      0.159000
     61 H5         -0.7490    2.3640   -5.7600 ha        1 97B      0.155000
     62 H1         -4.5550    0.8510   -5.3050 ha        1 97B      0.159000
     63 H27        -8.6250    0.1130   -4.8210 ha        1 97B      0.157000
     64 H28        -9.6750    2.1750   -5.3380 ha        1 97B      0.151500
     65 H29        -8.5950    4.2190   -4.8130 ha        1 97B      0.151500
@<TRIPOS>BOND
     1    1    2 1   
     2    2   10 1   
     3    3    4 1   
     4    3    9 1   
     5    4    5 1   
     6    4   41 1   
     7    4   42 1   
     8    5    6 1   
     9    5   43 1   
    10    5   44 1   
    11    6    7 1   
    12    6    8 1   
    13    7   45 1   
    14    7   46 1   
    15    7   47 1   
    16    8    9 1   
    17    8   48 1   
    18    8   49 1   
    19    9   50 1   
    20    9   51 1   
    21   10   11 1   
    22   10   13 1   
    23   11   12 1   
    24   11   52 1   
    25   12   53 1   
    26   13   54 1   
    27   14   15 1   
    28   14   55 1   
    29   15   16 1   
    30   16   17 1   
    31   16   56 1   
    32   17   18 1   
    33   17   19 1   
    34   18   22 1   
    35   20   21 1   
    36   20   57 1   
    37   21   23 1   
    38   23   24 1   
    39   23   58 1   
    40   23   59 1   
    41   24   25 1   
    42   25   33 1   
    43   26   27 1   
    44   26   30 1   
    45   27   28 1   
    46   28   60 1   
    47   29   31 1   
    48   29   61 1   
    49   30   62 1   
    50   31   32 1   
    51   33   34 1   
    52   33   39 1   
    53   34   35 1   
    54   34   36 1   
    55   36   63 1   
    56   37   38 1   
    57   37   64 1   
    58   38   65 1   
    59   39   40 1   
@<TRIPOS>SUBSTRUCTURE
     1 97B         1 TEMP              0 ****  ****    0 ROOT
