@<TRIPOS>MOLECULE
97B
   66    71     1     0     0
SMALL
bcc


@<TRIPOS>ATOM
      1 O1          0.9010   -0.5910   -0.0360 o         1 97B     -0.566100
      2 C20         1.9890   -0.1640   -0.4700 c         1 97B      0.647700
      3 N5          2.7200    0.8090    0.1950 n         1 97B     -0.440800
      4 C24         4.1300    1.0190   -0.0500 c3        1 97B      0.075000
      5 C23         5.0370    0.5470    1.1090 c3        1 97B      0.144800
      6 N6          4.6040    1.0600    2.3990 n3        1 97B     -0.732600
      7 C25         5.4600    0.6350    3.4840 c3        1 97B      0.155100
      8 C22         3.1950    0.8010    2.6590 c3        1 97B      0.144800
      9 C21         2.2800    1.2590    1.5050 c3        1 97B      0.075000
     10 C17         2.4660   -0.6430   -1.8100 ca        1 97B     -0.070600
     11 C18         2.6050   -2.0190   -2.0190 ca        1 97B     -0.080000
     12 C19         2.9540   -2.5080   -3.2760 ca        1 97B     -0.097000
     13 C16         2.6760    0.2550   -2.8610 ca        1 97B     -0.080000
     14 C15         3.0180   -0.2130   -4.1280 ca        1 97B     -0.097000
     15 C14         3.1460   -1.5980   -4.3300 ca        1 97B     -0.046400
     16 N4          3.4690   -2.1050   -5.6700 n4        1 97B     -0.606100
     17 C13         4.9450   -2.0390   -5.9310 ca        1 97B      0.703900
     18 N3          5.4020   -0.8860   -6.5030 nb        1 97B     -0.673000
     19 N2          5.6770   -3.1360   -5.5480 nb        1 97B     -0.665000
     20 C12         7.0030   -3.0250   -5.7460 ca        1 97B      0.464200
     21 C9          7.6010   -1.8780   -6.3120 ca        1 97B     -0.257900
     22 C10         6.7480   -0.8100   -6.7050 cp        1 97B      0.543800
     23 C8          9.0880   -1.7720   -6.4260 c3        1 97B      0.140100
     24 N1          9.6230   -0.7120   -5.6090 n2        1 97B     -0.543900
     25 C7          9.3080    0.5200   -5.8410 ce        1 97B      0.535500
     26 C2          8.4710    1.0180   -6.9630 ca        1 97B     -0.130900
     27 C3          7.2790    0.3920   -7.3720 cp        1 97B     -0.171500
     28 C4          6.5590    0.9240   -8.4550 ca        1 97B     -0.080000
     29 C5          7.0150    2.0470   -9.1360 ca        1 97B     -0.116000
     30 C1          8.9240    2.1540   -7.6470 ca        1 97B     -0.099000
     31 C6          8.2040    2.6650   -8.7300 ca        1 97B      0.045400
     32 CL1         8.7710    4.0300   -9.5500 cl        1 97B     -0.038400
     33 C11         9.8530    1.5720   -4.9480 ca        1 97B     -0.225900
     34 C26        11.1810    2.0270   -5.1000 ca        1 97B      0.174400
     35 F2         11.9590    1.5240   -6.0850 f         1 97B     -0.130900
     36 C27        11.7030    3.0130   -4.2420 ca        1 97B     -0.174000
     37 C28        10.9050    3.5350   -3.2280 ca        1 97B     -0.061000
     38 C29         9.5970    3.0940   -3.0500 ca        1 97B     -0.174000
     39 C30         9.0720    2.1070   -3.9030 ca        1 97B      0.174400
     40 F1          7.8040    1.6720   -3.7090 f         1 97B     -0.130900
     41 H24         4.4570    0.4880   -0.9850 h1        1 97B      0.070450
     42 H24A        4.2790    2.1280   -0.2000 h1        1 97B      0.070450
     43 H23         6.0740    0.9390    0.9120 h1        1 97B      0.045450
     44 H23A        5.0870   -0.5810    1.0970 h1        1 97B      0.045450
     45 H25         5.1210    1.1400    4.4260 h1        1 97B      0.040367
     46 H25A        5.4490   -0.4780    3.6480 h1        1 97B      0.040367
     47 H25B        6.5110    0.9540    3.2610 h1        1 97B      0.040367
     48 H22         3.0010   -0.2910    2.8680 h1        1 97B      0.045450
     49 H22A        2.9030    1.3850    3.5760 h1        1 97B      0.045450
     50 H21         2.2600    2.3860    1.4720 h1        1 97B      0.070450
     51 H21A        1.2380    0.8840    1.7100 h1        1 97B      0.070450
     52 H18         2.4180   -2.7220   -1.1880 ha        1 97B      0.181000
     53 H19         3.0700   -3.5950   -3.4220 ha        1 97B      0.166500
     54 H16         2.5630    1.3410   -2.6930 ha        1 97B      0.181000
     55 H15         3.1860    0.5060   -4.9470 ha        1 97B      0.166500
     56 HN4         3.1610   -3.0850   -5.7490 hn        1 97B      0.477300
     57 H12         7.6090   -3.8990   -5.4320 h4        1 97B      0.072100
     58 H8          9.3630   -1.6440   -7.5160 h1        1 97B      0.091700
     59 H8A         9.5750   -2.7220   -6.0590 h1        1 97B      0.091700
     60 H4          5.6240    0.4470   -8.7880 ha        1 97B      0.148000
     61 H5          6.4430    2.4450   -9.9900 ha        1 97B      0.167000
     62 H1          9.8640    2.6370   -7.3290 ha        1 97B      0.172000
     63 H27        12.7400    3.3550   -4.3790 ha        1 97B      0.165500
     64 H28        11.3160    4.3060   -2.5550 ha        1 97B      0.159000
     65 H29         8.9690    3.5030   -2.2440 ha        1 97B      0.165500
     66 H42         2.9790   -1.5330   -6.3740 hn        1 97B      0.477300
@<TRIPOS>BOND
     1    1    2 2   
     2    2    3 1   
     3    2   10 1   
     4    3    4 1   
     5    3    9 1   
     6    4    5 1   
     7    4   41 1   
     8    4   42 1   
     9    5    6 1   
    10    5   43 1   
    11    5   44 1   
    12    6    7 1   
    13    6    8 1   
    14    7   45 1   
    15    7   46 1   
    16    7   47 1   
    17    8    9 1   
    18    8   48 1   
    19    8   49 1   
    20    9   50 1   
    21    9   51 1   
    22   10   11 ar  
    23   10   13 ar  
    24   11   12 ar  
    25   11   52 1   
    26   12   15 ar  
    27   12   53 1   
    28   13   14 ar  
    29   13   54 1   
    30   14   15 ar  
    31   14   55 1   
    32   15   16 1   
    33   16   17 1   
    34   16   56 1   
    35   16   66 1   
    36   17   18 ar  
    37   17   19 ar  
    38   18   22 ar  
    39   19   20 ar  
    40   20   21 ar  
    41   20   57 1   
    42   21   22 ar  
    43   21   23 1   
    44   22   27 1   
    45   23   24 1   
    46   23   58 1   
    47   23   59 1   
    48   24   25 2   
    49   25   26 1   
    50   25   33 1   
    51   26   27 ar  
    52   26   30 ar  
    53   27   28 ar  
    54   28   29 ar  
    55   28   60 1   
    56   29   31 ar  
    57   29   61 1   
    58   30   31 ar  
    59   30   62 1   
    60   31   32 1   
    61   33   34 ar  
    62   33   39 ar  
    63   34   35 1   
    64   34   36 ar  
    65   36   37 ar  
    66   36   63 1   
    67   37   38 ar  
    68   37   64 1   
    69   38   39 ar  
    70   38   65 1   
    71   39   40 1   
@<TRIPOS>SUBSTRUCTURE
     1 97B         1 TEMP              0 ****  ****    0 ROOT
