@<TRIPOS>MOLECULE
97B
   65    70     1     0     0
SMALL
bcc


@<TRIPOS>ATOM
      1 O1          7.6870   -1.1370    1.9800 o         1 97B     -0.596100
      2 C20         7.0010   -0.3720    1.2720 c         1 97B      0.665700
      3 N5          7.5910    0.7190    0.6300 n         1 97B     -0.452800
      4 C24         6.9880    1.3510   -0.5210 c3        1 97B      0.078500
      5 C23         7.7160    1.0510   -1.8500 c3        1 97B      0.142800
      6 N6          9.1540    1.2650   -1.7710 n3        1 97B     -0.732600
      7 C25         9.8270    0.9560   -3.0110 c3        1 97B      0.157100
      8 C22         9.7590    0.5970   -0.6270 c3        1 97B      0.142800
      9 C21         9.0280    0.8940    0.7000 c3        1 97B      0.078500
     10 C17         5.5260   -0.5620    1.1690 ca        1 97B     -0.146600
     11 C18         5.0350   -1.8370    0.8700 ca        1 97B     -0.080000
     12 C19         3.6650   -2.0630    0.8030 ca        1 97B     -0.147500
     13 C16         4.6330    0.4780    1.4350 ca        1 97B     -0.080000
     14 C15         3.2590    0.2620    1.3900 ca        1 97B     -0.147500
     15 C14         2.7530   -1.0120    1.0580 ca        1 97B      0.154600
     16 N4          1.3680   -1.2840    1.0660 nh        1 97B     -0.714300
     17 C13         0.4480   -0.5710    0.2760 ca        1 97B      0.878900
     18 N3         -0.8070   -1.1480    0.1400 nb        1 97B     -0.745000
     19 N2          0.8150    0.6550   -0.2710 nb        1 97B     -0.730000
     20 C12        -0.1470    1.3180   -0.9210 ca        1 97B      0.477200
     21 C9         -1.4600    0.8310   -1.0880 ca        1 97B     -0.368900
     22 C10        -1.7450   -0.4410   -0.5350 cp        1 97B      0.540800
     23 C8         -2.5020    1.6560   -1.7630 c3        1 97B      0.163100
     24 N1         -3.5840    2.0200   -0.8820 n2        1 97B     -0.547900
     25 C7         -4.3310    1.1110   -0.3500 ce        1 97B      0.522500
     26 C2         -4.2760   -0.3480   -0.6160 ca        1 97B     -0.139900
     27 C3         -3.0720   -1.0680   -0.7190 cp        1 97B     -0.128500
     28 C4         -3.1200   -2.4440   -1.0020 ca        1 97B     -0.086000
     29 C5         -4.3310   -3.0980   -1.1940 ca        1 97B     -0.122000
     30 C1         -5.4970   -1.0120   -0.8060 ca        1 97B     -0.106000
     31 C6         -5.5240   -2.3750   -1.0950 ca        1 97B      0.026400
     32 CL1        -7.0120   -3.1590   -1.3300 cl        1 97B     -0.081400
     33 C11        -5.3980    1.5340    0.5930 ca        1 97B     -0.205900
     34 C26        -6.6190    2.0560    0.1160 ca        1 97B      0.175400
     35 F2         -6.8410    2.1540   -1.2160 f         1 97B     -0.125400
     36 C27        -7.6230    2.4700    1.0100 ca        1 97B     -0.184000
     37 C28        -7.4040    2.3750    2.3810 ca        1 97B     -0.073000
     38 C29        -6.2050    1.8770    2.8790 ca        1 97B     -0.184000
     39 C30        -5.1960    1.4630    1.9870 ca        1 97B      0.175400
     40 F1         -4.0300    0.9970    2.4880 f         1 97B     -0.125400
     41 H24         5.9160    1.0300   -0.6380 h1        1 97B      0.067450
     42 H24A        7.0080    2.4640   -0.3400 h1        1 97B      0.067450
     43 H23         7.4670   -0.0020   -2.1720 h1        1 97B      0.039700
     44 H23A        7.3080    1.7540   -2.6290 h1        1 97B      0.039700
     45 H25         9.3740    1.5710   -3.8310 h1        1 97B      0.033367
     46 H25A       10.9100    1.2280   -2.9100 h1        1 97B      0.033367
     47 H25B        9.7570   -0.1300   -3.2990 h1        1 97B      0.033367
     48 H22         9.8070   -0.5210   -0.7730 h1        1 97B      0.039700
     49 H22A       10.8140    0.9770   -0.5290 h1        1 97B      0.039700
     50 H21         9.2160    1.9670    0.9900 h1        1 97B      0.067450
     51 H21A        9.4580    0.2230    1.4950 h1        1 97B      0.067450
     52 H18         5.7400   -2.6650    0.6950 ha        1 97B      0.149000
     53 H19         3.3000   -3.0730    0.5600 ha        1 97B      0.149000
     54 H16         5.0150    1.4780    1.6960 ha        1 97B      0.149000
     55 H15         2.5760    1.0950    1.6190 ha        1 97B      0.149000
     56 HN4         1.1290   -2.2410    1.2380 hn        1 97B      0.446800
     57 H12         0.1490    2.2990   -1.3390 h4        1 97B      0.034100
     58 H8         -2.0540    2.6290   -2.1180 h1        1 97B      0.069200
     59 H8A        -2.8840    1.1030   -2.6720 h1        1 97B      0.069200
     60 H4         -2.1850   -3.0230   -1.0770 ha        1 97B      0.156000
     61 H5         -4.3480   -4.1760   -1.4190 ha        1 97B      0.153000
     62 H1         -6.4380   -0.4400   -0.7350 ha        1 97B      0.158000
     63 H27        -8.5670    2.8700    0.6140 ha        1 97B      0.157000
     64 H28        -8.1900    2.7010    3.0810 ha        1 97B      0.146000
     65 H29        -6.0270    1.8070    3.9620 ha        1 97B      0.157000
@<TRIPOS>BOND
     1    1    2 2   
     2    2    3 1   
     3    2   10 1   
     4    3    4 1   
     5    3    9 1   
     6    4    5 1   
     7    4   41 1   
     8    4   42 1   
     9    5    6 1   
    10    5   43 1   
    11    5   44 1   
    12    6    7 1   
    13    6    8 1   
    14    7   45 1   
    15    7   46 1   
    16    7   47 1   
    17    8    9 1   
    18    8   48 1   
    19    8   49 1   
    20    9   50 1   
    21    9   51 1   
    22   10   11 ar  
    23   10   13 ar  
    24   11   12 ar  
    25   11   52 1   
    26   12   15 ar  
    27   12   53 1   
    28   13   14 ar  
    29   13   54 1   
    30   14   15 ar  
    31   14   55 1   
    32   15   16 1   
    33   16   17 1   
    34   16   56 1   
    35   17   18 ar  
    36   17   19 ar  
    37   18   22 ar  
    38   19   20 ar  
    39   20   21 ar  
    40   20   57 1   
    41   21   22 ar  
    42   21   23 1   
    43   22   27 1   
    44   23   24 1   
    45   23   58 1   
    46   23   59 1   
    47   24   25 2   
    48   25   26 1   
    49   25   33 1   
    50   26   27 ar  
    51   26   30 ar  
    52   27   28 ar  
    53   28   29 ar  
    54   28   60 1   
    55   29   31 ar  
    56   29   61 1   
    57   30   31 ar  
    58   30   62 1   
    59   31   32 1   
    60   33   34 ar  
    61   33   39 ar  
    62   34   35 1   
    63   34   36 ar  
    64   36   37 ar  
    65   36   63 1   
    66   37   38 ar  
    67   37   64 1   
    68   38   39 ar  
    69   38   65 1   
    70   39   40 1   
@<TRIPOS>SUBSTRUCTURE
     1 97B         1 TEMP              0 ****  ****    0 ROOT
