@<TRIPOS>MOLECULE
980
   65    63     1     0     0
SMALL
bcc


@<TRIPOS>ATOM
      1 C1         -2.7830    0.6530   -0.4170 c3        1 980     -0.157000
      2 C2         -1.2880    0.8020   -0.3570 c2        1 980     -0.047000
      3 C3         -0.3100    0.6630    0.7070 c1        1 980     -0.343000
      4 S4          1.0770    1.0030    0.1190 ss        1 980      0.542000
      5 C5          0.8700    1.3630   -1.3980 c1        1 980     -0.445000
      6 C6         -0.5260    1.2480   -1.6910 c1        1 980      0.027000
      7 N7         -0.9570    1.4000   -2.9350 n1        1 980     -0.162000
      8 C8         -0.0580    1.6720   -3.9520 c1        1 980      0.122000
      9 N9          1.2960    1.7840   -3.6710 n2        1 980     -0.228000
     10 C10         1.7440    1.6280   -2.3890 c1        1 980      0.182000
     11 N11         3.1920    1.7310   -2.6890 n3        1 980     -0.223000
     12 C12         3.9260    0.9070   -1.7820 c3        1 980     -0.090500
     13 C13         5.4250    1.0840   -1.9250 c3        1 980     -0.027500
     14 O14         5.8150    2.4440   -1.8650 os        1 980     -0.267000
     15 C15         5.0790    3.2730   -2.7700 c3        1 980     -0.027500
     16 C16         3.5900    3.1010   -2.6280 c3        1 980     -0.090500
     17 C17        -0.6400    1.7010   -5.3860 c1        1 980     -0.213000
     18 C18        -1.3170    2.8310   -5.8380 c2        1 980      0.047000
     19 N19        -1.9130    2.8210   -7.0380 n1        1 980     -0.240000
     20 C20        -1.8580    1.7090   -7.8160 c1        1 980      0.174000
     21 N21        -1.1900    0.5910   -7.3710 n1        1 980     -0.241000
     22 C22        -0.5850    0.6000   -6.1550 c1        1 980      0.047000
     23 N23        -2.6350    1.6490   -9.0460 n3        1 980     -0.341000
     24 C24        -0.1920    0.4390    2.2560 c2        1 980     -0.002000
     25 N25        -0.8240   -0.7810    2.6080 n3        1 980     -0.250000
     26 C26        -2.0800   -0.5130    3.2140 c3        1 980     -0.097000
     27 C27        -2.7450   -1.7880    3.7530 c3        1 980     -0.036000
     28 N28        -1.8820   -2.5320    4.5730 n         1 980     -0.324000
     29 C29        -0.6390   -2.8010    3.9870 c3        1 980     -0.036000
     30 C30         0.0350   -1.5360    3.4540 c3        1 980     -0.097000
     31 C31        -2.2510   -2.9850    5.9070 c2        1 980      0.263000
     32 O32        -3.4100   -2.7040    6.3790 o         1 980     -0.346000
     33 C33        -1.2750   -3.7580    6.7390 c3        1 980      0.024000
     34 C35        -1.9130   -5.1030    7.1590 c3        1 980     -0.203000
     35 O36        -0.9520   -3.0140    7.8900 oh        1 980     -0.309000
     36 H1         -3.1080    0.4400    0.4330 hc        1 980      0.095000
     37 H1A        -3.1850    1.5000   -0.7210 hc        1 980      0.095000
     38 H1B        -3.0190   -0.0770   -1.0580 hc        1 980      0.095000
     39 H12         3.6690    1.1320   -0.8750 h1        1 980      0.097750
     40 H12A        3.7010   -0.0400   -1.9540 h1        1 980      0.097750
     41 H13         5.8690    0.5990   -1.2080 h1        1 980      0.098000
     42 H13A        5.7080    0.7120   -2.7800 h1        1 980      0.098000
     43 H15         5.3290    3.0520   -3.6610 h1        1 980      0.098000
     44 H15A        5.3120    4.2270   -2.5960 h1        1 980      0.098000
     45 H16         3.3270    3.4530   -1.8170 h1        1 980      0.097750
     46 H16A        3.1750    3.5590   -3.2970 h1        1 980      0.097750
     47 H18        -1.3560    3.5910   -5.3080 h4        1 980      0.184000
     48 H22        -0.1010   -0.2110   -5.8320 ha        1 980      0.180000
     49 HN23       -3.0880    2.4140   -9.3540 hn        1 980      0.238500
     50 HN2A       -2.6420    0.8640   -9.5570 hn        1 980      0.238500
     51 H24        -0.6220    1.1750    2.7240 h4        1 980      0.087000
     52 H24A        0.7120    0.4010    2.4970 h4        1 980      0.087000
     53 H26        -2.6520   -0.1190    2.5660 h1        1 980      0.082250
     54 H26A       -1.9490    0.1350    3.9710 h1        1 980      0.082250
     55 H27        -3.0340   -2.3550    2.9860 h1        1 980      0.106750
     56 H27A       -3.5340   -1.5360    4.2770 h1        1 980      0.106750
     57 H29        -0.0770   -3.1990    4.6310 h1        1 980      0.106750
     58 H29A       -0.7670   -3.4290    3.2440 h1        1 980      0.106750
     59 H30         0.8040   -1.7820    2.9670 h1        1 980      0.082250
     60 H30A        0.2980   -0.9900    4.1930 h1        1 980      0.082250
     61 H33        -0.4220   -3.9350    6.1960 h1        1 980      0.086000
     62 H35        -2.1460   -5.0700    8.1220 hc        1 980      0.097000
     63 H35A       -2.7390   -5.2600    6.6240 hc        1 980      0.097000
     64 H35B       -1.2360   -5.8790    6.9900 hc        1 980      0.097000
     65 HO36       -0.0540   -2.9550    7.9700 ho        1 980      0.199000
@<TRIPOS>BOND
     1    1    2 1   
     2    1   36 1   
     3    1   37 1   
     4    1   38 1   
     5    2    3 1   
     6    2    6 1   
     7    3    4 1   
     8    4    5 1   
     9    5    6 1   
    10    7    8 1   
    11    8    9 1   
    12    9   10 1   
    13   10   11 1   
    14   11   12 1   
    15   11   16 1   
    16   12   13 1   
    17   12   39 1   
    18   12   40 1   
    19   13   14 1   
    20   13   41 1   
    21   13   42 1   
    22   14   15 1   
    23   15   16 1   
    24   15   43 1   
    25   15   44 1   
    26   16   45 1   
    27   16   46 1   
    28   17   18 1   
    29   17   22 1   
    30   18   19 1   
    31   18   47 1   
    32   20   21 1   
    33   20   23 1   
    34   22   48 1   
    35   23   49 1   
    36   23   50 1   
    37   24   25 1   
    38   24   51 1   
    39   24   52 1   
    40   25   26 1   
    41   25   30 1   
    42   26   27 1   
    43   26   53 1   
    44   26   54 1   
    45   27   28 1   
    46   27   55 1   
    47   27   56 1   
    48   28   29 1   
    49   28   31 1   
    50   29   30 1   
    51   29   57 1   
    52   29   58 1   
    53   30   59 1   
    54   30   60 1   
    55   31   32 1   
    56   31   33 1   
    57   33   34 1   
    58   33   35 1   
    59   33   61 1   
    60   34   62 1   
    61   34   63 1   
    62   34   64 1   
    63   35   65 1   
@<TRIPOS>SUBSTRUCTURE
     1 980         1 TEMP              0 ****  ****    0 ROOT
