@<TRIPOS>MOLECULE
980
   66    70     1     0     0
SMALL
bcc


@<TRIPOS>ATOM
      1 C1          0.3010   -0.4280    0.0750 c3        1 980     -0.036900
      2 C2          1.7620   -0.3300   -0.0330 cc        1 980     -0.154000
      3 C3          2.6680   -0.3040    1.0030 cd        1 980     -0.104600
      4 S4          4.2680   -0.1770    0.4860 ss        1 980      0.167500
      5 C5          3.8720   -0.1630   -1.1280 ca        1 980     -0.345700
      6 C6          2.4490   -0.2430   -1.3120 ca        1 980      0.447100
      7 N7          1.8610   -0.2190   -2.5370 nb        1 980     -0.659000
      8 C8          2.7130   -0.1010   -3.5850 cp        1 980      0.672500
      9 N9          4.0910   -0.0240   -3.5330 nb        1 980     -0.758000
     10 C10         4.6820   -0.0480   -2.3120 ca        1 980      0.721200
     11 N11         6.0780    0.1350   -2.1710 nh        1 980     -0.734300
     12 C12         6.7820   -0.9030   -1.4220 c3        1 980      0.150300
     13 C13         8.2450   -0.5210   -1.1500 c3        1 980      0.121400
     14 O14         8.9180   -0.1640   -2.3490 os        1 980     -0.400600
     15 C15         8.2760    0.9150   -3.0160 c3        1 980      0.121400
     16 C16         6.8150    0.5780   -3.3500 c3        1 980      0.150300
     17 C17         2.1120   -0.0600   -4.9360 cp        1 980     -0.260100
     18 C18         0.8100   -0.5660   -5.1820 ca        1 980      0.475700
     19 N19         0.2390   -0.5350   -6.4010 nb        1 980     -0.663500
     20 C20         1.0080    0.0200   -7.3940 ca        1 980      0.663900
     21 N21         2.2720    0.5370   -7.2790 nb        1 980     -0.663500
     22 C22         2.8060    0.4880   -6.0440 ca        1 980      0.475700
     23 N23         0.3940    0.0660   -8.7530 n4        1 980     -0.811300
     24 C24         2.3500   -0.3160    2.4580 c3        1 980      0.233000
     25 N25         1.6770   -1.5300    2.9040 n3        1 980     -0.728600
     26 C26         1.0080   -1.3310    4.1860 c3        1 980      0.139300
     27 C27         0.3350   -2.6140    4.7210 c3        1 980      0.082500
     28 N28         1.2050   -3.7730    4.6990 n         1 980     -0.453800
     29 C29         1.8530   -3.9680    3.4260 c3        1 980      0.082500
     30 C30         2.5500   -2.6940    2.8930 c3        1 980      0.139300
     31 C31         1.6980   -4.2850    5.8940 c         1 980      0.618100
     32 O32         1.2390   -3.8970    6.9870 o         1 980     -0.599100
     33 C33         2.7440   -5.4080    5.8990 c3        1 980      0.088100
     34 C35         2.0810   -6.7310    5.5630 c3        1 980     -0.128100
     35 O36         3.3700   -5.4520    7.1640 oh        1 980     -0.584800
     36 H1         -0.1970    0.2770   -0.6360 hc        1 980      0.059367
     37 H1A        -0.0300   -1.4700   -0.1710 hc        1 980      0.059367
     38 H1B        -0.0380   -0.1920    1.1150 hc        1 980      0.059367
     39 H12         6.2680   -1.0620   -0.4320 h1        1 980      0.057200
     40 H12A        6.7650   -1.8790   -1.9880 h1        1 980      0.057200
     41 H13         8.8030   -1.4150   -0.7660 h1        1 980      0.067700
     42 H13A        8.3050    0.3230   -0.4130 h1        1 980      0.067700
     43 H15         8.8600    1.0480   -3.9650 h1        1 980      0.067700
     44 H15A        8.3380    1.8420   -2.3880 h1        1 980      0.067700
     45 H16         6.3200    1.5060   -3.7500 h1        1 980      0.057200
     46 H16A        6.8040   -0.2110   -4.1560 h1        1 980      0.057200
     47 H18         0.1860   -1.0140   -4.3780 h4        1 980      0.090600
     48 H22         3.8320    0.9060   -5.9530 h4        1 980      0.090600
     49 HN23       -0.4670    0.6250   -8.7130 hn        1 980      0.479133
     50 HN2A        1.0510    0.4890   -9.4210 hn        1 980      0.479133
     51 H24         1.6610    0.5570    2.6640 h1        1 980      0.054700
     52 H24A        3.3080   -0.1340    3.0350 h1        1 980      0.054700
     53 H26         1.7180   -0.9380    4.9700 h1        1 980      0.043200
     54 H26A        0.1990   -0.5630    4.0330 h1        1 980      0.043200
     55 H27        -0.0110   -2.4140    5.7750 h1        1 980      0.070200
     56 H27A       -0.5640   -2.8520    4.0850 h1        1 980      0.070200
     57 H29         2.6180   -4.7890    3.4770 h1        1 980      0.070200
     58 H29A        1.0580   -4.2800    2.6870 h1        1 980      0.070200
     59 H30         3.4920   -2.5190    3.4920 h1        1 980      0.043200
     60 H30A        2.8500   -2.8870    1.8260 h1        1 980      0.043200
     61 H33         3.5910   -5.1840    5.1910 h1        1 980      0.081700
     62 H35         1.6790   -6.7110    4.5230 hc        1 980      0.054367
     63 H35A        2.8300   -7.5540    5.6520 hc        1 980      0.054367
     64 H35B        1.2430   -6.9390    6.2710 hc        1 980      0.054367
     65 HO36        2.6790   -5.4340    7.8430 ho        1 980      0.429000
     66 H233        0.1660   -0.8910   -9.0500 hn        1 980      0.479133
@<TRIPOS>BOND
     1    1    2 1   
     2    1   36 1   
     3    1   37 1   
     4    1   38 1   
     5    2    3 2   
     6    2    6 1   
     7    3    4 1   
     8    3   24 1   
     9    4    5 1   
    10    5    6 ar  
    11    5   10 ar  
    12    6    7 ar  
    13    7    8 ar  
    14    8    9 ar  
    15    8   17 1   
    16    9   10 ar  
    17   10   11 1   
    18   11   12 1   
    19   11   16 1   
    20   12   13 1   
    21   12   39 1   
    22   12   40 1   
    23   13   14 1   
    24   13   41 1   
    25   13   42 1   
    26   14   15 1   
    27   15   16 1   
    28   15   43 1   
    29   15   44 1   
    30   16   45 1   
    31   16   46 1   
    32   17   18 ar  
    33   17   22 ar  
    34   18   19 ar  
    35   18   47 1   
    36   19   20 ar  
    37   20   21 ar  
    38   20   23 1   
    39   21   22 ar  
    40   22   48 1   
    41   23   49 1   
    42   23   50 1   
    43   23   66 1   
    44   24   25 1   
    45   24   51 1   
    46   24   52 1   
    47   25   26 1   
    48   25   30 1   
    49   26   27 1   
    50   26   53 1   
    51   26   54 1   
    52   27   28 1   
    53   27   55 1   
    54   27   56 1   
    55   28   29 1   
    56   28   31 1   
    57   29   30 1   
    58   29   57 1   
    59   29   58 1   
    60   30   59 1   
    61   30   60 1   
    62   31   32 2   
    63   31   33 1   
    64   33   34 1   
    65   33   35 1   
    66   33   61 1   
    67   34   62 1   
    68   34   63 1   
    69   34   64 1   
    70   35   65 1   
@<TRIPOS>SUBSTRUCTURE
     1 980         1 TEMP              0 ****  ****    0 ROOT
