@<TRIPOS>MOLECULE
980
   65    69     1     0     0
SMALL
bcc


@<TRIPOS>ATOM
      1 C1          0.2420   -0.3620    0.0650 c3        1 980     -0.034900
      2 C2          1.7060   -0.2550   -0.0070 cc        1 980     -0.161000
      3 C3          2.5870   -0.1910    1.0440 cd        1 980     -0.106600
      4 S4          4.2020   -0.0530    0.5540 ss        1 980      0.075500
      5 C5          3.8270   -0.0920   -1.0750 ca        1 980     -0.348700
      6 C6          2.4140   -0.1980   -1.2820 ca        1 980      0.465100
      7 N7          1.8430   -0.2240   -2.5120 nb        1 980     -0.688000
      8 C8          2.7050   -0.1410   -3.5630 cp        1 980      0.754500
      9 N9          4.0820   -0.0440   -3.4770 nb        1 980     -0.754000
     10 C10         4.6490   -0.0090   -2.2470 ca        1 980      0.703200
     11 N11         6.0490    0.1930   -2.0830 nh        1 980     -0.732300
     12 C12         6.7360   -0.8640   -1.3480 c3        1 980      0.146800
     13 C13         8.1980   -0.4970   -1.0610 c3        1 980      0.122900
     14 O14         8.8900   -0.1330   -2.2480 os        1 980     -0.410600
     15 C15         8.2520    0.9410   -2.9310 c3        1 980      0.122900
     16 C16         6.7910    0.6110   -3.2680 c3        1 980      0.146800
     17 C17         2.1320   -0.1660   -4.9200 cp        1 980     -0.451100
     18 C18         0.8350   -0.6760   -5.1730 ca        1 980      0.512200
     19 N19         0.2820   -0.7110   -6.3900 nb        1 980     -0.766500
     20 C20         1.0500   -0.1980   -7.4380 ca        1 980      0.892900
     21 N21         2.3430    0.3100   -7.2880 nb        1 980     -0.766500
     22 C22         2.8410    0.3150   -6.0460 ca        1 980      0.512200
     23 N23         0.4790   -0.1530   -8.6970 nv        1 980     -0.943500
     24 C24         2.2490   -0.1650    2.4910 c3        1 980      0.239000
     25 N25         1.6060   -1.3780    2.9850 n3        1 980     -0.724600
     26 C26         1.1400   -1.2110    4.3560 c3        1 980      0.141300
     27 C27         0.4800   -2.4850    4.9260 c3        1 980      0.083000
     28 N28         1.2720   -3.6830    4.7280 n         1 980     -0.452800
     29 C29         1.7460   -3.8400    3.3740 c3        1 980      0.083000
     30 C30         2.4230   -2.5690    2.8120 c3        1 980      0.141300
     31 C31         1.8350   -4.3270    5.8180 c         1 980      0.621100
     32 O32         1.5160   -4.0090    6.9840 o         1 980     -0.613100
     33 C33         2.7910   -5.5130    5.6270 c3        1 980      0.086100
     34 C35         2.0070   -6.7500    5.2300 c3        1 980     -0.127100
     35 O36         3.5120   -5.7280    6.8240 oh        1 980     -0.588800
     36 H1         -0.0800   -1.3900   -0.2410 hc        1 980      0.055367
     37 H1A        -0.1230   -0.1710    1.1040 hc        1 980      0.055367
     38 H1B        -0.2360    0.3740   -0.6290 hc        1 980      0.055367
     39 H12         6.7150   -1.8350   -1.9230 h1        1 980      0.057950
     40 H12A        6.2100   -1.0270   -0.3640 h1        1 980      0.057950
     41 H13         8.7480   -1.3980   -0.6800 h1        1 980      0.058700
     42 H13A        8.2590    0.3390   -0.3160 h1        1 980      0.058700
     43 H15         8.8420    1.0620   -3.8770 h1        1 980      0.058700
     44 H15A        8.3180    1.8730   -2.3100 h1        1 980      0.058700
     45 H16         6.7800   -0.1870   -4.0650 h1        1 980      0.057950
     46 H16A        6.3020    1.5350   -3.6840 h1        1 980      0.057950
     47 H18         0.2040   -1.0840   -4.3590 h4        1 980      0.044600
     48 H22         3.8640    0.7270   -5.9550 h4        1 980      0.044600
     49 HN23       -0.3720   -0.6350   -8.8530 hn        1 980      0.443800
     50 HN2A        1.0540    0.0640   -9.4740 hn        1 980      0.443800
     51 H24         1.5250    0.6860    2.6660 h1        1 980      0.047700
     52 H24A        3.1930    0.0670    3.0740 h1        1 980      0.047700
     53 H26         0.3630   -0.3970    4.3580 h1        1 980      0.043950
     54 H26A        1.9760   -0.8950    5.0470 h1        1 980      0.043950
     55 H27         0.2950   -2.3240    6.0250 h1        1 980      0.067450
     56 H27A       -0.5110   -2.6470    4.4130 h1        1 980      0.067450
     57 H29         0.8520   -4.0890    2.7310 h1        1 980      0.067450
     58 H29A        2.4770   -4.6890    3.2920 h1        1 980      0.067450
     59 H30         3.4390   -2.4560    3.2920 h1        1 980      0.043950
     60 H30A        2.5760   -2.7220    1.7070 h1        1 980      0.043950
     61 H33         3.5920   -5.2750    4.8720 h1        1 980      0.084700
     62 H35         1.2220   -6.9750    5.9900 hc        1 980      0.052700
     63 H35A        1.5190   -6.5990    4.2380 hc        1 980      0.052700
     64 H35B        2.7000   -7.6230    5.1690 hc        1 980      0.052700
     65 HO36        2.8860   -5.6890    7.5630 ho        1 980      0.427000
@<TRIPOS>BOND
     1    1    2 1   
     2    1   36 1   
     3    1   37 1   
     4    1   38 1   
     5    2    3 2   
     6    2    6 1   
     7    3    4 1   
     8    3   24 1   
     9    4    5 1   
    10    5    6 ar  
    11    5   10 ar  
    12    6    7 ar  
    13    7    8 ar  
    14    8    9 ar  
    15    8   17 1   
    16    9   10 ar  
    17   10   11 1   
    18   11   12 1   
    19   11   16 1   
    20   12   13 1   
    21   12   39 1   
    22   12   40 1   
    23   13   14 1   
    24   13   41 1   
    25   13   42 1   
    26   14   15 1   
    27   15   16 1   
    28   15   43 1   
    29   15   44 1   
    30   16   45 1   
    31   16   46 1   
    32   17   18 ar  
    33   17   22 ar  
    34   18   19 ar  
    35   18   47 1   
    36   19   20 ar  
    37   20   21 ar  
    38   20   23 1   
    39   21   22 ar  
    40   22   48 1   
    41   23   49 1   
    42   23   50 1   
    43   24   25 1   
    44   24   51 1   
    45   24   52 1   
    46   25   26 1   
    47   25   30 1   
    48   26   27 1   
    49   26   53 1   
    50   26   54 1   
    51   27   28 1   
    52   27   55 1   
    53   27   56 1   
    54   28   29 1   
    55   28   31 1   
    56   29   30 1   
    57   29   57 1   
    58   29   58 1   
    59   30   59 1   
    60   30   60 1   
    61   31   32 2   
    62   31   33 1   
    63   33   34 1   
    64   33   35 1   
    65   33   61 1   
    66   34   62 1   
    67   34   63 1   
    68   34   64 1   
    69   35   65 1   
@<TRIPOS>SUBSTRUCTURE
     1 980         1 TEMP              0 ****  ****    0 ROOT
