@<TRIPOS>MOLECULE
980
   65    69     1     0     0
SMALL
bcc


@<TRIPOS>ATOM
      1 C1          0.2220    2.7700   -1.0040 c3        1 980     -0.034900
      2 C2         -0.0020    1.3200   -1.0710 cc        1 980     -0.161000
      3 C3          0.8860    0.3600   -1.4910 cd        1 980     -0.106600
      4 S4          0.2490   -1.2080   -1.4410 ss        1 980      0.076500
      5 C5         -1.2300   -0.7070   -0.8420 ca        1 980     -0.348700
      6 C6         -1.2710    0.7160   -0.6790 ca        1 980      0.465100
      7 N7         -2.3650    1.3800   -0.2300 nb        1 980     -0.689000
      8 C8         -3.4460    0.6050    0.0620 cp        1 980      0.754500
      9 N9         -3.5120   -0.7720   -0.0510 nb        1 980     -0.754000
     10 C10        -2.4210   -1.4320   -0.5080 ca        1 980      0.703200
     11 N11        -2.4510   -2.8360   -0.7460 nh        1 980     -0.732300
     12 C12        -1.4540   -3.6020   -0.0070 c3        1 980      0.146800
     13 C13        -1.4320   -5.0740   -0.4420 c3        1 980      0.122900
     14 O14        -2.7240   -5.6620   -0.3680 os        1 980     -0.410600
     15 C15        -3.6830   -4.9480   -1.1400 c3        1 980      0.122900
     16 C16        -3.7640   -3.4740   -0.7220 c3        1 980      0.146800
     17 C17        -4.6590    1.2820    0.5560 cp        1 980     -0.450100
     18 C18        -4.6120    2.5790    1.1190 ca        1 980      0.511700
     19 N19        -5.6900    3.2220    1.5790 nb        1 980     -0.766500
     20 C20        -6.9070    2.5410    1.4870 ca        1 980      0.890900
     21 N21        -7.0540    1.2690    0.9270 nb        1 980     -0.766500
     22 C22        -5.9370    0.6790    0.4880 ca        1 980      0.511700
     23 N23        -8.0310    3.1470    2.0210 nh        1 980     -0.941500
     24 C24         2.2570    0.5840   -2.0190 c3        1 980      0.239000
     25 N25         3.1910    1.1590   -1.0560 n3        1 980     -0.724600
     26 C26         4.4530    1.5190   -1.6900 c3        1 980      0.141300
     27 C27         5.4800    2.1030   -0.6970 c3        1 980      0.083000
     28 N28         5.6450    1.3030    0.5000 n         1 980     -0.452800
     29 C29         4.3940    0.9340    1.1200 c3        1 980      0.083000
     30 C30         3.3740    0.3320    0.1270 c3        1 980      0.141300
     31 C31         6.8400    0.6410    0.7300 c         1 980      0.621100
     32 O32         7.8460    0.8740    0.0260 o         1 980     -0.613100
     33 C33         6.9930   -0.3240    1.9140 c3        1 980      0.086100
     34 C35         7.1140    0.4600    3.2080 c3        1 980     -0.127100
     35 O36         8.1270   -1.1420    1.7060 oh        1 980     -0.588800
     36 H1         -0.6430    3.3190   -1.4560 hc        1 980      0.055367
     37 H1A         0.3180    3.0910    0.0640 hc        1 980      0.055367
     38 H1B         1.1570    3.0570   -1.5460 hc        1 980      0.055367
     39 H12        -0.4350   -3.1590   -0.1990 h1        1 980      0.057950
     40 H12A       -1.6520   -3.5590    1.1030 h1        1 980      0.057950
     41 H13        -1.0310   -5.1740   -1.4850 h1        1 980      0.058700
     42 H13A       -0.8080   -5.6720    0.2720 h1        1 980      0.058700
     43 H15        -3.4330   -5.0410   -2.2290 h1        1 980      0.058700
     44 H15A       -4.6560   -5.4600   -0.9210 h1        1 980      0.058700
     45 H16        -4.2310   -3.4180    0.3040 h1        1 980      0.057950
     46 H16A       -4.4340   -2.9330   -1.4460 h1        1 980      0.057950
     47 H18        -3.6590    3.1390    1.2080 h4        1 980      0.045100
     48 H22        -6.0810   -0.3290    0.0530 h4        1 980      0.045100
     49 HN23       -7.9790    4.1040    2.2730 hn        1 980      0.442800
     50 HN2A       -8.9190    2.7540    1.8280 hn        1 980      0.442800
     51 H24         2.6450   -0.3970   -2.4330 h1        1 980      0.047700
     52 H24A        2.1860    1.3110   -2.8820 h1        1 980      0.047700
     53 H26         4.9210    0.6390   -2.2210 h1        1 980      0.043950
     54 H26A        4.2370    2.3120   -2.4600 h1        1 980      0.043950
     55 H27         6.4670    2.2040   -1.2300 h1        1 980      0.067450
     56 H27A        5.1370    3.1280   -0.3740 h1        1 980      0.067450
     57 H29         4.5510    0.1920    1.9480 h1        1 980      0.067450
     58 H29A        3.9530    1.8700    1.5700 h1        1 980      0.067450
     59 H30         2.3810    0.2630    0.6540 h1        1 980      0.043950
     60 H30A        3.7010   -0.7160   -0.1390 h1        1 980      0.043950
     61 H33         6.1390   -1.0570    1.9580 h1        1 980      0.084700
     62 H35         7.9670    1.1780    3.1500 hc        1 980      0.052700
     63 H35A        6.1750    1.0280    3.4070 hc        1 980      0.052700
     64 H35B        7.3020   -0.2460    4.0520 hc        1 980      0.052700
     65 HO36        8.8560   -0.5760    1.4100 ho        1 980      0.427000
@<TRIPOS>BOND
     1    1    2 1   
     2    1   36 1   
     3    1   37 1   
     4    1   38 1   
     5    2    3 2   
     6    2    6 1   
     7    3    4 1   
     8    3   24 1   
     9    4    5 1   
    10    5    6 ar  
    11    5   10 ar  
    12    6    7 ar  
    13    7    8 ar  
    14    8    9 ar  
    15    8   17 1   
    16    9   10 ar  
    17   10   11 1   
    18   11   12 1   
    19   11   16 1   
    20   12   13 1   
    21   12   39 1   
    22   12   40 1   
    23   13   14 1   
    24   13   41 1   
    25   13   42 1   
    26   14   15 1   
    27   15   16 1   
    28   15   43 1   
    29   15   44 1   
    30   16   45 1   
    31   16   46 1   
    32   17   18 ar  
    33   17   22 ar  
    34   18   19 ar  
    35   18   47 1   
    36   19   20 ar  
    37   20   21 ar  
    38   20   23 1   
    39   21   22 ar  
    40   22   48 1   
    41   23   49 1   
    42   23   50 1   
    43   24   25 1   
    44   24   51 1   
    45   24   52 1   
    46   25   26 1   
    47   25   30 1   
    48   26   27 1   
    49   26   53 1   
    50   26   54 1   
    51   27   28 1   
    52   27   55 1   
    53   27   56 1   
    54   28   29 1   
    55   28   31 1   
    56   29   30 1   
    57   29   57 1   
    58   29   58 1   
    59   30   59 1   
    60   30   60 1   
    61   31   32 2   
    62   31   33 1   
    63   33   34 1   
    64   33   35 1   
    65   33   61 1   
    66   34   62 1   
    67   34   63 1   
    68   34   64 1   
    69   35   65 1   
@<TRIPOS>SUBSTRUCTURE
     1 980         1 TEMP              0 ****  ****    0 ROOT
