@<TRIPOS>MOLECULE
980
   65    69     1     0     0
SMALL
bcc


@<TRIPOS>ATOM
      1 C1          0.2380   -0.3780    0.0600 c3        1 980     -0.034900
      2 C2          1.7010   -0.2640   -0.0080 cc        1 980     -0.161000
      3 C3          2.5790   -0.1990    1.0460 cd        1 980     -0.106600
      4 S4          4.1950   -0.0510    0.5610 ss        1 980      0.076500
      5 C5          3.8250   -0.0860   -1.0690 ca        1 980     -0.348700
      6 C6          2.4130   -0.1990   -1.2800 ca        1 980      0.465100
      7 N7          1.8460   -0.2240   -2.5120 nb        1 980     -0.689000
      8 C8          2.7100   -0.1330   -3.5610 cp        1 980      0.754500
      9 N9          4.0870   -0.0290   -3.4700 nb        1 980     -0.754000
     10 C10         4.6500    0.0050   -2.2390 ca        1 980      0.703200
     11 N11         6.0480    0.2130   -2.0700 nh        1 980     -0.732300
     12 C12         6.7380   -0.8420   -1.3350 c3        1 980      0.146800
     13 C13         8.1980   -0.4690   -1.0430 c3        1 980      0.122900
     14 O14         8.8910   -0.0970   -2.2270 os        1 980     -0.410600
     15 C15         8.2500    0.9750   -2.9080 c3        1 980      0.122900
     16 C16         6.7920    0.6380   -3.2510 c3        1 980      0.146800
     17 C17         2.1420   -0.1590   -4.9200 cp        1 980     -0.450100
     18 C18         0.8520   -0.6800   -5.1790 ca        1 980      0.511700
     19 N19         0.3050   -0.7210   -6.3980 nb        1 980     -0.766500
     20 C20         1.0830   -0.2210   -7.4460 ca        1 980      0.890900
     21 N21         2.3560    0.3320   -7.2840 nb        1 980     -0.766500
     22 C22         2.8460    0.3420   -6.0400 ca        1 980      0.511700
     23 N23         0.5770   -0.3170   -8.7310 nh        1 980     -0.941500
     24 C24         2.2370   -0.1800    2.4920 c3        1 980      0.239000
     25 N25         1.5980   -1.3980    2.9790 n3        1 980     -0.724600
     26 C26         1.1290   -1.2390    4.3510 c3        1 980      0.141300
     27 C27         0.4730   -2.5180    4.9140 c3        1 980      0.083000
     28 N28         1.2700   -3.7120    4.7120 n         1 980     -0.452800
     29 C29         1.7470   -3.8610    3.3580 c3        1 980      0.083000
     30 C30         2.4200   -2.5850    2.8020 c3        1 980      0.141300
     31 C31         1.8350   -4.3570    5.8000 c         1 980      0.621100
     32 O32         1.5130   -4.0460    6.9670 o         1 980     -0.613100
     33 C33         2.7960   -5.5380    5.6060 c3        1 980      0.086100
     34 C35         2.0190   -6.7780    5.2030 c3        1 980     -0.127100
     35 O36         3.5170   -5.7550    6.8020 oh        1 980     -0.588800
     36 H1         -0.0780   -1.4070   -0.2510 hc        1 980      0.055367
     37 H1A        -0.1310   -0.1930    1.0990 hc        1 980      0.055367
     38 H1B        -0.2420    0.3570   -0.6330 hc        1 980      0.055367
     39 H12         6.2100   -1.0110   -0.3530 h1        1 980      0.057950
     40 H12A        6.7250   -1.8110   -1.9130 h1        1 980      0.057950
     41 H13         8.7510   -1.3670   -0.6620 h1        1 980      0.058700
     42 H13A        8.2520    0.3660   -0.2950 h1        1 980      0.058700
     43 H15         8.3100    1.9060   -2.2860 h1        1 980      0.058700
     44 H15A        8.8420    1.1010   -3.8520 h1        1 980      0.058700
     45 H16         6.3000    1.5610   -3.6660 h1        1 980      0.057950
     46 H16A        6.7870   -0.1580   -4.0500 h1        1 980      0.057950
     47 H18         0.2170   -1.0870   -4.3670 h4        1 980      0.045100
     48 H22         3.8580    0.7820   -5.9390 h4        1 980      0.045100
     49 HN23        1.0400    0.1690   -9.4610 hn        1 980      0.442800
     50 HN2A       -0.3780   -0.5540   -8.8490 hn        1 980      0.442800
     51 H24         1.5090    0.6670    2.6690 h1        1 980      0.047700
     52 H24A        3.1780    0.0540    3.0790 h1        1 980      0.047700
     53 H26         1.9630   -0.9220    5.0440 h1        1 980      0.043950
     54 H26A        0.3490   -0.4280    4.3550 h1        1 980      0.043950
     55 H27        -0.5160   -2.6810    4.3990 h1        1 980      0.067450
     56 H27A        0.2860   -2.3630    6.0140 h1        1 980      0.067450
     57 H29         2.4820   -4.7060    3.2730 h1        1 980      0.067450
     58 H29A        0.8550   -4.1110    2.7130 h1        1 980      0.067450
     59 H30         3.4340   -2.4700    3.2840 h1        1 980      0.043950
     60 H30A        2.5750   -2.7320    1.6970 h1        1 980      0.043950
     61 H33         3.5970   -5.2940    4.8510 h1        1 980      0.084700
     62 H35         1.2340   -7.0090    5.9620 hc        1 980      0.052700
     63 H35A        2.7160   -7.6480    5.1380 hc        1 980      0.052700
     64 H35B        1.5310   -6.6250    4.2110 hc        1 980      0.052700
     65 HO36        2.8910   -5.7230    7.5400 ho        1 980      0.427000
@<TRIPOS>BOND
     1    1    2 1   
     2    1   36 1   
     3    1   37 1   
     4    1   38 1   
     5    2    3 2   
     6    2    6 1   
     7    3    4 1   
     8    3   24 1   
     9    4    5 1   
    10    5    6 ar  
    11    5   10 ar  
    12    6    7 ar  
    13    7    8 ar  
    14    8    9 ar  
    15    8   17 1   
    16    9   10 ar  
    17   10   11 1   
    18   11   12 1   
    19   11   16 1   
    20   12   13 1   
    21   12   39 1   
    22   12   40 1   
    23   13   14 1   
    24   13   41 1   
    25   13   42 1   
    26   14   15 1   
    27   15   16 1   
    28   15   43 1   
    29   15   44 1   
    30   16   45 1   
    31   16   46 1   
    32   17   18 ar  
    33   17   22 ar  
    34   18   19 ar  
    35   18   47 1   
    36   19   20 ar  
    37   20   21 ar  
    38   20   23 1   
    39   21   22 ar  
    40   22   48 1   
    41   23   49 1   
    42   23   50 1   
    43   24   25 1   
    44   24   51 1   
    45   24   52 1   
    46   25   26 1   
    47   25   30 1   
    48   26   27 1   
    49   26   53 1   
    50   26   54 1   
    51   27   28 1   
    52   27   55 1   
    53   27   56 1   
    54   28   29 1   
    55   28   31 1   
    56   29   30 1   
    57   29   57 1   
    58   29   58 1   
    59   30   59 1   
    60   30   60 1   
    61   31   32 2   
    62   31   33 1   
    63   33   34 1   
    64   33   35 1   
    65   33   61 1   
    66   34   62 1   
    67   34   63 1   
    68   34   64 1   
    69   35   65 1   
@<TRIPOS>SUBSTRUCTURE
     1 980         1 TEMP              0 ****  ****    0 ROOT
