@<TRIPOS>MOLECULE
982
   22    16     1     0     0
SMALL
bcc


@<TRIPOS>ATOM
      1 C1          1.7090   -0.1040   -1.2740 c1        1 982     -0.046000
      2 C2          3.0870   -0.0790   -1.3010 c1        1 982     -0.166500
      3 C3          3.8130    0.1880   -0.1180 c1        1 982     -0.166500
      4 N1          3.1450    0.4240    1.0620 n1        1 982     -0.147000
      5 C5          1.7830    0.4000    1.0920 c1        1 982     -0.281000
      6 C6          1.0460    0.1300   -0.1050 c1        1 982     -0.116000
      7 S10         0.7510    0.6130    2.2550 s         1 982      0.450000
      8 C11        -0.6660    0.4480    1.6570 c1        1 982     -0.316000
      9 C12        -0.5220    0.1590    0.2480 c1        1 982      0.038000
     10 C13        -1.2650    0.9030    2.9700 c1        1 982      0.390000
     11 O14        -1.4570    0.0710    3.8960 o         1 982     -0.558000
     12 O15        -1.2980    0.0510   -0.9180 o         1 982     -0.181000
     13 C16        -2.5800   -0.4910   -0.7030 c3        1 982     -0.084000
     14 C17        -3.1350   -1.0110   -2.0110 c2        1 982      0.325000
     15 O20        -3.7150   -0.2250   -2.8060 o         1 982     -0.590500
     16 O21        -1.5650    2.1140    3.1390 o         1 982     -0.558000
     17 O22        -2.9970   -2.2250   -2.3150 o         1 982     -0.590500
     18 HC1         1.2080   -0.2880   -2.0910 ha        1 982      0.226000
     19 HC2         3.5630   -0.2640   -2.1330 ha        1 982      0.115500
     20 HC3         4.7880    0.2060   -0.1380 ha        1 982      0.115500
     21 H161       -2.5200   -1.2260   -0.0580 h1        1 982      0.070500
     22 H162       -3.1730    0.2050   -0.3500 h1        1 982      0.070500
@<TRIPOS>BOND
     1    1    6 1   
     2    1   18 1   
     3    2    3 1   
     4    2   19 1   
     5    3   20 1   
     6    4    5 1   
     7    7    8 1   
     8    8    9 1   
     9   10   11 1   
    10   10   16 1   
    11   12   13 1   
    12   13   14 1   
    13   13   21 1   
    14   13   22 1   
    15   14   15 1   
    16   14   17 1   
@<TRIPOS>SUBSTRUCTURE
     1 982         1 TEMP              0 ****  ****    0 ROOT
