@<TRIPOS>MOLECULE
982
   22    23     1     0     0
SMALL
bcc


@<TRIPOS>ATOM
      1 C1         -0.3260    0.1350   -0.0370 ca        1 982     -0.046000
      2 C2          1.0560    0.0580   -0.1480 ca        1 982     -0.293300
      3 C3          1.8400   -0.0660    1.0250 ca        1 982      0.360200
      4 N1          1.3470   -0.1160    2.2680 nb        1 982     -0.673000
      5 C5         -0.0050   -0.0430    2.3780 ca        1 982      0.374600
      6 C6         -0.8800    0.0830    1.2500 ca        1 982     -0.193100
      7 S10        -0.9090   -0.0890    3.8120 ss        1 982     -0.117900
      8 C11        -2.4140    0.0660    3.0210 cc        1 982     -0.094600
      9 C12        -2.2710    0.1360    1.6570 cd        1 982      0.093900
     10 C13        -3.6610    0.1120    3.8810 c         1 982      0.939800
     11 O14        -4.1380    1.2450    4.1670 o         1 982     -0.823300
     12 O15        -3.2840    0.1270    0.7270 os        1 982     -0.296900
     13 C16        -3.4670    1.3820    0.0450 c3        1 982      0.016400
     14 C17        -3.5770    1.1640   -1.4770 c         1 982      0.905600
     15 O20        -2.5820    0.7130   -2.1190 o         1 982     -0.855800
     16 O21        -4.1200   -0.9800    4.3190 o         1 982     -0.823300
     17 O22        -4.6480    1.5290   -2.0420 o         1 982     -0.855800
     18 HC1        -1.0020    0.2410   -0.9150 ha        1 982      0.226000
     19 HC2         1.5440    0.0930   -1.1290 ha        1 982      0.116000
     20 HC3         2.9390   -0.1260    0.9500 h4        1 982     -0.021900
     21 H161       -2.6190    2.0820    0.2480 h1        1 982      0.031200
     22 H162       -4.4210    1.8110    0.4480 h1        1 982      0.031200
@<TRIPOS>BOND
     1    1    2 ar  
     2    1    6 ar  
     3    1   18 1   
     4    2    3 ar  
     5    2   19 1   
     6    3    4 ar  
     7    3   20 1   
     8    4    5 ar  
     9    5    6 ar  
    10    5    7 1   
    11    6    9 1   
    12    7    8 1   
    13    8    9 2   
    14    8   10 1   
    15    9   12 1   
    16   10   11 1   
    17   10   16 1   
    18   12   13 1   
    19   13   14 1   
    20   13   21 1   
    21   13   22 1   
    22   14   15 1   
    23   14   17 1   
@<TRIPOS>SUBSTRUCTURE
     1 982         1 TEMP              0 ****  ****    0 ROOT
