@<TRIPOS>MOLECULE
982
   22    23     1     0     0
SMALL
bcc


@<TRIPOS>ATOM
      1 C1         -1.0520    2.0240    0.3160 ca        1 982     -0.046000
      2 C2         -2.2680    2.6870    0.2260 ca        1 982     -0.293300
      3 C3         -3.4460    1.9440   -0.0310 ca        1 982      0.360200
      4 N1         -3.4860    0.6170   -0.2000 nb        1 982     -0.673000
      5 C5         -2.2970   -0.0330   -0.1110 ca        1 982      0.374600
      6 C6         -1.0540    0.6320    0.1460 ca        1 982     -0.193100
      7 S10        -2.0400   -1.7030   -0.2710 ss        1 982     -0.117900
      8 C11        -0.3520   -1.5960   -0.0340 cc        1 982     -0.094600
      9 C12         0.0520   -0.3040    0.1920 cd        1 982      0.093900
     10 C13         0.4510   -2.8800   -0.1050 c         1 982      0.939800
     11 O14         1.0180   -3.1600   -1.1970 o         1 982     -0.823300
     12 O15         1.3150    0.1060    0.5520 os        1 982     -0.296900
     13 C16         2.0130    0.8340   -0.4760 c3        1 982      0.016400
     14 C17         2.6430    2.1180    0.0980 c         1 982      0.905600
     15 O20         1.8940    3.0380    0.5440 o         1 982     -0.855800
     16 O21         0.4600   -3.6310    0.9100 o         1 982     -0.823300
     17 O22         3.9000    2.2350    0.0220 o         1 982     -0.855800
     18 HC1        -0.0860    2.5450    0.5070 ha        1 982      0.226000
     19 HC2        -2.3250    3.7750    0.3500 ha        1 982      0.116000
     20 HC3        -4.4180    2.4590   -0.1050 h4        1 982     -0.021900
     21 H161        1.3260    1.1130   -1.3130 h1        1 982      0.031200
     22 H162        2.8110    0.1410   -0.8510 h1        1 982      0.031200
@<TRIPOS>BOND
     1    1    2 ar  
     2    1    6 ar  
     3    1   18 1   
     4    2    3 ar  
     5    2   19 1   
     6    3    4 ar  
     7    3   20 1   
     8    4    5 ar  
     9    5    6 ar  
    10    5    7 1   
    11    6    9 1   
    12    7    8 1   
    13    8    9 2   
    14    8   10 1   
    15    9   12 1   
    16   10   11 1   
    17   10   16 1   
    18   12   13 1   
    19   13   14 1   
    20   13   21 1   
    21   13   22 1   
    22   14   15 1   
    23   14   17 1   
@<TRIPOS>SUBSTRUCTURE
     1 982         1 TEMP              0 ****  ****    0 ROOT
