@<TRIPOS>MOLECULE
983
   83    85     1     0     0
SMALL
bcc


@<TRIPOS>ATOM
      1 C49         6.2230   -0.9190   -3.2470 ca        1 983     -0.113000
      2 C50         6.7130   -0.9510   -4.5520 ca        1 983     -0.135000
      3 C51         8.0780   -0.8060   -4.7920 ca        1 983     -0.133000
      4 C52         8.9570   -0.6230   -3.7240 ca        1 983     -0.135000
      5 C53         8.4720   -0.5840   -2.4180 ca        1 983     -0.113000
      6 C48         7.1020   -0.7360   -2.1740 ca        1 983     -0.088300
      7 C47         6.6160   -0.7340   -0.7630 c3        1 983      0.195700
      8 O46         5.2790   -0.2040   -0.7620 os        1 983     -0.444900
      9 C44         4.6340   -0.2740    0.4640 c         1 983      0.753100
     10 O45         5.2790   -0.6730    1.4480 o         1 983     -0.590000
     11 N43         3.3120    0.0940    0.3770 n         1 983     -0.554900
     12 C34         2.5170    0.3170    1.5650 c3        1 983      0.167700
     13 C35         2.3750    1.8040    1.9540 c3        1 983     -0.063100
     14 C36         3.6460    2.4260    2.4090 ca        1 983     -0.077300
     15 C37         4.2360    3.4560    1.6660 ca        1 983     -0.118500
     16 C38         5.4080    4.0640    2.1120 ca        1 983     -0.129500
     17 C41         6.0020    3.6510    3.3040 ca        1 983     -0.136000
     18 C40         5.4190    2.6260    4.0500 ca        1 983     -0.129500
     19 C39         4.2460    2.0180    3.6070 ca        1 983     -0.118500
     20 C33         1.0980   -0.2460    1.3980 c3        1 983     -0.343600
     21 S32         0.9130   -1.6170    0.3630 s6        1 983      1.471900
     22 O32         1.1470   -1.2080   -0.9730 o         1 983     -0.666300
     23 O33         1.7240   -2.6600    0.8600 o         1 983     -0.666300
     24 N31        -0.6370   -2.0000    0.5800 n3        1 983     -0.900100
     25 C27        -1.6880   -1.7420   -0.3680 c3        1 983     -0.050700
     26 C28        -2.5310   -2.9610   -0.7840 c3        1 983     -0.083700
     27 C30        -2.2280   -3.3510   -2.2190 c3        1 983     -0.085600
     28 C29        -2.3850   -4.1770    0.1080 c3        1 983     -0.085600
     29 P24        -2.6850   -0.5310    0.2920 p5        1 983      1.497100
     30 O25        -1.8690    0.5770    0.8090 o         1 983     -0.887300
     31 O26        -3.4390   -1.2580    1.4940 oh        1 983     -0.818400
     32 C15        -3.7080   -0.0960   -0.9160 c3        1 983     -0.440600
     33 C1         -5.1650   -0.0740   -0.4810 c3        1 983     -0.143400
     34 C2         -5.8230   -1.4640   -0.7840 c         1 983      0.912600
     35 O14        -5.7870   -2.2930    0.1760 o         1 983     -0.819800
     36 O13        -6.2650   -1.7200   -1.9280 o         1 983     -0.819800
     37 C3         -5.8980    1.0650   -1.1050 ca        1 983     -0.035300
     38 C8         -6.2440    2.1770   -0.3270 ca        1 983     -0.132000
     39 C4         -6.2380    1.0540   -2.4650 ca        1 983     -0.095000
     40 C5         -6.9020    2.1410   -3.0300 ca        1 983     -0.145000
     41 C6         -7.2310    3.2510   -2.2520 ca        1 983     -0.136000
     42 C7         -6.9050    3.2700   -0.8950 ca        1 983     -0.147300
     43 C9         -7.2730    4.4500   -0.0400 c3        1 983      0.197100
     44 N10        -6.1820    5.1460    0.5990 n3        1 983     -0.904800
     45 H49         5.1440   -1.0290   -3.0510 ha        1 983      0.143500
     46 H50         6.0170   -1.0930   -5.3920 ha        1 983      0.128500
     47 H51         8.4630   -0.8340   -5.8220 ha        1 983      0.125000
     48 H52        10.0340   -0.5060   -3.9110 ha        1 983      0.128500
     49 H53         9.1650   -0.4330   -1.5780 ha        1 983      0.143500
     50 H471        6.5960   -1.7780   -0.3470 h1        1 983      0.062700
     51 H472        7.2530   -0.0880   -0.1030 h1        1 983      0.062700
     52 HN43        2.9750    0.4470   -0.4920 hn        1 983      0.342500
     53 H34         3.0310   -0.2260    2.4160 h1        1 983      0.090700
     54 H351        1.9480    2.3790    1.0890 hc        1 983      0.066700
     55 H352        1.6230    1.8570    2.7890 hc        1 983      0.066700
     56 H37         3.7720    3.7870    0.7240 ha        1 983      0.133000
     57 H38         5.8650    4.8700    1.5200 ha        1 983      0.126000
     58 H41         6.9270    4.1290    3.6540 ha        1 983      0.123000
     59 H40         5.8870    2.2930    4.9870 ha        1 983      0.126000
     60 H39         3.7930    1.2050    4.1930 ha        1 983      0.133000
     61 H331        0.7260   -0.4660    2.4340 h1        1 983      0.142700
     62 H332        0.4180    0.5860    1.0390 h1        1 983      0.142700
     63 HN31       -0.9550   -2.5140    1.3680 hn        1 983      0.459800
     64 H27        -1.1920   -1.3520   -1.3110 h1        1 983      0.108700
     65 H28        -3.6240   -2.6570   -0.7320 hc        1 983      0.091700
     66 H301       -1.1600   -3.6540   -2.3280 hc        1 983      0.037200
     67 H302       -2.8780   -4.2070   -2.5240 hc        1 983      0.037200
     68 H303       -2.4310   -2.4970   -2.9100 hc        1 983      0.037200
     69 H291       -2.6520   -3.9320    1.1650 hc        1 983      0.037200
     70 H292       -3.0880   -4.9730   -0.2440 hc        1 983      0.037200
     71 H293       -1.3490   -4.5890    0.0740 hc        1 983      0.037200
     72 HO26       -4.2530   -1.7560    1.3240 ho        1 983      0.521000
     73 H151       -3.4310    0.9340   -1.2780 hc        1 983      0.113700
     74 H152       -3.6510   -0.7380   -1.8380 hc        1 983      0.113700
     75 H1         -5.2000    0.0630    0.6390 hc        1 983      0.049700
     76 H8         -6.0010    2.1880    0.7470 ha        1 983      0.125000
     77 H4         -6.0100    0.1540   -3.0620 ha        1 983      0.177000
     78 H5         -7.1730    2.1190   -4.0950 ha        1 983      0.119000
     79 H6         -7.7510    4.1060   -2.7070 ha        1 983      0.114000
     80 H91        -7.8360    5.2020   -0.6650 h1        1 983      0.049200
     81 H92        -7.9730    4.0930    0.7710 h1        1 983      0.049200
     82 H101       -5.6810    4.5270    1.2080 hn        1 983      0.344300
     83 H102       -5.5390    5.4930   -0.0870 hn        1 983      0.344300
@<TRIPOS>BOND
     1    1    2 ar  
     2    1    6 ar  
     3    1   45 1   
     4    2    3 ar  
     5    2   46 1   
     6    3    4 ar  
     7    3   47 1   
     8    4    5 ar  
     9    4   48 1   
    10    5    6 ar  
    11    5   49 1   
    12    6    7 1   
    13    7    8 1   
    14    7   50 1   
    15    7   51 1   
    16    8    9 1   
    17    9   10 2   
    18    9   11 1   
    19   11   12 1   
    20   11   52 1   
    21   12   13 1   
    22   12   20 1   
    23   12   53 1   
    24   13   14 1   
    25   13   54 1   
    26   13   55 1   
    27   14   15 ar  
    28   14   19 ar  
    29   15   16 ar  
    30   15   56 1   
    31   16   17 ar  
    32   16   57 1   
    33   17   18 ar  
    34   17   58 1   
    35   18   19 ar  
    36   18   59 1   
    37   19   60 1   
    38   20   21 1   
    39   20   61 1   
    40   20   62 1   
    41   21   22 2   
    42   21   23 2   
    43   21   24 1   
    44   24   25 1   
    45   24   63 1   
    46   25   26 1   
    47   25   29 1   
    48   25   64 1   
    49   26   27 1   
    50   26   28 1   
    51   26   65 1   
    52   27   66 1   
    53   27   67 1   
    54   27   68 1   
    55   28   69 1   
    56   28   70 1   
    57   28   71 1   
    58   29   30 2   
    59   29   31 1   
    60   29   32 1   
    61   31   72 1   
    62   32   33 1   
    63   32   73 1   
    64   32   74 1   
    65   33   34 1   
    66   33   37 1   
    67   33   75 1   
    68   34   35 1   
    69   34   36 1   
    70   37   38 ar  
    71   37   39 ar  
    72   38   42 ar  
    73   38   76 1   
    74   39   40 ar  
    75   39   77 1   
    76   40   41 ar  
    77   40   78 1   
    78   41   42 ar  
    79   41   79 1   
    80   42   43 1   
    81   43   44 1   
    82   43   80 1   
    83   43   81 1   
    84   44   82 1   
    85   44   83 1   
@<TRIPOS>SUBSTRUCTURE
     1 983         1 TEMP              0 ****  ****    0 ROOT
