@<TRIPOS>MOLECULE
983
   83    77     1     0     0
SMALL
bcc


@<TRIPOS>ATOM
      1 C49        -0.6260    8.3460   -3.2550 c1        1 983     -0.134000
      2 C50        -1.7680    8.9600   -3.7800 c1        1 983     -0.131375
      3 C51        -2.6090    8.2520   -4.6440 c1        1 983     -0.131375
      4 C52        -2.3070    6.9270   -4.9840 c1        1 983     -0.131375
      5 C53        -1.1670    6.3160   -4.4600 c1        1 983     -0.131375
      6 C48        -0.3250    7.0280   -3.5930 c1        1 983     -0.089000
      7 C47         0.8990    6.3670   -3.0350 c3        1 983      0.039000
      8 O46         0.5810    5.7680   -1.7350 os        1 983     -0.271000
      9 C44         1.4370    4.6440   -1.3680 c2        1 983      0.389000
     10 O45         2.3190    4.2890   -2.1110 o         1 983     -0.421000
     11 N43         1.1630    3.8940   -0.1610 n         1 983     -0.333000
     12 C34         1.7490    2.6440    0.0280 c3        1 983      0.077000
     13 C35         2.6680    2.6940    1.2420 c3        1 983     -0.155000
     14 C36         4.0860    2.2580    0.8260 c2        1 983     -0.064000
     15 C37         5.1510    3.1860    0.8670 c2        1 983     -0.126000
     16 C38         6.4470    2.7570    0.6340 c1        1 983     -0.133000
     17 C41         6.7030    1.4130    0.3590 c1        1 983     -0.131375
     18 C40         5.6490    0.4960    0.3190 c1        1 983     -0.131375
     19 C39         4.3420    0.9220    0.5530 c1        1 983     -0.125000
     20 C33         0.6370    1.5680    0.2510 c3        1 983     -0.877000
     21 S32         0.8700    0.2030   -0.9360 s4        1 983      2.024800
     22 O32         0.1580    0.4550   -2.1880 o         1 983     -0.560400
     23 O33         2.2400    0.1420   -1.4030 o         1 983     -0.560400
     24 N31         0.3790   -1.2860   -0.2270 n2        1 983     -0.870000
     25 C27         0.9660   -2.5090   -0.6510 c3        1 983     -0.659000
     26 C28         1.8610   -3.0410    0.4320 c3        1 983     -0.127000
     27 C30         3.3230   -2.8150    0.0520 c3        1 983     -0.212500
     28 C29         1.5640   -2.3150    1.7540 c3        1 983     -0.212500
     29 P24        -0.3710   -3.7390   -1.0000 p5        1 983      2.807000
     30 O25         0.2320   -4.9820   -1.6370 o         1 983     -1.134000
     31 O26        -1.4610   -3.0840   -2.0150 oh        1 983     -0.834000
     32 C15        -1.2020   -4.2040    0.5660 c3        1 983     -0.915000
     33 C1         -2.4080   -5.0840    0.2560 c3        1 983     -0.123000
     34 C2         -3.3360   -4.3580   -0.6700 c2        1 983      0.327000
     35 O14        -3.5570   -3.1260   -0.5060 o         1 983     -0.573500
     36 O13        -3.8280   -4.9560   -1.6550 o         1 983     -0.573500
     37 C3         -3.1380   -5.4180    1.5460 c2        1 983     -0.034000
     38 C8         -4.2830   -4.6960    1.9110 c2        1 983     -0.110000
     39 C4         -2.6250   -6.3700    2.3930 c1        1 983     -0.129000
     40 C5         -3.2450   -6.6250    3.6320 c1        1 983     -0.131375
     41 C6         -4.3980   -5.9000    4.0020 c1        1 983     -0.131375
     42 C7         -4.9120   -4.9440    3.1490 c1        1 983     -0.133000
     43 C9         -6.1480   -4.1040    3.5710 c3        1 983     -0.044000
     44 N10        -5.9100   -3.5060    4.8170 n3        1 983     -0.338000
     45 H49        -0.0390    8.8420   -2.6490 ha        1 983      0.122000
     46 H50        -1.9860    9.9080   -3.5370 ha        1 983      0.130500
     47 H51        -3.4170    8.6890   -5.0140 ha        1 983      0.130500
     48 H52        -2.9380    6.3950   -5.6010 ha        1 983      0.130500
     49 H53        -0.9500    5.3710   -4.7000 ha        1 983      0.130500
     50 H471        1.2040    5.6660   -3.6560 h1        1 983      0.097000
     51 H472        1.6020    7.0300   -2.9230 h1        1 983      0.097000
     52 HN43        0.6820    4.2690    0.4980 hn        1 983      0.276000
     53 H34         2.2910    2.3990   -0.7930 h1        1 983      0.129000
     54 H351        2.6980    3.6340    1.6030 hc        1 983      0.105500
     55 H352        2.3080    2.0540    1.9740 hc        1 983      0.105500
     56 H37         4.9940    4.0620    1.1260 ha        1 983      0.140000
     57 H38         7.1980    3.4080    0.6620 ha        1 983      0.125000
     58 H41         7.5950    1.1210    0.1990 ha        1 983      0.130500
     59 H40         5.8300   -0.4470    0.1260 ha        1 983      0.130500
     60 H39         3.5840    0.2710    0.4830 ha        1 983      0.146000
     61 H331       -0.2490    1.9760    0.1120 h1        1 983      0.192000
     62 H332        0.6980    1.2120    1.1860 h1        1 983      0.192000
     63 HN31       -0.2670   -1.2880    0.4720 hn        1 983      0.270000
     64 H27         1.4930   -2.3570   -1.4610 h1        1 983      0.164000
     65 H28         1.7040   -3.9720    0.5410 hc        1 983      0.112000
     66 H301        3.8350   -2.6670    0.8430 hc        1 983      0.079167
     67 H302        3.6690   -3.6070   -0.4200 hc        1 983      0.079167
     68 H303        3.3880   -2.0640   -0.5080 hc        1 983      0.079167
     69 H291        2.1610   -2.6320    2.4290 hc        1 983      0.079167
     70 H292        1.6880   -1.3630    1.6370 hc        1 983      0.079167
     71 H293        0.6180   -2.4970    2.0310 hc        1 983      0.079167
     72 HO26       -1.3550   -3.4420   -2.8460 ho        1 983      0.297000
     73 H151       -0.5790   -4.6920    1.1340 hc        1 983      0.151500
     74 H152       -1.5010   -3.3950    1.0310 hc        1 983      0.151500
     75 H1         -2.0990   -5.9250   -0.1780 hc        1 983      0.103000
     76 H8         -4.6530   -3.9990    1.2940 ha        1 983      0.171000
     77 H4         -1.8190   -6.8750    2.1320 ha        1 983      0.130000
     78 H5         -2.8760   -7.2980    4.2310 ha        1 983      0.130500
     79 H6         -4.7850   -6.0150    4.8930 ha        1 983      0.130500
     80 H91        -6.9550   -4.7040    3.6350 h1        1 983      0.086000
     81 H92        -6.3100   -3.4090    2.9040 h1        1 983      0.086000
     82 H101       -6.6970   -3.4350    5.2750 hn        1 983      0.146500
     83 H102       -5.5630   -2.6900    4.6920 hn        1 983      0.146500
@<TRIPOS>BOND
     1    1    6 1   
     2    1   45 1   
     3    2    3 1   
     4    2   46 1   
     5    3   47 1   
     6    4    5 1   
     7    4   48 1   
     8    5   49 1   
     9    6    7 1   
    10    7    8 1   
    11    7   50 1   
    12    7   51 1   
    13    8    9 1   
    14    9   10 1   
    15    9   11 1   
    16   11   12 1   
    17   11   52 1   
    18   12   13 1   
    19   12   20 1   
    20   12   53 1   
    21   13   14 1   
    22   13   54 1   
    23   13   55 1   
    24   14   15 1   
    25   14   19 1   
    26   15   16 1   
    27   15   56 1   
    28   16   57 1   
    29   17   18 1   
    30   17   58 1   
    31   18   59 1   
    32   19   60 1   
    33   20   21 1   
    34   20   61 1   
    35   20   62 1   
    36   21   22 1   
    37   21   23 1   
    38   24   25 1   
    39   24   63 1   
    40   25   26 1   
    41   25   29 1   
    42   25   64 1   
    43   26   27 1   
    44   26   28 1   
    45   26   65 1   
    46   27   66 1   
    47   27   67 1   
    48   27   68 1   
    49   28   69 1   
    50   28   70 1   
    51   28   71 1   
    52   29   30 1   
    53   29   31 1   
    54   29   32 1   
    55   31   72 1   
    56   32   33 1   
    57   32   73 1   
    58   32   74 1   
    59   33   34 1   
    60   33   37 1   
    61   33   75 1   
    62   34   35 1   
    63   34   36 1   
    64   37   38 1   
    65   37   39 1   
    66   38   42 1   
    67   38   76 1   
    68   39   77 1   
    69   40   41 1   
    70   40   78 1   
    71   41   79 1   
    72   42   43 1   
    73   43   44 1   
    74   43   80 1   
    75   43   81 1   
    76   44   82 1   
    77   44   83 1   
@<TRIPOS>SUBSTRUCTURE
     1 983         1 TEMP              0 ****  ****    0 ROOT
