@<TRIPOS>MOLECULE
983
   83    85     1     0     0
SMALL
bcc


@<TRIPOS>ATOM
      1 C49         0.2600   -0.9030    1.8760 ca        1 983     -0.113000
      2 C50         1.6520   -0.9150    1.7860 ca        1 983     -0.135000
      3 C51         2.3530    0.2780    1.6150 ca        1 983     -0.133000
      4 C52         1.6610    1.4860    1.5290 ca        1 983     -0.135000
      5 C53         0.2700    1.5030    1.6120 ca        1 983     -0.113000
      6 C48        -0.4360    0.3070    1.7900 ca        1 983     -0.088300
      7 C47        -1.9210    0.3590    1.9200 c3        1 983      0.195700
      8 O46        -2.4500   -0.8720    1.3960 os        1 983     -0.444900
      9 C44        -3.8150   -1.0360    1.5820 c         1 983      0.753100
     10 O45        -4.4620   -0.0940    2.0680 o         1 983     -0.590000
     11 N43        -4.2410   -2.2900    1.2110 n         1 983     -0.554900
     12 C34        -5.6500   -2.6010    1.1030 c3        1 983      0.167700
     13 C35        -6.1950   -2.5470   -0.3410 c3        1 983     -0.063100
     14 C36        -6.2170   -1.1790   -0.9210 ca        1 983     -0.077300
     15 C37        -5.4070   -0.8620   -2.0170 ca        1 983     -0.118500
     16 C38        -5.4550    0.4110   -2.5840 ca        1 983     -0.129500
     17 C41        -6.3130    1.3780   -2.0620 ca        1 983     -0.136000
     18 C40        -7.1230    1.0680   -0.9700 ca        1 983     -0.129500
     19 C39        -7.0780   -0.2030   -0.4030 ca        1 983     -0.118500
     20 C33        -5.9540   -4.0020    1.6510 c3        1 983     -0.343600
     21 S32        -4.9390   -4.5860    2.9220 s6        1 983      1.471900
     22 O32        -3.6490   -4.8320    2.3910 o         1 983     -0.666300
     23 O33        -5.0200   -3.6840    4.0040 o         1 983     -0.666300
     24 N31        -5.6620   -5.9670    3.3270 n3        1 983     -0.900100
     25 C27        -5.1810   -7.2790    2.9860 c3        1 983     -0.049700
     26 C28        -4.9890   -8.2520    4.1630 c3        1 983     -0.082700
     27 C30        -3.5140   -8.4910    4.4210 c3        1 983     -0.085600
     28 C29        -5.6640   -7.8370    5.4550 c3        1 983     -0.085600
     29 P24        -6.2550   -7.9370    1.8420 p5        1 983      1.497100
     30 O25        -6.5380   -6.9550    0.7860 o         1 983     -0.887300
     31 O26        -7.5810   -8.2330    2.6780 oh        1 983     -0.818400
     32 C15        -5.5380   -9.3100    1.3000 c3        1 983     -0.439600
     33 C1         -6.4630  -10.5170    1.3290 c3        1 983     -0.143400
     34 C2         -6.2960  -11.2730    2.6910 c         1 983      0.912600
     35 O14        -7.1140  -10.9290    3.5990 o         1 983     -0.819800
     36 O13        -5.3590  -12.0900    2.8510 o         1 983     -0.819800
     37 C3         -6.2380  -11.3990    0.1470 ca        1 983     -0.037300
     38 C8         -7.1870  -11.4370   -0.8820 ca        1 983     -0.122000
     39 C4         -5.0840  -12.1860    0.0400 ca        1 983     -0.095000
     40 C5         -4.8830  -12.9870   -1.0830 ca        1 983     -0.144000
     41 C6         -5.8270  -13.0140   -2.1080 ca        1 983     -0.144000
     42 C7         -6.9870  -12.2400   -2.0070 ca        1 983     -0.148300
     43 C9         -8.0100  -12.2830   -3.1060 c3        1 983      0.196100
     44 N10        -7.5980  -11.7400   -4.3790 n3        1 983     -0.903800
     45 H49        -0.3000   -1.8430    2.0070 ha        1 983      0.143500
     46 H50         2.1940   -1.8690    1.8520 ha        1 983      0.128500
     47 H51         3.4510    0.2670    1.5470 ha        1 983      0.125000
     48 H52         2.2120    2.4280    1.3920 ha        1 983      0.128500
     49 H53        -0.2750    2.4550    1.5380 ha        1 983      0.143500
     50 H471       -2.2240    0.4590    2.9980 h1        1 983      0.062700
     51 H472       -2.3620    1.2100    1.3350 h1        1 983      0.062700
     52 HN43       -3.5850   -2.9050    0.7810 hn        1 983      0.342500
     53 H34        -6.2080   -1.8330    1.7220 h1        1 983      0.090700
     54 H351       -7.2450   -2.9490   -0.3120 hc        1 983      0.066700
     55 H352       -5.5960   -3.2370   -0.9930 hc        1 983      0.066700
     56 H37        -4.7280   -1.6210   -2.4340 ha        1 983      0.133000
     57 H38        -4.8120    0.6510   -3.4430 ha        1 983      0.126000
     58 H41        -6.3480    2.3820   -2.5080 ha        1 983      0.123000
     59 H40        -7.7970    1.8300   -0.5510 ha        1 983      0.126000
     60 H39        -7.7130   -0.4430    0.4630 ha        1 983      0.133000
     61 H331       -5.9360   -4.7390    0.7910 h1        1 983      0.142700
     62 H332       -7.0310   -3.9870    1.9670 h1        1 983      0.142700
     63 HN31       -6.4650   -6.0000    3.9120 hn        1 983      0.459800
     64 H27        -4.1600   -7.1400    2.5090 h1        1 983      0.108700
     65 H28        -5.4530   -9.2450    3.8660 hc        1 983      0.091700
     66 H301       -3.0050   -7.5400    4.7110 hc        1 983      0.037367
     67 H302       -3.3870   -9.2320    5.2470 hc        1 983      0.037367
     68 H303       -3.0160   -8.8990    3.5080 hc        1 983      0.037367
     69 H291       -5.5200   -8.6440    6.2160 hc        1 983      0.037367
     70 H292       -6.7630   -7.7020    5.3070 hc        1 983      0.037367
     71 H293       -5.2270   -6.8940    5.8610 hc        1 983      0.037367
     72 HO26       -7.6730   -9.0690    3.1590 ho        1 983      0.521000
     73 H151       -5.1970   -9.1510    0.2390 hc        1 983      0.113700
     74 H152       -4.6010   -9.6020    1.8510 hc        1 983      0.113700
     75 H1         -7.5290  -10.1480    1.2900 hc        1 983      0.049700
     76 H8         -8.1040  -10.8320   -0.8020 ha        1 983      0.128000
     77 H4         -4.3640  -12.1910    0.8770 ha        1 983      0.176000
     78 H5         -3.9790  -13.6080   -1.1550 ha        1 983      0.119000
     79 H6         -5.6680  -13.6510   -2.9890 ha        1 983      0.112000
     80 H91        -8.9370  -11.7300   -2.7790 h1        1 983      0.051700
     81 H92        -8.3020  -13.3600   -3.2770 h1        1 983      0.051700
     82 H101       -7.4250  -10.7550   -4.2990 hn        1 983      0.340800
     83 H102       -6.7500  -12.1790   -4.6860 hn        1 983      0.340800
@<TRIPOS>BOND
     1    1    2 ar  
     2    1    6 ar  
     3    1   45 1   
     4    2    3 ar  
     5    2   46 1   
     6    3    4 ar  
     7    3   47 1   
     8    4    5 ar  
     9    4   48 1   
    10    5    6 ar  
    11    5   49 1   
    12    6    7 1   
    13    7    8 1   
    14    7   50 1   
    15    7   51 1   
    16    8    9 1   
    17    9   10 2   
    18    9   11 1   
    19   11   12 1   
    20   11   52 1   
    21   12   13 1   
    22   12   20 1   
    23   12   53 1   
    24   13   14 1   
    25   13   54 1   
    26   13   55 1   
    27   14   15 ar  
    28   14   19 ar  
    29   15   16 ar  
    30   15   56 1   
    31   16   17 ar  
    32   16   57 1   
    33   17   18 ar  
    34   17   58 1   
    35   18   19 ar  
    36   18   59 1   
    37   19   60 1   
    38   20   21 1   
    39   20   61 1   
    40   20   62 1   
    41   21   22 2   
    42   21   23 2   
    43   21   24 1   
    44   24   25 1   
    45   24   63 1   
    46   25   26 1   
    47   25   29 1   
    48   25   64 1   
    49   26   27 1   
    50   26   28 1   
    51   26   65 1   
    52   27   66 1   
    53   27   67 1   
    54   27   68 1   
    55   28   69 1   
    56   28   70 1   
    57   28   71 1   
    58   29   30 2   
    59   29   31 1   
    60   29   32 1   
    61   31   72 1   
    62   32   33 1   
    63   32   73 1   
    64   32   74 1   
    65   33   34 1   
    66   33   37 1   
    67   33   75 1   
    68   34   35 1   
    69   34   36 1   
    70   37   38 ar  
    71   37   39 ar  
    72   38   42 ar  
    73   38   76 1   
    74   39   40 ar  
    75   39   77 1   
    76   40   41 ar  
    77   40   78 1   
    78   41   42 ar  
    79   41   79 1   
    80   42   43 1   
    81   43   44 1   
    82   43   80 1   
    83   43   81 1   
    84   44   82 1   
    85   44   83 1   
@<TRIPOS>SUBSTRUCTURE
     1 983         1 TEMP              0 ****  ****    0 ROOT
