@<TRIPOS>MOLECULE
984
   63    67     1     0     0
SMALL
bcc


@<TRIPOS>ATOM
      1 N1         -0.0180    0.0810    0.1470 na        1 984     -0.182900
      2 C2          1.3940    0.0730    0.1420 cc        1 984      0.422800
      3 N3          1.8840    0.1490    1.4030 nd        1 984     -0.657000
      4 C4          0.7760    0.1890    2.2590 cd        1 984      0.382800
      5 C5         -0.4130    0.1400    1.4910 cc        1 984     -0.262100
      6 C6         -0.8930   -0.0610   -0.9820 c3        1 984      0.032300
      7 C7         -1.0000   -1.4830   -1.5390 c3        1 984     -0.102400
      8 C10        -1.9310   -1.5010   -2.7240 c3        1 984     -0.095100
      9 C16         2.2220    0.0030   -1.1060 c3        1 984     -0.084000
     10 C17         3.2040    1.1650   -1.1730 c3        1 984     -0.074400
     11 C18         4.0640    1.0560   -2.4310 c3        1 984      0.169800
     12 N19         4.7490   -0.2230   -2.5540 n3        1 984     -0.732600
     13 C20         3.8580   -1.3670   -2.4150 c3        1 984      0.169800
     14 C21         2.9900   -1.3120   -1.1590 c3        1 984     -0.074400
     15 C31         5.5600   -0.3000   -3.7480 c3        1 984      0.159100
     16 C35         0.8950    0.2840    3.7040 ca        1 984     -0.085500
     17 C36        -1.8140    0.1450    1.9250 ca        1 984      0.548800
     18 C37        -0.0620    0.9900    4.4440 ca        1 984     -0.112000
     19 C38         0.0470    1.0780    5.8350 ca        1 984      0.015400
     20 C39         1.1210    0.4640    6.4950 ca        1 984      0.016400
     21 C40         2.0820   -0.2330    5.7530 ca        1 984     -0.123000
     22 C41         1.9720   -0.3220    4.3690 ca        1 984     -0.092000
     23 Cl45       -1.1370    1.9380    6.6970 cl        1 984     -0.078400
     24 Cl46        1.2810    0.5510    8.1820 cl        1 984     -0.075400
     25 C47        -2.6040    1.2900    1.6790 ca        1 984     -0.414600
     26 C48        -3.9280    1.2530    2.1480 ca        1 984      0.459200
     27 N49        -4.4590    0.2040    2.7910 nb        1 984     -0.727000
     28 C50        -3.6210   -0.8920    2.9730 ca        1 984      0.864900
     29 N51        -2.2920   -0.9460    2.5610 nb        1 984     -0.726000
     30 N54        -4.1490   -2.0750    3.5310 nu        1 984     -0.784900
     31 C55        -5.3020   -2.0060    4.3670 cx        1 984      0.151500
     32 C56        -5.6220   -3.1400    5.3200 cx        1 984     -0.147400
     33 C57        -5.2340   -1.8000    5.8710 cx        1 984     -0.147400
     34 HC61       -0.5270    0.6260   -1.7990 h1        1 984      0.064700
     35 HC62       -1.9210    0.2880   -0.6700 h1        1 984      0.064700
     36 HC71        0.0160   -1.8480   -1.8440 hc        1 984      0.058700
     37 HC72       -1.3810   -2.1770   -0.7440 hc        1 984      0.058700
     38 H101       -2.9540   -1.1620   -2.4300 hc        1 984      0.039367
     39 H102       -1.5560   -0.8310   -3.5350 hc        1 984      0.039367
     40 H103       -2.0080   -2.5380   -3.1310 hc        1 984      0.039367
     41 H16         1.5450    0.0550   -2.0080 hc        1 984      0.050700
     42 H171        3.8570    1.1640   -0.2620 hc        1 984      0.062950
     43 H172        2.6500    2.1370   -1.2000 hc        1 984      0.062950
     44 H181        4.8540    1.8580   -2.3930 h1        1 984      0.029700
     45 H182        3.4110    1.2640   -3.3310 h1        1 984      0.029700
     46 H201        4.5030   -2.2890   -2.3640 h1        1 984      0.029700
     47 H202        3.1810   -1.4750   -3.3140 h1        1 984      0.029700
     48 H211        2.2760   -2.1750   -1.1800 hc        1 984      0.062950
     49 H212        3.6310   -1.4120   -0.2450 hc        1 984      0.062950
     50 H311        6.1330   -1.2630   -3.7340 h1        1 984      0.031700
     51 H312        6.2870    0.5530   -3.7450 h1        1 984      0.031700
     52 H313        4.9600   -0.2550   -4.6990 h1        1 984      0.031700
     53 H37        -0.9020    1.4800    3.9260 ha        1 984      0.151000
     54 H40         2.9290   -0.7120    6.2670 ha        1 984      0.151000
     55 H41         2.7350   -0.8690    3.7950 ha        1 984      0.158000
     56 H47        -2.1960    2.1680    1.1680 ha        1 984      0.160000
     57 H48        -4.6060    2.1160    2.0090 h4        1 984      0.029100
     58 H54        -3.4560   -2.7340    3.8300 hn        1 984      0.426800
     59 H55        -6.1540   -1.5300    3.8280 h1        1 984      0.115700
     60 H561       -6.6730   -3.4730    5.3860 hc        1 984      0.078200
     61 H562       -4.9190   -3.9850    5.4280 hc        1 984      0.078200
     62 H571       -6.0020   -1.1630    6.3420 hc        1 984      0.078200
     63 H572       -4.2530   -1.6940    6.3660 hc        1 984      0.078200
@<TRIPOS>BOND
     1    1    2 1   
     2    1    5 1   
     3    1    6 1   
     4    2    3 2   
     5    2    9 1   
     6    3    4 1   
     7    4    5 2   
     8    4   16 1   
     9    5   17 1   
    10    6    7 1   
    11    6   34 1   
    12    6   35 1   
    13    7    8 1   
    14    7   36 1   
    15    7   37 1   
    16    8   38 1   
    17    8   39 1   
    18    8   40 1   
    19    9   10 1   
    20    9   14 1   
    21    9   41 1   
    22   10   11 1   
    23   10   42 1   
    24   10   43 1   
    25   11   12 1   
    26   11   44 1   
    27   11   45 1   
    28   12   13 1   
    29   12   15 1   
    30   13   14 1   
    31   13   46 1   
    32   13   47 1   
    33   14   48 1   
    34   14   49 1   
    35   15   50 1   
    36   15   51 1   
    37   15   52 1   
    38   16   18 ar  
    39   16   22 ar  
    40   17   25 ar  
    41   17   29 ar  
    42   18   19 ar  
    43   18   53 1   
    44   19   20 ar  
    45   19   23 1   
    46   20   21 ar  
    47   20   24 1   
    48   21   22 ar  
    49   21   54 1   
    50   22   55 1   
    51   25   26 ar  
    52   25   56 1   
    53   26   27 ar  
    54   26   57 1   
    55   27   28 ar  
    56   28   29 ar  
    57   28   30 1   
    58   30   31 1   
    59   30   58 1   
    60   31   32 1   
    61   31   33 1   
    62   31   59 1   
    63   32   33 1   
    64   32   60 1   
    65   32   61 1   
    66   33   62 1   
    67   33   63 1   
@<TRIPOS>SUBSTRUCTURE
     1 984         1 TEMP              0 ****  ****    0 ROOT
