@<TRIPOS>MOLECULE
984
   64    68     1     0     0
SMALL
bcc


@<TRIPOS>ATOM
      1 N1         -0.1970    0.0080   -0.0350 na        1 984     -0.178900
      2 C2          1.2060    0.0260    0.0820 cc        1 984      0.473800
      3 N3          1.5910    0.0360    1.3880 nd        1 984     -0.652000
      4 C4          0.4230   -0.0060    2.1460 cd        1 984      0.447800
      5 C5         -0.7050   -0.0360    1.2790 cc        1 984     -0.350100
      6 C6         -0.9470   -0.1750   -1.2480 c3        1 984      0.026300
      7 C7         -0.8830   -1.5850   -1.8410 c3        1 984     -0.102400
      8 C10        -1.6800   -1.6400   -3.1190 c3        1 984     -0.099100
      9 C16         2.1470    0.0630   -1.0880 c3        1 984     -0.095000
     10 C17         3.0410    1.2950   -1.0180 c3        1 984     -0.075400
     11 C18         4.0240    1.2970   -2.1870 c3        1 984      0.169300
     12 N19         4.8120    0.0750   -2.2720 n3        1 984     -0.732600
     13 C20         3.9950   -1.1290   -2.2800 c3        1 984      0.169300
     14 C21         3.0100   -1.1930   -1.1130 c3        1 984     -0.075400
     15 C31         5.7660    0.1050   -3.3580 c3        1 984      0.157100
     16 C35         0.4250    0.0300    3.6000 ca        1 984     -0.113500
     17 C36        -2.1130   -0.0790    1.6300 ca        1 984      0.584800
     18 C37        -0.5130    0.8090    4.2850 ca        1 984     -0.116000
     19 C38        -0.5140    0.8410    5.6830 ca        1 984     -0.001600
     20 C39         0.4400    0.1060    6.4040 ca        1 984      0.020400
     21 C40         1.3920   -0.6530    5.7130 ca        1 984     -0.118000
     22 C41         1.3870   -0.6920    4.3220 ca        1 984     -0.078000
     23 CL45       -1.6780    1.7880    6.4780 cl        1 984     -0.073400
     24 CL46        0.4630    0.1260    8.0950 cl        1 984     -0.047400
     25 C47        -3.0220    0.8750    1.1050 ca        1 984     -0.316600
     26 C48        -4.3660    0.7950    1.5050 ca        1 984      0.458200
     27 N49        -4.8170   -0.1390    2.3690 nb        1 984     -0.674000
     28 C50        -3.8590   -1.0110    2.8250 ca        1 984      0.710900
     29 N51        -2.5300   -1.0430    2.5020 nb        1 984     -0.661000
     30 N54        -4.3240   -2.0610    3.7880 n4        1 984     -0.704700
     31 C55        -4.5410   -1.4980    5.1340 cx        1 984      0.001500
     32 C56        -4.6300   -2.4250    6.3310 cx        1 984     -0.100400
     33 C57        -3.4430   -1.5270    6.1760 cx        1 984     -0.100400
     34 HC61       -2.0250    0.0830   -1.0430 h1        1 984      0.065700
     35 HC62       -0.5560    0.5610   -2.0100 h1        1 984      0.065700
     36 HC71       -1.2870   -2.3300   -1.1070 hc        1 984      0.057700
     37 HC72        0.1850   -1.8630   -2.0460 hc        1 984      0.057700
     38 H101       -2.7520   -1.3870   -2.9330 hc        1 984      0.046367
     39 H102       -1.2740   -0.9220   -3.8730 hc        1 984      0.046367
     40 H103       -1.6310   -2.6680   -3.5530 hc        1 984      0.046367
     41 H16         1.5530    0.1070   -2.0460 hc        1 984      0.056700
     42 H171        2.4210    2.2260   -1.0690 hc        1 984      0.062950
     43 H172        3.6040    1.3040   -0.0480 hc        1 984      0.062950
     44 H181        3.4490    1.4870   -3.1410 h1        1 984      0.036200
     45 H182        4.7430    2.1530   -2.0460 h1        1 984      0.036200
     46 H201        4.6930   -2.0110   -2.2050 h1        1 984      0.036200
     47 H202        3.4160   -1.2330   -3.2450 h1        1 984      0.036200
     48 H211        2.3670   -2.1010   -1.2370 hc        1 984      0.062950
     49 H212        3.5700   -1.2890   -0.1470 hc        1 984      0.062950
     50 H311        6.4030   -0.8160   -3.3040 h1        1 984      0.038033
     51 H312        6.4240    1.0050   -3.2350 h1        1 984      0.038033
     52 H313        5.2840    0.1500   -4.3730 h1        1 984      0.038033
     53 H37        -1.2380    1.4180    3.7230 ha        1 984      0.141000
     54 H40         2.1560   -1.2150    6.2740 ha        1 984      0.166000
     55 H41         2.1500   -1.2810    3.7870 ha        1 984      0.167000
     56 H47        -2.6780    1.6670    0.4230 ha        1 984      0.194000
     57 H48        -5.1320    1.5070    1.1350 h4        1 984      0.070100
     58 H54        -3.6210   -2.8130    3.8300 hn        1 984      0.471300
     59 H55        -5.2160   -0.6120    5.0770 hx        1 984      0.156700
     60 H561       -4.4990   -3.5160    6.2040 hc        1 984      0.113450
     61 H562       -5.4040   -2.1950    7.0910 hc        1 984      0.113450
     62 H571       -2.4590   -1.9740    5.9330 hc        1 984      0.113450
     63 H572       -3.3300   -0.6320    6.8210 hc        1 984      0.113450
     64 H542       -5.2140   -2.4480    3.4440 hn        1 984      0.471300
@<TRIPOS>BOND
     1    1    2 1   
     2    1    5 1   
     3    1    6 1   
     4    2    3 2   
     5    2    9 1   
     6    3    4 1   
     7    4    5 2   
     8    4   16 1   
     9    5   17 1   
    10    6    7 1   
    11    6   34 1   
    12    6   35 1   
    13    7    8 1   
    14    7   36 1   
    15    7   37 1   
    16    8   38 1   
    17    8   39 1   
    18    8   40 1   
    19    9   10 1   
    20    9   14 1   
    21    9   41 1   
    22   10   11 1   
    23   10   42 1   
    24   10   43 1   
    25   11   12 1   
    26   11   44 1   
    27   11   45 1   
    28   12   13 1   
    29   12   15 1   
    30   13   14 1   
    31   13   46 1   
    32   13   47 1   
    33   14   48 1   
    34   14   49 1   
    35   15   50 1   
    36   15   51 1   
    37   15   52 1   
    38   16   18 ar  
    39   16   22 ar  
    40   17   25 ar  
    41   17   29 ar  
    42   18   19 ar  
    43   18   53 1   
    44   19   20 ar  
    45   19   23 1   
    46   20   21 ar  
    47   20   24 1   
    48   21   22 ar  
    49   21   54 1   
    50   22   55 1   
    51   25   26 ar  
    52   25   56 1   
    53   26   27 ar  
    54   26   57 1   
    55   27   28 ar  
    56   28   29 ar  
    57   28   30 1   
    58   30   31 1   
    59   30   58 1   
    60   30   64 1   
    61   31   32 1   
    62   31   33 1   
    63   31   59 1   
    64   32   33 1   
    65   32   60 1   
    66   32   61 1   
    67   33   62 1   
    68   33   63 1   
@<TRIPOS>SUBSTRUCTURE
     1 984         1 TEMP              0 ****  ****    0 ROOT
