@<TRIPOS>MOLECULE
984
   63    67     1     0     0
SMALL
bcc


@<TRIPOS>ATOM
      1 N1          0.9690    0.4330    1.7860 na        1 984     -0.179900
      2 C2         -0.1320    0.2200    2.6420 cc        1 984      0.420800
      3 N3         -1.2930    0.2090    1.9420 nd        1 984     -0.657000
      4 C4         -0.9520    0.4100    0.5980 cd        1 984      0.374800
      5 C5          0.4540    0.5500    0.4880 cc        1 984     -0.259100
      6 C6          2.3610    0.4400    2.1420 c3        1 984      0.036300
      7 C7          2.9640   -0.9440    2.3980 c3        1 984     -0.102400
      8 C10         4.4130   -0.8070    2.7870 c3        1 984     -0.095100
      9 C16        -0.0130    0.0400    4.1260 c3        1 984     -0.084000
     10 C17        -0.8870    1.0440    4.8660 c3        1 984     -0.074400
     11 C18        -0.7820    0.8220    6.3740 c3        1 984      0.169800
     12 N19        -1.0830   -0.5430    6.7800 n3        1 984     -0.732600
     13 C20        -0.3280   -1.5430    6.0390 c3        1 984      0.169800
     14 C21        -0.4180   -1.3730    4.5240 c3        1 984     -0.074400
     15 C31        -0.9830   -0.7270    8.2100 c3        1 984      0.159100
     16 C35        -1.9460    0.4320   -0.4620 ca        1 984     -0.087500
     17 C36         1.3030    0.7540   -0.6920 ca        1 984      0.547800
     18 C37        -1.8050    1.2920   -1.5570 ca        1 984     -0.116000
     19 C38        -2.7640    1.3030   -2.5740 ca        1 984      0.016400
     20 C39        -3.8780    0.4550   -2.4990 ca        1 984      0.017400
     21 C40        -4.0230   -0.3980   -1.3990 ca        1 984     -0.123000
     22 C41        -3.0670   -0.4100   -0.3880 ca        1 984     -0.092000
     23 CL45       -2.5520    2.3590   -3.8870 cl        1 984     -0.077400
     24 CL46       -5.0590    0.4430   -3.7170 cl        1 984     -0.074400
     25 C47         1.4920    2.0640   -1.1850 ca        1 984     -0.404600
     26 C48         2.2930    2.1930   -2.3340 ca        1 984      0.459200
     27 N49         2.8760    1.1580   -2.9520 nb        1 984     -0.724000
     28 C50         2.6620   -0.0960   -2.3860 ca        1 984      0.861900
     29 N51         1.8720   -0.3290   -1.2640 nb        1 984     -0.732000
     30 N54         3.3470   -1.2120   -2.9100 nh        1 984     -0.784900
     31 C55         3.8030   -1.1860   -4.2620 cx        1 984      0.151500
     32 C56         4.1260   -2.4800   -4.9830 cx        1 984     -0.147400
     33 C57         2.9610   -1.6510   -5.4380 cx        1 984     -0.147400
     34 HC61        2.4840    1.0720    3.0690 h1        1 984      0.063200
     35 HC62        2.9330    0.9360    1.3050 h1        1 984      0.063200
     36 HC71        2.8730   -1.5740    1.4740 hc        1 984      0.059700
     37 HC72        2.3950   -1.4610    3.2160 hc        1 984      0.059700
     38 H101        4.8530   -1.8170    2.9750 hc        1 984      0.038700
     39 H102        4.9980   -0.3160    1.9720 hc        1 984      0.038700
     40 H103        4.5210   -0.1970    3.7150 hc        1 984      0.038700
     41 H16         1.0590    0.2030    4.4370 hc        1 984      0.051700
     42 H171       -0.5580    2.0880    4.6330 hc        1 984      0.062450
     43 H172       -1.9530    0.9350    4.5380 hc        1 984      0.062450
     44 H181        0.2510    1.1350    6.7120 h1        1 984      0.029450
     45 H182       -1.5240    1.4960    6.8870 h1        1 984      0.029450
     46 H201        0.7640   -1.5390    6.3350 h1        1 984      0.029450
     47 H202       -0.7490   -2.5520    6.3110 h1        1 984      0.029450
     48 H211       -1.4640   -1.5780    4.1760 hc        1 984      0.062450
     49 H212        0.2620   -2.1200    4.0380 hc        1 984      0.062450
     50 H311       -1.3200   -1.7650    8.4660 h1        1 984      0.031700
     51 H312        0.0610   -0.5830    8.6060 h1        1 984      0.031700
     52 H313       -1.6610    0.0080    8.7170 h1        1 984      0.031700
     53 H37        -0.9360    1.9660   -1.6170 ha        1 984      0.153000
     54 H40        -4.8980   -1.0620   -1.3330 ha        1 984      0.151000
     55 H41        -3.1950   -1.0820    0.4740 ha        1 984      0.158000
     56 H47         1.0320    2.9320   -0.7010 ha        1 984      0.163000
     57 H48         2.4770    3.1840   -2.7910 h4        1 984      0.031100
     58 H54         2.9790   -2.0950   -2.6140 hn        1 984      0.424800
     59 H55         4.4800   -0.3180   -4.4340 h1        1 984      0.115700
     60 H561        5.0450   -2.5100   -5.5950 hc        1 984      0.077700
     61 H562        3.9300   -3.4490   -4.4910 hc        1 984      0.077700
     62 H571        1.9390   -2.0320   -5.2650 hc        1 984      0.077700
     63 H572        3.0330   -1.0850   -6.3830 hc        1 984      0.077700
@<TRIPOS>BOND
     1    1    2 1   
     2    1    5 1   
     3    1    6 1   
     4    2    3 2   
     5    2    9 1   
     6    3    4 1   
     7    4    5 2   
     8    4   16 1   
     9    5   17 1   
    10    6    7 1   
    11    6   34 1   
    12    6   35 1   
    13    7    8 1   
    14    7   36 1   
    15    7   37 1   
    16    8   38 1   
    17    8   39 1   
    18    8   40 1   
    19    9   10 1   
    20    9   14 1   
    21    9   41 1   
    22   10   11 1   
    23   10   42 1   
    24   10   43 1   
    25   11   12 1   
    26   11   44 1   
    27   11   45 1   
    28   12   13 1   
    29   12   15 1   
    30   13   14 1   
    31   13   46 1   
    32   13   47 1   
    33   14   48 1   
    34   14   49 1   
    35   15   50 1   
    36   15   51 1   
    37   15   52 1   
    38   16   18 ar  
    39   16   22 ar  
    40   17   25 ar  
    41   17   29 ar  
    42   18   19 ar  
    43   18   53 1   
    44   19   20 ar  
    45   19   23 1   
    46   20   21 ar  
    47   20   24 1   
    48   21   22 ar  
    49   21   54 1   
    50   22   55 1   
    51   25   26 ar  
    52   25   56 1   
    53   26   27 ar  
    54   26   57 1   
    55   27   28 ar  
    56   28   29 ar  
    57   28   30 1   
    58   30   31 1   
    59   30   58 1   
    60   31   32 1   
    61   31   33 1   
    62   31   59 1   
    63   32   33 1   
    64   32   60 1   
    65   32   61 1   
    66   33   62 1   
    67   33   63 1   
@<TRIPOS>SUBSTRUCTURE
     1 984         1 TEMP              0 ****  ****    0 ROOT
