@<TRIPOS>MOLECULE
984
   63    67     1     0     0
SMALL
bcc


@<TRIPOS>ATOM
      1 N1         -0.0200    0.0840    0.1450 na        1 984     -0.182900
      2 C2          1.3920    0.0730    0.1390 cc        1 984      0.422800
      3 N3          1.8820    0.1380    1.4020 nd        1 984     -0.657000
      4 C4          0.7750    0.1730    2.2580 cd        1 984      0.382800
      5 C5         -0.4150    0.1330    1.4890 cc        1 984     -0.262100
      6 C6         -0.8950   -0.0510   -0.9860 c3        1 984      0.032300
      7 C7         -1.0020   -1.4680   -1.5520 c3        1 984     -0.102400
      8 C10        -1.9320   -1.4780   -2.7370 c3        1 984     -0.095100
      9 C16         2.2200    0.0110   -1.1090 c3        1 984     -0.084000
     10 C17         3.2010    1.1740   -1.1670 c3        1 984     -0.074400
     11 C18         4.0610    1.0750   -2.4260 c3        1 984      0.169800
     12 N19         4.7460   -0.2030   -2.5590 n3        1 984     -0.732600
     13 C20         3.8560   -1.3480   -2.4280 c3        1 984      0.169800
     14 C21         2.9880   -1.3020   -1.1720 c3        1 984     -0.074400
     15 C31         5.5570   -0.2720   -3.7530 c3        1 984      0.159100
     16 C35         0.8940    0.2570    3.7030 ca        1 984     -0.085500
     17 C36        -1.8150    0.1370    1.9240 ca        1 984      0.548800
     18 C37        -0.0590    0.9620    4.4490 ca        1 984     -0.111000
     19 C38         0.0500    1.0380    5.8400 ca        1 984      0.015400
     20 C39         1.1210    0.4140    6.4950 ca        1 984      0.016400
     21 C40         2.0780   -0.2820    5.7480 ca        1 984     -0.123000
     22 C41         1.9670   -0.3600    4.3630 ca        1 984     -0.092000
     23 CL45       -1.1290    1.8980    6.7090 cl        1 984     -0.078400
     24 CL46        1.2820    0.4860    8.1830 cl        1 984     -0.075400
     25 C47        -2.6080    1.2790    1.6710 ca        1 984     -0.414600
     26 C48        -3.9320    1.2410    2.1420 ca        1 984      0.459200
     27 N49        -4.4600    0.1960    2.7920 nb        1 984     -0.727000
     28 C50        -3.6190   -0.8970    2.9820 ca        1 984      0.864900
     29 N51        -2.2890   -0.9510    2.5690 nb        1 984     -0.726000
     30 N54        -4.1430   -2.0770    3.5490 nh        1 984     -0.784900
     31 C55        -5.2950   -2.0050    4.3850 cx        1 984      0.151500
     32 C56        -5.6110   -3.1330    5.3480 cx        1 984     -0.147400
     33 C57        -5.2260   -1.7880    5.8870 cx        1 984     -0.147400
     34 HC61       -1.9230    0.2960   -0.6710 h1        1 984      0.064700
     35 HC62       -0.5290    0.6420   -1.7980 h1        1 984      0.064700
     36 HC71        0.0140   -1.8320   -1.8590 hc        1 984      0.058200
     37 HC72       -1.3830   -2.1680   -0.7620 hc        1 984      0.058200
     38 H101       -2.9550   -1.1410   -2.4420 hc        1 984      0.039367
     39 H102       -2.0090   -2.5130   -3.1520 hc        1 984      0.039367
     40 H103       -1.5570   -0.8020   -3.5440 hc        1 984      0.039367
     41 H16         1.5430    0.0700   -2.0100 hc        1 984      0.050700
     42 H171        2.6470    2.1470   -1.1870 hc        1 984      0.062950
     43 H172        3.8560    1.1660   -0.2570 hc        1 984      0.062950
     44 H181        4.8520    1.8760   -2.3830 h1        1 984      0.029700
     45 H182        3.4090    1.2890   -3.3250 h1        1 984      0.029700
     46 H201        3.1790   -1.4500   -3.3280 h1        1 984      0.029700
     47 H202        4.5010   -2.2710   -2.3830 h1        1 984      0.029700
     48 H211        3.6290   -1.4090   -0.2580 hc        1 984      0.062950
     49 H212        2.2740   -2.1650   -1.1980 hc        1 984      0.062950
     50 H311        6.2850    0.5820   -3.7450 h1        1 984      0.031700
     51 H312        4.9580   -0.2200   -4.7040 h1        1 984      0.031700
     52 H313        6.1310   -1.2350   -3.7460 h1        1 984      0.031700
     53 H37        -0.8970    1.4600    3.9350 ha        1 984      0.151000
     54 H40         2.9230   -0.7700    6.2590 ha        1 984      0.151000
     55 H41         2.7280   -0.9070    3.7850 ha        1 984      0.158000
     56 H47        -2.2030    2.1540    1.1540 ha        1 984      0.160000
     57 H48        -4.6120    2.1020    1.9970 h4        1 984      0.029100
     58 H54        -3.4480   -2.7320    3.8510 hn        1 984      0.426800
     59 H55        -6.1490   -1.5360    3.8430 h1        1 984      0.115700
     60 H561       -4.9050   -3.9750    5.4610 hc        1 984      0.078200
     61 H562       -6.6610   -3.4680    5.4170 hc        1 984      0.078200
     62 H571       -5.9950   -1.1490    6.3550 hc        1 984      0.078200
     63 H572       -4.2440   -1.6750    6.3810 hc        1 984      0.078200
@<TRIPOS>BOND
     1    1    2 1   
     2    1    5 1   
     3    1    6 1   
     4    2    3 2   
     5    2    9 1   
     6    3    4 1   
     7    4    5 2   
     8    4   16 1   
     9    5   17 1   
    10    6    7 1   
    11    6   34 1   
    12    6   35 1   
    13    7    8 1   
    14    7   36 1   
    15    7   37 1   
    16    8   38 1   
    17    8   39 1   
    18    8   40 1   
    19    9   10 1   
    20    9   14 1   
    21    9   41 1   
    22   10   11 1   
    23   10   42 1   
    24   10   43 1   
    25   11   12 1   
    26   11   44 1   
    27   11   45 1   
    28   12   13 1   
    29   12   15 1   
    30   13   14 1   
    31   13   46 1   
    32   13   47 1   
    33   14   48 1   
    34   14   49 1   
    35   15   50 1   
    36   15   51 1   
    37   15   52 1   
    38   16   18 ar  
    39   16   22 ar  
    40   17   25 ar  
    41   17   29 ar  
    42   18   19 ar  
    43   18   53 1   
    44   19   20 ar  
    45   19   23 1   
    46   20   21 ar  
    47   20   24 1   
    48   21   22 ar  
    49   21   54 1   
    50   22   55 1   
    51   25   26 ar  
    52   25   56 1   
    53   26   27 ar  
    54   26   57 1   
    55   27   28 ar  
    56   28   29 ar  
    57   28   30 1   
    58   30   31 1   
    59   30   58 1   
    60   31   32 1   
    61   31   33 1   
    62   31   59 1   
    63   32   33 1   
    64   32   60 1   
    65   32   61 1   
    66   33   62 1   
    67   33   63 1   
@<TRIPOS>SUBSTRUCTURE
     1 984         1 TEMP              0 ****  ****    0 ROOT
