@<TRIPOS>MOLECULE
985
   46    48     1     0     0
SMALL
bcc


@<TRIPOS>ATOM
      1 C1         -0.0510   -0.1600    0.1260 cp        1 985      0.402500
      2 N2          1.2970   -0.0550    0.2030 nb        1 985     -0.671000
      3 C3          1.8510   -0.0370    1.4520 ca        1 985      0.467900
      4 C4          1.0320   -0.1390    2.6220 ca        1 985      0.275900
      5 N5         -0.3070   -0.2530    2.5420 nb        1 985     -0.637000
      6 C6         -0.8460   -0.2640    1.3130 ca        1 985      0.271900
      7 N1          3.2740    0.1050    1.6480 nh        1 985     -0.717300
      8 C2          3.9230   -1.2000    1.6780 c3        1 985      0.135800
      9 C11         5.4250   -1.1530    2.0220 c3        1 985      0.179800
     10 N3          6.3350   -0.6800    1.0040 n3        1 985     -0.752600
     11 C5          6.4260    0.7620    0.8640 c3        1 985      0.177800
     12 C14         5.2220    1.6060    1.2690 c3        1 985     -0.105400
     13 C7          3.8900    1.0740    0.7460 c3        1 985      0.174800
     14 C8          6.2430   -1.3890   -0.2510 c3        1 985      0.161100
     15 C10        -2.0470   -0.2360   -3.6450 ca        1 985     -0.093000
     16 C16        -0.8160   -0.8690   -3.4930 ca        1 985     -0.148000
     17 C12        -0.1450   -0.8430   -2.2720 ca        1 985     -0.113000
     18 C13        -0.7200   -0.1800   -1.1820 cp        1 985     -0.185500
     19 C17        -1.9540    0.4640   -1.3340 ca        1 985     -0.128000
     20 C15        -2.6320    0.4420   -2.5620 ca        1 985     -0.005800
     21 C18        -3.8990    1.1450   -2.6750 ce        1 985     -0.193200
     22 C19        -4.9030    0.9080   -3.5250 cf        1 985     -0.137200
     23 C9         -5.0390   -0.1650   -4.5810 c         1 985      0.894800
     24 O1         -4.4060   -0.0260   -5.6690 o         1 985     -0.830300
     25 O2         -5.8240   -1.1230   -4.3350 o         1 985     -0.830300
     26 H4          1.4710   -0.1260    3.6320 h4        1 985      0.032100
     27 H6         -1.9440   -0.3660    1.2450 h4        1 985      0.044100
     28 H2          3.7890   -1.7560    0.7040 h1        1 985      0.043200
     29 H2A         3.4120   -1.7980    2.4860 h1        1 985      0.043200
     30 H11         5.5810   -0.5310    2.9470 h1        1 985      0.053700
     31 H11A        5.7260   -2.2140    2.2600 h1        1 985      0.053700
     32 H5          7.2970    1.0800    1.5090 h1        1 985      0.038700
     33 H5A         6.6910    1.0150   -0.2030 h1        1 985      0.038700
     34 H14         5.1900    1.7120    2.3850 hc        1 985      0.050200
     35 H14A        5.3690    2.6340    0.8430 hc        1 985      0.050200
     36 H7          3.1820    1.9470    0.6520 h1        1 985      0.049200
     37 H7A         4.0420    0.6510   -0.2890 h1        1 985      0.049200
     38 H8          7.1670   -1.1720   -0.8500 h1        1 985      0.031033
     39 H8A         5.3470   -1.1050   -0.8690 h1        1 985      0.031033
     40 H8B         6.1980   -2.4920   -0.0490 h1        1 985      0.031033
     41 H12         0.8280   -1.3440   -2.1670 ha        1 985      0.125000
     42 H17        -2.4000    1.0020   -0.4830 ha        1 985      0.120000
     43 H18        -4.0080    1.9620   -1.9370 ha        1 985      0.086000
     44 H19        -5.8030    1.5470   -3.4680 ha        1 985      0.100000
     45 H10        -2.5820   -0.2640   -4.6180 ha        1 985      0.209000
     46 H16        -0.3710   -1.3980   -4.3480 ha        1 985      0.125000
@<TRIPOS>BOND
     1    1    2 ar  
     2    1    6 ar  
     3    1   18 1   
     4    2    3 ar  
     5    3    4 ar  
     6    3    7 1   
     7    4    5 ar  
     8    4   26 1   
     9    5    6 ar  
    10    6   27 1   
    11    7    8 1   
    12    7   13 1   
    13    8    9 1   
    14    8   28 1   
    15    8   29 1   
    16    9   10 1   
    17    9   30 1   
    18    9   31 1   
    19   10   11 1   
    20   10   14 1   
    21   11   12 1   
    22   11   32 1   
    23   11   33 1   
    24   12   13 1   
    25   12   34 1   
    26   12   35 1   
    27   13   36 1   
    28   13   37 1   
    29   14   38 1   
    30   14   39 1   
    31   14   40 1   
    32   15   16 ar  
    33   15   20 ar  
    34   15   45 1   
    35   16   17 ar  
    36   16   46 1   
    37   17   18 ar  
    38   17   41 1   
    39   18   19 ar  
    40   19   20 ar  
    41   19   42 1   
    42   20   21 1   
    43   21   22 2   
    44   21   43 1   
    45   22   23 1   
    46   22   44 1   
    47   23   24 1   
    48   23   25 1   
@<TRIPOS>SUBSTRUCTURE
     1 985         1 TEMP              0 ****  ****    0 ROOT
