@<TRIPOS>MOLECULE
985
   46    48     1     0     0
SMALL
bcc


@<TRIPOS>ATOM
      1 C1         -0.0640    0.7840   -0.4430 cp        1 985      0.388500
      2 N2         -1.3290    0.3580   -0.2150 nb        1 985     -0.666000
      3 C3         -2.3030    1.3120   -0.1390 ca        1 985      0.460900
      4 C4         -1.9900    2.6990   -0.3070 ca        1 985      0.288900
      5 N5         -0.7320    3.1180   -0.5420 nb        1 985     -0.636000
      6 C6          0.2230    2.1770   -0.6080 ca        1 985      0.280900
      7 N1         -3.6820    0.9680    0.1250 nh        1 985     -0.714300
      8 C2         -4.3320    0.4600   -1.0770 c3        1 985      0.133800
      9 C11        -5.8390    0.1830   -0.9080 c3        1 985      0.179800
     10 N3         -6.2290   -0.9870   -0.1550 n3        1 985     -0.752600
     11 C5         -6.1990   -0.8430    1.2890 c3        1 985      0.177800
     12 C14        -5.2330    0.1680    1.8980 c3        1 985     -0.104400
     13 C7         -3.8290    0.1160    1.3030 c3        1 985      0.171800
     14 C8         -5.6570   -2.2220   -0.6370 c3        1 985      0.161100
     15 C10         3.1630   -1.9880   -0.7250 ca        1 985     -0.125000
     16 C16         1.9160   -2.3160   -1.2500 ca        1 985     -0.140000
     17 C12         0.8490   -1.4250   -1.1580 ca        1 985     -0.122000
     18 C13         1.0380   -0.1850   -0.5330 cp        1 985     -0.165500
     19 C17         2.2880    0.1420    0.0020 ca        1 985     -0.124000
     20 C15         3.3700   -0.7520   -0.0900 ca        1 985      0.000200
     21 C18         4.6510   -0.3720    0.4730 ce        1 985     -0.195200
     22 C19         5.8110   -1.0170    0.2940 cf        1 985     -0.149200
     23 C9          7.1120   -0.5520    0.9190 c         1 985      0.889800
     24 O1          8.1260   -1.2820    0.7280 o         1 985     -0.829300
     25 O2          7.1210    0.5190    1.5880 o         1 985     -0.829300
     26 H4         -2.7700    3.4750   -0.2470 h4        1 985      0.036100
     27 H6          1.2540    2.5200   -0.8020 h4        1 985      0.047100
     28 H2         -4.2230    1.2570   -1.8670 h1        1 985      0.044200
     29 H2A        -3.8310   -0.4750   -1.4640 h1        1 985      0.044200
     30 H11        -6.3380    1.0800   -0.4450 h1        1 985      0.054200
     31 H11A       -6.2530    0.0530   -1.9500 h1        1 985      0.054200
     32 H5         -7.2450   -0.5380    1.5910 h1        1 985      0.039200
     33 H5A        -5.9980   -1.8490    1.7560 h1        1 985      0.039200
     34 H14        -5.6590    1.2010    1.8080 hc        1 985      0.051200
     35 H14A       -5.1480   -0.0610    2.9940 hc        1 985      0.051200
     36 H7         -3.5580   -0.9580    1.0850 h1        1 985      0.048200
     37 H7A        -3.1060    0.4930    2.0830 h1        1 985      0.048200
     38 H8         -4.5760   -2.3610   -0.3610 h1        1 985      0.031033
     39 H8A        -6.2440   -3.0760   -0.2060 h1        1 985      0.031033
     40 H8B        -5.7440   -2.2560   -1.7550 h1        1 985      0.031033
     41 H12        -0.1320   -1.6950   -1.5720 ha        1 985      0.129000
     42 H17         2.4370    1.1060    0.5130 ha        1 985      0.136000
     43 H18         4.6520    0.5420    1.0970 ha        1 985      0.147000
     44 H19         5.9010   -1.9260   -0.3200 ha        1 985      0.099000
     45 H10         3.9960   -2.7030   -0.8020 ha        1 985      0.141000
     46 H16         1.7700   -3.2890   -1.7420 ha        1 985      0.120000
@<TRIPOS>BOND
     1    1    2 ar  
     2    1    6 ar  
     3    1   18 1   
     4    2    3 ar  
     5    3    4 ar  
     6    3    7 1   
     7    4    5 ar  
     8    4   26 1   
     9    5    6 ar  
    10    6   27 1   
    11    7    8 1   
    12    7   13 1   
    13    8    9 1   
    14    8   28 1   
    15    8   29 1   
    16    9   10 1   
    17    9   30 1   
    18    9   31 1   
    19   10   11 1   
    20   10   14 1   
    21   11   12 1   
    22   11   32 1   
    23   11   33 1   
    24   12   13 1   
    25   12   34 1   
    26   12   35 1   
    27   13   36 1   
    28   13   37 1   
    29   14   38 1   
    30   14   39 1   
    31   14   40 1   
    32   15   16 ar  
    33   15   20 ar  
    34   15   45 1   
    35   16   17 ar  
    36   16   46 1   
    37   17   18 ar  
    38   17   41 1   
    39   18   19 ar  
    40   19   20 ar  
    41   19   42 1   
    42   20   21 1   
    43   21   22 2   
    44   21   43 1   
    45   22   23 1   
    46   22   44 1   
    47   23   24 1   
    48   23   25 1   
@<TRIPOS>SUBSTRUCTURE
     1 985         1 TEMP              0 ****  ****    0 ROOT
