@<TRIPOS>MOLECULE
985
   46    40     1     0     0
SMALL
bcc


@<TRIPOS>ATOM
      1 C1         -1.6200   -0.4010    0.2360 c1        1 985     -0.017500
      2 N2         -0.2720   -0.3820    0.2520 n1        1 985     -0.160000
      3 C3          0.3870   -0.4250    1.4150 c1        1 985      0.046000
      4 C4         -0.3160   -0.4890    2.6090 c2        1 985     -0.160000
      5 N5         -1.6790   -0.5080    2.5960 n1        1 985     -0.099000
      6 C6         -2.3320   -0.4640    1.4300 c1        1 985     -0.138000
      7 N1          1.8140   -0.4630    1.4250 n2        1 985     -0.225000
      8 C2          2.3230    0.7120    2.1220 c3        1 985     -0.084000
      9 C11         3.6190    1.1600    1.5410 c3        1 985     -0.086000
     10 N3          4.2320    0.1130    0.7890 n3        1 985     -0.276000
     11 C5          4.6170   -0.9610    1.6330 c3        1 985     -0.061000
     12 C14         3.5830   -2.1210    1.5620 c3        1 985     -0.213000
     13 C7          2.2410   -1.6790    2.0750 c3        1 985     -0.038000
     14 C8          5.3760    0.6150    0.1250 c3        1 985     -0.110000
     15 C10        -3.7460   -0.2780   -3.3710 c1        1 985     -0.094000
     16 C16        -3.1930   -1.4750   -2.9280 c1        1 985     -0.130500
     17 C12        -2.4960   -1.5110   -1.7740 c1        1 985     -0.130500
     18 C13        -2.3310   -0.3600   -1.0330 c1        1 985     -0.017500
     19 C17        -2.8790    0.8190   -1.4740 c1        1 985     -0.138000
     20 C15        -3.5860    0.8510   -2.6470 c1        1 985      0.005000
     21 C18        -4.0270    2.1780   -3.2180 c2        1 985     -0.204000
     22 C19        -5.3170    2.5180   -3.1980 c1        1 985     -0.118000
     23 C9         -6.3070    1.6060   -2.6230 c1        1 985      0.345000
     24 O1         -7.1690    1.0980   -3.3570 o         1 985     -0.565000
     25 O2         -6.4080    1.5000   -1.3850 o         1 985     -0.565000
     26 H4          0.1290   -0.5190    3.3940 h4        1 985      0.161000
     27 H6         -3.3670   -0.4780    1.4120 ha        1 985      0.150500
     28 H2          1.6480    1.4650    2.0400 h1        1 985      0.092000
     29 H2A         2.4500    0.4980    3.0470 h1        1 985      0.092000
     30 H11         3.4560    1.9440    0.9370 h1        1 985      0.096500
     31 H11A        4.2450    1.4450    2.2990 h1        1 985      0.096500
     32 H5          5.5180   -1.3020    1.3450 h1        1 985      0.079500
     33 H5A         4.6710   -0.6680    2.4740 h1        1 985      0.079500
     34 H14         3.8910   -2.8380    2.0850 hc        1 985      0.104500
     35 H14A        3.4900   -2.4200    0.6300 hc        1 985      0.104500
     36 H7          1.5980   -2.3680    1.9040 h1        1 985      0.093500
     37 H7A         2.2960   -1.5330    3.0030 h1        1 985      0.093500
     38 H8          5.6950   -0.0480   -0.5220 h1        1 985      0.065667
     39 H8A         6.1100    0.8000    0.8080 h1        1 985      0.065667
     40 H8B         5.1420    1.4570   -0.3500 h1        1 985      0.065667
     41 H10        -4.2660   -0.2530   -4.2310 ha        1 985      0.209000
     42 H16        -3.3150   -2.3110   -3.4650 ha        1 985      0.125000
     43 H12        -2.1260   -2.3160   -1.4800 ha        1 985      0.125000
     44 H17        -2.7690    1.6200   -0.9640 ha        1 985      0.150500
     45 H18        -3.3990    2.7580   -3.5870 ha        1 985      0.086000
     46 H19        -5.6130    3.4150   -3.5800 ha        1 985      0.099000
@<TRIPOS>BOND
     1    1    6 1   
     2    2    3 1   
     3    3    4 1   
     4    4    5 1   
     5    4   26 1   
     6    6   27 1   
     7    7    8 1   
     8    7   13 1   
     9    8    9 1   
    10    8   28 1   
    11    8   29 1   
    12    9   10 1   
    13    9   30 1   
    14    9   31 1   
    15   10   11 1   
    16   10   14 1   
    17   11   12 1   
    18   11   32 1   
    19   11   33 1   
    20   12   13 1   
    21   12   34 1   
    22   12   35 1   
    23   13   36 1   
    24   13   37 1   
    25   14   38 1   
    26   14   39 1   
    27   14   40 1   
    28   15   20 1   
    29   15   41 1   
    30   16   17 1   
    31   16   42 1   
    32   17   43 1   
    33   18   19 1   
    34   19   44 1   
    35   20   21 1   
    36   21   22 1   
    37   21   45 1   
    38   22   46 1   
    39   23   24 1   
    40   23   25 1   
@<TRIPOS>SUBSTRUCTURE
     1 985         1 TEMP              0 ****  ****    0 ROOT
