@<TRIPOS>MOLECULE
985
   46    48     1     0     0
SMALL
bcc


@<TRIPOS>ATOM
      1 C1         -0.0500   -0.1660    0.1480 cp        1 985      0.400500
      2 N2          1.2990   -0.0770    0.2290 nb        1 985     -0.670000
      3 C3          1.8480   -0.0450    1.4790 ca        1 985      0.464900
      4 C4          1.0240   -0.1140    2.6470 ca        1 985      0.278900
      5 N5         -0.3170   -0.2120    2.5640 nb        1 985     -0.638000
      6 C6         -0.8510   -0.2380    1.3340 ca        1 985      0.273900
      7 N1          3.2740    0.0740    1.6770 nh        1 985     -0.716300
      8 C2          3.9170   -1.2320    1.6020 c3        1 985      0.134800
      9 C11         5.4240   -1.2140    1.9280 c3        1 985      0.179800
     10 N3          6.3220   -0.6710    0.9340 n3        1 985     -0.752600
     11 C5          6.4170    0.7760    0.8980 c3        1 985      0.177800
     12 C14         5.2210    1.5940    1.3760 c3        1 985     -0.105400
     13 C7          3.8810    1.1010    0.8350 c3        1 985      0.173800
     14 C8          6.2110   -1.2880   -0.3670 c3        1 985      0.161100
     15 C10        -2.0340   -0.2780   -3.6290 ca        1 985     -0.093000
     16 C16        -0.8130   -0.9260   -3.4610 ca        1 985     -0.148000
     17 C12        -0.1450   -0.8890   -2.2380 ca        1 985     -0.113000
     18 C13        -0.7140   -0.1990   -1.1620 cp        1 985     -0.185500
     19 C17        -1.9390    0.4610   -1.3290 ca        1 985     -0.128000
     20 C15        -2.6130    0.4260   -2.5600 ca        1 985     -0.005800
     21 C18        -3.8680    1.1450   -2.6890 ce        1 985     -0.193200
     22 C19        -4.8730    0.9080   -3.5390 cf        1 985     -0.137200
     23 C9         -5.0210   -0.1810   -4.5760 c         1 985      0.894800
     24 O1         -4.3830   -0.0710   -5.6640 o         1 985     -0.830300
     25 O2         -5.8200   -1.1230   -4.3170 o         1 985     -0.830300
     26 H4          1.4590   -0.0900    3.6600 h4        1 985      0.032100
     27 H6         -1.9490   -0.3270    1.2630 h4        1 985      0.045100
     28 H2          3.7680   -1.7160    0.5920 h1        1 985      0.043700
     29 H2A         3.4150   -1.8860    2.3710 h1        1 985      0.043700
     30 H11         5.7240   -2.2910    2.0850 h1        1 985      0.053700
     31 H11A        5.5950   -0.6610    2.8930 h1        1 985      0.053700
     32 H5          7.2960    1.0450    1.5550 h1        1 985      0.038700
     33 H5A         6.6720    1.1050   -0.1500 h1        1 985      0.038700
     34 H14         5.3660    2.6480    1.0200 hc        1 985      0.049700
     35 H14A        5.2040    1.6230    2.4970 hc        1 985      0.049700
     36 H7          3.1730    1.9790    0.8110 h1        1 985      0.048200
     37 H7A         4.0180    0.7510   -0.2290 h1        1 985      0.048200
     38 H8          6.1650   -2.4020   -0.2440 h1        1 985      0.031033
     39 H8A         5.3080   -0.9580   -0.9500 h1        1 985      0.031033
     40 H8B         7.1280   -1.0310   -0.9610 h1        1 985      0.031033
     41 H12         0.8200   -1.4020   -2.1210 ha        1 985      0.125000
     42 H17        -2.3800    1.0190   -0.4900 ha        1 985      0.120000
     43 H18        -3.9680    1.9780   -1.9660 ha        1 985      0.086000
     44 H19        -5.7640    1.5610   -3.4970 ha        1 985      0.100000
     45 H10        -2.5660   -0.3160   -4.6030 ha        1 985      0.209000
     46 H16        -0.3720   -1.4760   -4.3050 ha        1 985      0.125000
@<TRIPOS>BOND
     1    1    2 ar  
     2    1    6 ar  
     3    1   18 1   
     4    2    3 ar  
     5    3    4 ar  
     6    3    7 1   
     7    4    5 ar  
     8    4   26 1   
     9    5    6 ar  
    10    6   27 1   
    11    7    8 1   
    12    7   13 1   
    13    8    9 1   
    14    8   28 1   
    15    8   29 1   
    16    9   10 1   
    17    9   30 1   
    18    9   31 1   
    19   10   11 1   
    20   10   14 1   
    21   11   12 1   
    22   11   32 1   
    23   11   33 1   
    24   12   13 1   
    25   12   34 1   
    26   12   35 1   
    27   13   36 1   
    28   13   37 1   
    29   14   38 1   
    30   14   39 1   
    31   14   40 1   
    32   15   16 ar  
    33   15   20 ar  
    34   15   45 1   
    35   16   17 ar  
    36   16   46 1   
    37   17   18 ar  
    38   17   41 1   
    39   18   19 ar  
    40   19   20 ar  
    41   19   42 1   
    42   20   21 1   
    43   21   22 2   
    44   21   43 1   
    45   22   23 1   
    46   22   44 1   
    47   23   24 1   
    48   23   25 1   
@<TRIPOS>SUBSTRUCTURE
     1 985         1 TEMP              0 ****  ****    0 ROOT
