@<TRIPOS>MOLECULE
985
   46    48     1     0     0
SMALL
bcc


@<TRIPOS>ATOM
      1 C1         -0.0510   -0.1760    0.1410 cp        1 985      0.400500
      2 N2          1.2970   -0.0810    0.2270 nb        1 985     -0.670000
      3 C3          1.8420   -0.0570    1.4790 ca        1 985      0.463900
      4 C4          1.0150   -0.1410    2.6440 ca        1 985      0.278900
      5 N5         -0.3250   -0.2460    2.5560 nb        1 985     -0.638000
      6 C6         -0.8550   -0.2640    1.3240 ca        1 985      0.273900
      7 N1          3.2670    0.0700    1.6820 nh        1 985     -0.716300
      8 C2          3.9170   -1.2330    1.6070 c3        1 985      0.134800
      9 C11         5.4230   -1.2080    1.9390 c3        1 985      0.179800
     10 N3          6.3220   -0.6580    0.9500 n3        1 985     -0.752600
     11 C5          6.4100    0.7900    0.9170 c3        1 985      0.177800
     12 C14         5.2070    1.6000    1.3920 c3        1 985     -0.104400
     13 C7          3.8720    1.1020    0.8450 c3        1 985      0.172800
     14 C8          6.2190   -1.2730   -0.3530 c3        1 985      0.161100
     15 C10        -2.0240   -0.2670   -3.6420 ca        1 985     -0.093000
     16 C16        -0.7990   -0.9090   -3.4770 ca        1 985     -0.148000
     17 C12        -0.1350   -0.8790   -2.2520 ca        1 985     -0.113000
     18 C13        -0.7120   -0.2020   -1.1710 cp        1 985     -0.185500
     19 C17        -1.9400    0.4510   -1.3360 ca        1 985     -0.128000
     20 C15        -2.6100    0.4240   -2.5680 ca        1 985     -0.005800
     21 C18        -3.8700    1.1360   -2.6950 ce        1 985     -0.193200
     22 C19        -4.8710    0.9010   -3.5490 cf        1 985     -0.137200
     23 C9         -5.0090   -0.1800   -4.5960 c         1 985      0.894800
     24 O1         -4.3690   -0.0570   -5.6820 o         1 985     -0.830300
     25 O2         -5.8030   -1.1290   -4.3480 o         1 985     -0.830300
     26 H4          1.4480   -0.1230    3.6580 h4        1 985      0.032100
     27 H6         -1.9520   -0.3590    1.2500 h4        1 985      0.045100
     28 H2          3.7750   -1.7150    0.5960 h1        1 985      0.044200
     29 H2A         3.4150   -1.8910    2.3730 h1        1 985      0.044200
     30 H11         5.5870   -0.6560    2.9060 h1        1 985      0.053700
     31 H11A        5.7280   -2.2830    2.0950 h1        1 985      0.053700
     32 H5          6.6670    1.1210   -0.1300 h1        1 985      0.038700
     33 H5A         7.2850    1.0620    1.5780 h1        1 985      0.038700
     34 H14         5.1860    1.6270    2.5130 hc        1 985      0.049700
     35 H14A        5.3490    2.6560    1.0390 hc        1 985      0.049700
     36 H7          4.0150    0.7550   -0.2190 h1        1 985      0.048700
     37 H7A         3.1600    1.9770    0.8200 h1        1 985      0.048700
     38 H8          6.1770   -2.3870   -0.2330 h1        1 985      0.031033
     39 H8A         5.3170   -0.9460   -0.9400 h1        1 985      0.031033
     40 H8B         7.1370   -1.0100   -0.9430 h1        1 985      0.031033
     41 H12         0.8320   -1.3870   -2.1370 ha        1 985      0.125000
     42 H17        -2.3860    1.0000   -0.4930 ha        1 985      0.120000
     43 H18        -3.9770    1.9610   -1.9650 ha        1 985      0.086000
     44 H19        -5.7660    1.5470   -3.5030 ha        1 985      0.100000
     45 H10        -2.5530   -0.2990   -4.6180 ha        1 985      0.209000
     46 H16        -0.3520   -1.4480   -4.3250 ha        1 985      0.125000
@<TRIPOS>BOND
     1    1    2 ar  
     2    1    6 ar  
     3    1   18 1   
     4    2    3 ar  
     5    3    4 ar  
     6    3    7 1   
     7    4    5 ar  
     8    4   26 1   
     9    5    6 ar  
    10    6   27 1   
    11    7    8 1   
    12    7   13 1   
    13    8    9 1   
    14    8   28 1   
    15    8   29 1   
    16    9   10 1   
    17    9   30 1   
    18    9   31 1   
    19   10   11 1   
    20   10   14 1   
    21   11   12 1   
    22   11   32 1   
    23   11   33 1   
    24   12   13 1   
    25   12   34 1   
    26   12   35 1   
    27   13   36 1   
    28   13   37 1   
    29   14   38 1   
    30   14   39 1   
    31   14   40 1   
    32   15   16 ar  
    33   15   20 ar  
    34   15   45 1   
    35   16   17 ar  
    36   16   46 1   
    37   17   18 ar  
    38   17   41 1   
    39   18   19 ar  
    40   19   20 ar  
    41   19   42 1   
    42   20   21 1   
    43   21   22 2   
    44   21   43 1   
    45   22   23 1   
    46   22   44 1   
    47   23   24 1   
    48   23   25 1   
@<TRIPOS>SUBSTRUCTURE
     1 985         1 TEMP              0 ****  ****    0 ROOT
