@<TRIPOS>MOLECULE
987
   61    63     1     0     0
SMALL
bcc


@<TRIPOS>ATOM
      1 C01        -0.0190    1.3630    1.1790 c3        1 987     -0.113100
      2 C05         1.3040    0.9170    0.5540 c3        1 987      0.077700
      3 N07         1.2910   -0.4370    0.0620 n         1 987     -0.446800
      4 C08         2.3560   -0.8800   -0.8290 c3        1 987      0.077000
      5 C11         2.2210   -2.4070   -0.9900 c3        1 987     -0.100400
      6 C14         1.2150   -2.8470    0.0920 c3        1 987      0.045500
      7 N16         0.1660   -3.7640   -0.3450 n3        1 987     -0.991800
      8 S18         0.8230   -5.9710   -0.2960 s4        1 987      1.672300
      9 O19         1.1100   -6.0110   -1.6280 o         1 987     -0.444900
     10 O20         1.7840   -5.7780    0.6490 o         1 987     -0.444900
     11 C21        -0.5580   -6.5300    0.1510 ca        1 987     -0.625500
     12 C22        -0.8780   -6.6140    1.5500 ca        1 987     -0.045000
     13 C24        -2.0570   -7.1430    1.9860 ca        1 987     -0.108000
     14 C26        -3.0230   -7.6390    1.0600 ca        1 987      0.075000
     15 C27        -4.2460   -8.1990    1.4900 ca        1 987     -0.157000
     16 C29        -5.1530   -8.6780    0.5600 ca        1 987      0.098400
     17 CL1        -6.6120   -9.3510    1.0620 cl        1 987      0.003600
     18 C31        -4.8680   -8.6120   -0.8340 ca        1 987     -0.119000
     19 C33        -3.6870   -8.0700   -1.2690 ca        1 987     -0.067000
     20 C35        -2.7310   -7.5670   -0.3360 ca        1 987     -0.105000
     21 C36        -1.5140   -7.0160   -0.7580 ca        1 987      0.110000
     22 C38         0.6460   -1.5150    0.6610 c         1 987      0.685500
     23 O39        -0.2900   -1.4860    1.4690 o         1 987     -0.592500
     24 C40         2.4160    1.1550    1.6130 c         1 987      0.625100
     25 O41         2.7870    0.2470    2.3780 o         1 987     -0.584100
     26 N42         3.0650    2.3960    1.6680 n         1 987     -0.459800
     27 C43         2.5120    3.6270    1.1450 c3        1 987      0.072000
     28 C46         2.0360    4.5890    2.2380 c3        1 987     -0.106400
     29 C49         3.1140    4.8350    3.2760 c3        1 987     -0.102400
     30 C52         3.6030    3.4940    3.8300 c3        1 987      0.076500
     31 N54         4.6910    3.6790    4.8480 n4        1 987     -0.834600
     32 C57         4.0970    2.5960    2.6530 c3        1 987      0.070000
     33 H1          0.0500    2.4410    1.4600 hc        1 987      0.070700
     34 H2         -0.8530    1.2340    0.4470 hc        1 987      0.070700
     35 H3         -0.2570    0.7610    2.0910 hc        1 987      0.070700
     36 H4          1.5260    1.5590   -0.3540 h1        1 987      0.086700
     37 H5          2.2420   -0.3620   -1.8210 h1        1 987      0.070700
     38 H6          3.3630   -0.6180   -0.4010 h1        1 987      0.070700
     39 H7          1.8760   -2.6540   -2.0250 hc        1 987      0.085200
     40 H8          3.2090   -2.9030   -0.8270 hc        1 987      0.085200
     41 H9          1.7660   -3.3510    0.9450 h1        1 987      0.129700
     42 H10        -0.1170   -3.5490   -1.2900 hn        1 987      0.414300
     43 H11        -0.1300   -6.2490    2.2780 ha        1 987      0.166000
     44 H12        -2.2820   -7.2040    3.0650 ha        1 987      0.175000
     45 H13        -4.4630   -8.2520    2.5710 ha        1 987      0.178000
     46 H14        -5.6070   -9.0050   -1.5540 ha        1 987      0.183000
     47 H15        -3.4580   -8.0190   -2.3470 ha        1 987      0.162000
     48 H16        -1.2970   -6.9750   -1.8450 ha        1 987      0.167000
     49 H17         1.6530    3.4150    0.4520 h1        1 987      0.078700
     50 H18         3.3220    4.1330    0.5410 h1        1 987      0.078700
     51 H19         1.7630    5.5660    1.7570 hc        1 987      0.083200
     52 H20         1.1130    4.1870    2.7330 hc        1 987      0.083200
     53 H21         2.6980    5.4740    4.0990 hc        1 987      0.075200
     54 H22         3.9670    5.3910    2.8010 hc        1 987      0.075200
     55 H23         2.7530    2.9730    4.3670 hx        1 987      0.121700
     56 H24         4.3480    4.2630    5.6170 hn        1 987      0.463467
     57 H25         4.9800    2.7670    5.2160 hn        1 987      0.463467
     58 H27         4.9650    3.1120    2.1480 h1        1 987      0.088200
     59 H28         4.4420    1.5990    3.0520 h1        1 987      0.088200
     60 H162       -0.6360   -3.6580    0.2630 hn        1 987      0.414300
     61 H543        5.5010    4.1370    4.4190 hn        1 987      0.463467
@<TRIPOS>BOND
     1    1    2 1   
     2    1   33 1   
     3    1   34 1   
     4    1   35 1   
     5    2    3 1   
     6    2   24 1   
     7    2   36 1   
     8    3    4 1   
     9    3   22 1   
    10    4    5 1   
    11    4   37 1   
    12    4   38 1   
    13    5    6 1   
    14    5   39 1   
    15    5   40 1   
    16    6    7 1   
    17    6   22 1   
    18    6   41 1   
    19    7   42 1   
    20    7   60 1   
    21    8    9 1   
    22    8   10 1   
    23    8   11 1   
    24   11   12 ar  
    25   11   21 ar  
    26   12   13 ar  
    27   12   43 1   
    28   13   14 ar  
    29   13   44 1   
    30   14   15 ar  
    31   14   20 ar  
    32   15   16 ar  
    33   15   45 1   
    34   16   17 1   
    35   16   18 ar  
    36   18   19 ar  
    37   18   46 1   
    38   19   20 ar  
    39   19   47 1   
    40   20   21 ar  
    41   21   48 1   
    42   22   23 2   
    43   24   25 2   
    44   24   26 1   
    45   26   27 1   
    46   26   32 1   
    47   27   28 1   
    48   27   49 1   
    49   27   50 1   
    50   28   29 1   
    51   28   51 1   
    52   28   52 1   
    53   29   30 1   
    54   29   53 1   
    55   29   54 1   
    56   30   31 1   
    57   30   32 1   
    58   30   55 1   
    59   31   56 1   
    60   31   57 1   
    61   31   61 1   
    62   32   58 1   
    63   32   59 1   
@<TRIPOS>SUBSTRUCTURE
     1 987         1 TEMP              0 ****  ****    0 ROOT
