@<TRIPOS>MOLECULE
987
   61    63     1     0     0
SMALL
bcc


@<TRIPOS>ATOM
      1 C01        -0.0250    1.3540    1.2970 c3        1 987     -0.113100
      2 C05         1.2800    0.9340    0.6180 c3        1 987      0.077700
      3 N07         1.2550   -0.4040    0.0840 n         1 987     -0.446800
      4 C08         2.2950   -0.8150   -0.8520 c3        1 987      0.077000
      5 C11         2.1600   -2.3370   -1.0550 c3        1 987     -0.101400
      6 C14         1.1880   -2.8150    0.0410 c3        1 987      0.045500
      7 N16         0.1290   -3.7220   -0.3940 n8        1 987     -0.991800
      8 S18         0.7940   -5.9270   -0.4340 s4        1 987      1.672300
      9 O19         1.0430   -5.9230   -1.7740 o         1 987     -0.444900
     10 O20         1.7810   -5.7600    0.4890 o         1 987     -0.444900
     11 C21        -0.5730   -6.5040    0.0340 ca        1 987     -0.625500
     12 C22        -0.8520   -6.6350    1.4380 ca        1 987     -0.045000
     13 C24        -2.0170   -7.1820    1.8900 ca        1 987     -0.108000
     14 C26        -3.0070   -7.6520    0.9770 ca        1 987      0.075000
     15 C27        -4.2150   -8.2300    1.4230 ca        1 987     -0.157000
     16 C29        -5.1480   -8.6830    0.5040 ca        1 987      0.098400
     17 Cl1        -6.5890   -9.3770    1.0250 cl        1 987      0.003600
     18 C31        -4.9030   -8.5710   -0.8950 ca        1 987     -0.119000
     19 C33        -3.7360   -8.0100   -1.3460 ca        1 987     -0.067000
     20 C35        -2.7550   -7.5340   -0.4240 ca        1 987     -0.105000
     21 C36        -1.5530   -6.9650   -0.8620 ca        1 987      0.110000
     22 C38         0.6320   -1.5030    0.6680 c         1 987      0.685500
     23 O39        -0.2790   -1.5030    1.5040 o         1 987     -0.592500
     24 C40         2.4230    1.1430    1.6480 c         1 987      0.625100
     25 O41         2.8210    0.2140    2.3730 o         1 987     -0.584100
     26 N42         3.0690    2.3850    1.7220 n         1 987     -0.459800
     27 C43         2.4960    3.6300    1.2550 c3        1 987      0.072000
     28 C46         2.0510    4.5550    2.3920 c3        1 987     -0.106400
     29 C49         3.1610    4.7730    3.4020 c3        1 987     -0.102400
     30 C52         3.6710    3.4180    3.8990 c3        1 987      0.076500
     31 N54         4.7900    3.5760    4.8870 nz        1 987     -0.834600
     32 C57         4.1310    2.5590    2.6800 c3        1 987      0.070000
     33 H1         -0.2310    0.7230    2.1980 hc        1 987      0.070700
     34 H2         -0.8820    1.2430    0.5890 hc        1 987      0.070700
     35 H3          0.0490    2.4230    1.6090 hc        1 987      0.070700
     36 H4          1.4700    1.6050   -0.2770 h1        1 987      0.086700
     37 H5          3.3140   -0.5630   -0.4450 h1        1 987      0.070700
     38 H6          2.1500   -0.2670   -1.8230 h1        1 987      0.070700
     39 H7          1.7850   -2.5530   -2.0870 hc        1 987      0.085200
     40 H8          3.1540   -2.8340   -0.9380 hc        1 987      0.085200
     41 H9          1.7650   -3.3430    0.8610 h1        1 987      0.129700
     42 H10        -0.1830   -3.4780   -1.3220 hn        1 987      0.414300
     43 H11        -0.0850   -6.2910    2.1560 ha        1 987      0.166000
     44 H12        -2.2110   -7.2790    2.9730 ha        1 987      0.175000
     45 H13        -4.4020   -8.3190    2.5070 ha        1 987      0.178000
     46 H14        -5.6610   -8.9430   -1.6060 ha        1 987      0.183000
     47 H15        -3.5380   -7.9240   -2.4270 ha        1 987      0.162000
     48 H16        -1.3670   -6.8880   -1.9530 ha        1 987      0.167000
     49 H17         1.6160    3.4340    0.5830 h1        1 987      0.078700
     50 H18         3.2850    4.1570    0.6420 h1        1 987      0.078700
     51 H19         1.1460    4.1340    2.9030 hc        1 987      0.083200
     52 H20         1.7600    5.5450    1.9500 hc        1 987      0.083200
     53 H21         2.7680    5.3850    4.2570 hc        1 987      0.075200
     54 H22         3.9960    5.3470    2.9180 hc        1 987      0.075200
     55 H23         2.8400    2.8770    4.4460 hx        1 987      0.121700
     56 H24         4.4700    4.1350    5.6840 hn        1 987      0.463467
     57 H25         5.5850    4.0510    4.4470 hn        1 987      0.463467
     58 H27         4.9810    3.0940    2.1630 h1        1 987      0.088200
     59 H28         4.4920    1.5510    3.0360 h1        1 987      0.088200
     60 H162       -0.6550   -3.6380    0.2420 hn        1 987      0.414300
     61 H543        5.0940    2.6540    5.2180 hn        1 987      0.463467
@<TRIPOS>BOND
     1    1    2 1   
     2    1   33 1   
     3    1   34 1   
     4    1   35 1   
     5    2    3 1   
     6    2   24 1   
     7    2   36 1   
     8    3    4 1   
     9    3   22 1   
    10    4    5 1   
    11    4   37 1   
    12    4   38 1   
    13    5    6 1   
    14    5   39 1   
    15    5   40 1   
    16    6    7 1   
    17    6   22 1   
    18    6   41 1   
    19    7   42 1   
    20    7   60 1   
    21    8    9 1   
    22    8   10 1   
    23    8   11 1   
    24   11   12 ar  
    25   11   21 ar  
    26   12   13 ar  
    27   12   43 1   
    28   13   14 ar  
    29   13   44 1   
    30   14   15 ar  
    31   14   20 ar  
    32   15   16 ar  
    33   15   45 1   
    34   16   17 1   
    35   16   18 ar  
    36   18   19 ar  
    37   18   46 1   
    38   19   20 ar  
    39   19   47 1   
    40   20   21 ar  
    41   21   48 1   
    42   22   23 2   
    43   24   25 2   
    44   24   26 1   
    45   26   27 1   
    46   26   32 1   
    47   27   28 1   
    48   27   49 1   
    49   27   50 1   
    50   28   29 1   
    51   28   51 1   
    52   28   52 1   
    53   29   30 1   
    54   29   53 1   
    55   29   54 1   
    56   30   31 1   
    57   30   32 1   
    58   30   55 1   
    59   31   56 1   
    60   31   57 1   
    61   31   61 1   
    62   32   58 1   
    63   32   59 1   
@<TRIPOS>SUBSTRUCTURE
     1 987         1 TEMP              0 ****  ****    0 ROOT
