@<TRIPOS>MOLECULE
988
   41    44     1     0     0
SMALL
bcc


@<TRIPOS>ATOM
      1 C1         -0.2700   -0.4900    0.1240 ca        1 988     -0.079000
      2 C2          1.1350   -0.2650    0.0390 ca        1 988     -0.145300
      3 C3          1.8760   -0.1420    1.2550 ca        1 988      0.407600
      4 N4          1.2600   -0.2380    2.4890 nb        1 988     -0.661000
      5 C5         -0.0430   -0.4510    2.5190 ca        1 988      0.417200
      6 C6         -0.8650   -0.5860    1.3550 ca        1 988     -0.246300
      7 C13         1.7930   -0.1700   -1.2120 ca        1 988     -0.101000
      8 C15         3.1540    0.0310   -1.2740 ca        1 988     -0.073300
      9 C17         3.8990    0.1460   -0.0730 ca        1 988     -0.099000
     10 C19         3.2960    0.0720    1.1650 cp        1 988     -0.083300
     11 C22         4.1160    0.1950    2.3730 cp        1 988     -0.034000
     12 C24         5.2360   -0.6330    2.5240 ca        1 988     -0.062000
     13 C25         6.0320   -0.5110    3.6720 ca        1 988     -0.180200
     14 C26         5.7220    0.4250    4.6730 ca        1 988     -0.065000
     15 C27         4.6080    1.2420    4.5050 ca        1 988     -0.145000
     16 C28         3.8090    1.1340    3.3670 ca        1 988     -0.048000
     17 C35         3.8650    0.0970   -2.5830 c3        1 988      0.000200
     18 C37         4.5840    1.3880   -2.7830 ca        1 988     -0.042300
     19 C39         5.9500    1.5010   -2.4960 ca        1 988     -0.243300
     20 C40         6.5850    2.7360   -2.7160 ca        1 988      0.396700
     21 N41         5.9520    3.8260   -3.1920 nb        1 988     -0.662000
     22 C42         4.6390    3.7030   -3.4650 ca        1 988      0.396700
     23 C43         3.9140    2.5120   -3.2800 ca        1 988     -0.243300
     24 N50         7.2210   -1.3870    3.8310 no        1 988      0.313200
     25 O52         7.5040   -2.1540    2.9490 o         1 988     -0.212000
     26 O54         7.8760   -1.3060    4.8370 o         1 988     -0.212000
     27 H1         -0.8510   -0.5850   -0.8060 ha        1 988      0.141000
     28 H5         -0.5010   -0.5260    3.5230 h4        1 988      0.026100
     29 H6         -1.9430   -0.7620    1.4720 ha        1 988      0.148000
     30 H13         1.1940   -0.2650   -2.1310 ha        1 988      0.138000
     31 H17         4.9880    0.3090   -0.1480 ha        1 988      0.146000
     32 H24         5.4850   -1.3770    1.7480 ha        1 988      0.170000
     33 H26         6.3530    0.5080    5.5740 ha        1 988      0.169000
     34 H27         4.3560    1.9800    5.2820 ha        1 988      0.148000
     35 H28         2.9310    1.7880    3.2510 ha        1 988      0.155000
     36 H35         4.6010   -0.7540   -2.6330 hc        1 988      0.064200
     37 H35A        3.1320   -0.0490   -3.4230 hc        1 988      0.064200
     38 H39         6.5200    0.6460   -2.1100 ha        1 988      0.143500
     39 H40         7.6620    2.8620   -2.5020 h4        1 988      0.024100
     40 H42         4.1430    4.6100   -3.8540 h4        1 988      0.024100
     41 H43         2.8440    2.4710   -3.5210 ha        1 988      0.143500
@<TRIPOS>BOND
     1    1    2 ar  
     2    1    6 ar  
     3    1   27 1   
     4    2    3 ar  
     5    2    7 ar  
     6    3    4 ar  
     7    3   10 ar  
     8    4    5 ar  
     9    5    6 ar  
    10    5   28 1   
    11    6   29 1   
    12    7    8 ar  
    13    7   30 1   
    14    8    9 ar  
    15    8   17 1   
    16    9   10 ar  
    17    9   31 1   
    18   10   11 1   
    19   11   12 ar  
    20   11   16 ar  
    21   12   13 ar  
    22   12   32 1   
    23   13   14 ar  
    24   13   24 1   
    25   14   15 ar  
    26   14   33 1   
    27   15   16 ar  
    28   15   34 1   
    29   16   35 1   
    30   17   18 1   
    31   17   36 1   
    32   17   37 1   
    33   18   19 ar  
    34   18   23 ar  
    35   19   20 ar  
    36   19   38 1   
    37   20   21 ar  
    38   20   39 1   
    39   21   22 ar  
    40   22   23 ar  
    41   22   40 1   
    42   23   41 1   
    43   24   25 1   
    44   24   26 1   
@<TRIPOS>SUBSTRUCTURE
     1 988         1 TEMP              0 ****  ****    0 ROOT
