@<TRIPOS>MOLECULE
988
   41    44     1     0     0
SMALL
bcc


@<TRIPOS>ATOM
      1 C1         -0.2750   -0.4610    0.1110 ca        1 988     -0.079000
      2 C2          1.1330   -0.2480    0.0320 ca        1 988     -0.145300
      3 C3          1.8680   -0.1200    1.2510 ca        1 988      0.407600
      4 N4          1.2440   -0.2000    2.4820 nb        1 988     -0.661000
      5 C5         -0.0610   -0.4020    2.5060 ca        1 988      0.417200
      6 C6         -0.8780   -0.5410    1.3390 ca        1 988     -0.246300
      7 C13         1.7990   -0.1690   -1.2160 ca        1 988     -0.101000
      8 C15         3.1620    0.0200   -1.2720 ca        1 988     -0.073300
      9 C17         3.9010    0.1400   -0.0680 ca        1 988     -0.099000
     10 C19         3.2910    0.0810    1.1670 cp        1 988     -0.083300
     11 C22         4.1040    0.2080    2.3780 cp        1 988     -0.034000
     12 C24         5.2160   -0.6280    2.5430 ca        1 988     -0.062000
     13 C25         6.0070   -0.5030    3.6950 ca        1 988     -0.180200
     14 C26         5.7000    0.4450    4.6850 ca        1 988     -0.065000
     15 C27         4.5930    1.2700    4.5040 ca        1 988     -0.145000
     16 C28         3.8000    1.1580    3.3630 ca        1 988     -0.048000
     17 C35         3.8810    0.0690   -2.5780 c3        1 988      0.000200
     18 C37         4.6070    1.3530   -2.7860 ca        1 988     -0.042300
     19 C39         5.9720    1.4630   -2.4920 ca        1 988     -0.243300
     20 C40         6.6150    2.6920   -2.7210 ca        1 988      0.396700
     21 N41         5.9910    3.7800   -3.2110 nb        1 988     -0.662000
     22 C42         4.6780    3.6610   -3.4920 ca        1 988      0.396700
     23 C43         3.9460    2.4760   -3.2990 ca        1 988     -0.243300
     24 N50         7.1880   -1.3870    3.8680 no        1 988      0.313200
     25 O52         7.4690   -2.1640    2.9940 o         1 988     -0.212000
     26 O54         7.8380   -1.3020    4.8760 o         1 988     -0.212000
     27 H1         -0.8520   -0.5590   -0.8210 ha        1 988      0.141000
     28 H5         -0.5250   -0.4650    3.5090 h4        1 988      0.026100
     29 H6         -1.9570   -0.7070    1.4510 ha        1 988      0.148000
     30 H13         1.2030   -0.2680   -2.1370 ha        1 988      0.138000
     31 H17         4.9910    0.2930   -0.1380 ha        1 988      0.146000
     32 H24         5.4640   -1.3810    1.7750 ha        1 988      0.170000
     33 H26         6.3260    0.5300    5.5890 ha        1 988      0.169000
     34 H27         4.3430    2.0170    5.2730 ha        1 988      0.148000
     35 H28         2.9270    1.8190    3.2360 ha        1 988      0.155000
     36 H35         3.1510   -0.0820   -3.4210 hc        1 988      0.064200
     37 H35A        4.6110   -0.7870   -2.6150 hc        1 988      0.064200
     38 H39         6.5350    0.6080   -2.0940 ha        1 988      0.143500
     39 H40         7.6910    2.8140   -2.5010 h4        1 988      0.024100
     40 H42         4.1890    4.5660   -3.8930 h4        1 988      0.024100
     41 H43         2.8770    2.4380   -3.5470 ha        1 988      0.143500
@<TRIPOS>BOND
     1    1    2 ar  
     2    1    6 ar  
     3    1   27 1   
     4    2    3 ar  
     5    2    7 ar  
     6    3    4 ar  
     7    3   10 ar  
     8    4    5 ar  
     9    5    6 ar  
    10    5   28 1   
    11    6   29 1   
    12    7    8 ar  
    13    7   30 1   
    14    8    9 ar  
    15    8   17 1   
    16    9   10 ar  
    17    9   31 1   
    18   10   11 1   
    19   11   12 ar  
    20   11   16 ar  
    21   12   13 ar  
    22   12   32 1   
    23   13   14 ar  
    24   13   24 1   
    25   14   15 ar  
    26   14   33 1   
    27   15   16 ar  
    28   15   34 1   
    29   16   35 1   
    30   17   18 1   
    31   17   36 1   
    32   17   37 1   
    33   18   19 ar  
    34   18   23 ar  
    35   19   20 ar  
    36   19   38 1   
    37   20   21 ar  
    38   20   39 1   
    39   21   22 ar  
    40   22   23 ar  
    41   22   40 1   
    42   23   41 1   
    43   24   25 1   
    44   24   26 1   
@<TRIPOS>SUBSTRUCTURE
     1 988         1 TEMP              0 ****  ****    0 ROOT
