@<TRIPOS>MOLECULE
988
   41    34     1     0     0
SMALL
bcc


@<TRIPOS>ATOM
      1 C1         -3.5600   -0.4170   -0.1750 c1        1 988     -0.117500
      2 C2         -2.1730   -0.4140   -0.2040 c1        1 988     -0.080000
      3 C3         -1.4620   -0.3440    0.9700 c1        1 988      0.014000
      4 N4         -2.1300   -0.2780    2.1810 n1        1 988     -0.135500
      5 C5         -3.4950   -0.2810    2.2110 c1        1 988     -0.058500
      6 C6         -4.2180   -0.3520    1.0230 c1        1 988     -0.117500
      7 C13        -1.4940   -0.4390   -1.4380 c2        1 988     -0.101000
      8 C15        -0.1060   -0.3930   -1.4680 c1        1 988     -0.066000
      9 C17         0.6150   -0.3230   -0.2790 c1        1 988     -0.099000
     10 C19        -0.0540   -0.2980    0.9380 c1        1 988     -0.018000
     11 C22         0.6810   -0.2790    2.1140 c1        1 988     -0.034000
     12 C24         1.0820   -1.4690    2.7000 c1        1 988     -0.062000
     13 C25         1.8130   -1.4500    3.8770 c1        1 988     -0.135000
     14 C26         2.1440   -0.2400    4.4680 c1        1 988     -0.117500
     15 C27         1.7420    0.9500    3.8820 c1        1 988     -0.117500
     16 C28         1.0110    0.9300    2.7050 c1        1 988     -0.048000
     17 C35         0.6540   -0.6230   -2.7570 c3        1 988     -0.093000
     18 C37         0.6750    0.6570   -3.5650 c2        1 988     -0.035000
     19 C39         1.7490    1.4950   -3.4870 c2        1 988     -0.181000
     20 C40         1.8050    2.6260   -4.2870 c1        1 988     -0.068000
     21 N41         0.7880    2.9000   -5.1510 n1        1 988     -0.135500
     22 C42        -0.2840    2.0640   -5.2310 c1        1 988     -0.058500
     23 C43        -0.3430    0.9330   -4.4320 c1        1 988     -0.175000
     24 N50         2.2610   -2.6660    4.4540 no        1 988      0.568000
     25 O52         2.9800   -2.6480    5.6150 o         1 988     -0.362000
     26 O54         2.0260   -3.7290    3.8980 o         1 988     -0.362000
     27 H1         -4.0660   -0.4670   -1.0080 ha        1 988      0.151500
     28 H5         -3.9650   -0.2350    3.0650 ha        1 988      0.161500
     29 H6         -5.1940   -0.3540    1.0450 ha        1 988      0.151500
     30 H13        -1.9980   -0.4880   -2.2720 ha        1 988      0.138000
     31 H17         1.5900   -0.2910   -0.3010 ha        1 988      0.146000
     32 H24         0.8490   -2.3210    2.2840 ha        1 988      0.170000
     33 H26         2.6590   -0.2270    5.2970 ha        1 988      0.151500
     34 H27         1.9750    1.8020    4.2980 ha        1 988      0.151500
     35 H28         0.7290    1.7680    2.2920 ha        1 988      0.155000
     36 H35         1.5710   -0.8930   -2.5520 hc        1 988      0.103500
     37 H35A        0.2140   -1.3270   -3.2740 hc        1 988      0.103500
     38 H39         2.4770    1.2990   -2.8670 ha        1 988      0.144000
     39 H40         2.5730    3.2260   -4.2310 ha        1 988      0.162000
     40 H42        -1.0120    2.2620   -5.8500 ha        1 988      0.161500
     41 H43        -1.1110    0.3340   -4.4890 ha        1 988      0.143000
@<TRIPOS>BOND
     1    1    6 1   
     2    1   27 1   
     3    2    3 1   
     4    2    7 1   
     5    3   10 1   
     6    4    5 1   
     7    5   28 1   
     8    6   29 1   
     9    7    8 1   
    10    7   30 1   
    11    8   17 1   
    12    9   10 1   
    13    9   31 1   
    14   11   16 1   
    15   12   13 1   
    16   12   32 1   
    17   13   24 1   
    18   14   15 1   
    19   14   33 1   
    20   15   34 1   
    21   16   35 1   
    22   17   18 1   
    23   17   36 1   
    24   17   37 1   
    25   18   19 1   
    26   18   23 1   
    27   19   20 1   
    28   19   38 1   
    29   20   39 1   
    30   21   22 1   
    31   22   40 1   
    32   23   41 1   
    33   24   25 1   
    34   24   26 1   
@<TRIPOS>SUBSTRUCTURE
     1 988         1 TEMP              0 ****  ****    0 ROOT
