@<TRIPOS>MOLECULE
988
   41    44     1     0     0
SMALL
bcc


@<TRIPOS>ATOM
      1 C1         -1.3590    4.0850    0.9360 ca        1 988     -0.079000
      2 C2         -1.1580    2.6800    0.7970 ca        1 988     -0.145300
      3 C3          0.0560    2.2270    0.1950 ca        1 988      0.407600
      4 N4          1.0210    3.1150   -0.2440 nb        1 988     -0.661000
      5 C5          0.7930    4.4070   -0.0900 ca        1 988      0.417200
      6 C6         -0.3910    4.9530    0.4990 ca        1 988     -0.246300
      7 C13        -2.1260    1.7490    1.2450 ca        1 988     -0.101000
      8 C15        -1.9070    0.3950    1.1170 ca        1 988     -0.073300
      9 C17        -0.7020   -0.0650    0.5290 ca        1 988     -0.099000
     10 C19         0.2610    0.8080    0.0690 cp        1 988     -0.083300
     11 C22         1.4890    0.2760   -0.5270 cp        1 988     -0.034000
     12 C24         2.2410   -0.6660    0.1860 ca        1 988     -0.062000
     13 C25         3.4110   -1.1890   -0.3850 ca        1 988     -0.180200
     14 C26         3.8400   -0.7810   -1.6580 ca        1 988     -0.065000
     15 C27         3.0790    0.1530   -2.3560 ca        1 988     -0.145000
     16 C28         1.9130    0.6800   -1.8010 ca        1 988     -0.048000
     17 C35        -2.9020   -0.5980    1.6170 c3        1 988      0.000200
     18 C37        -3.4010   -1.5020    0.5420 ca        1 988     -0.042300
     19 C39        -2.8390   -2.7700    0.3500 ca        1 988     -0.243300
     20 C40        -3.3570   -3.5910   -0.6670 ca        1 988      0.396700
     21 N41        -4.3710   -3.2270   -1.4750 nb        1 988     -0.662000
     22 C42        -4.9040   -2.0050   -1.2780 ca        1 988      0.396700
     23 C43        -4.4590   -1.1110   -0.2890 ca        1 988     -0.243300
     24 N50         4.2070   -2.1900    0.3710 no        1 988      0.313200
     25 O52         3.8070   -2.5660    1.4410 o         1 988     -0.212000
     26 O54         5.2290   -2.6030   -0.1070 o         1 988     -0.212000
     27 H1         -2.2910    4.4470    1.3970 ha        1 988      0.141000
     28 H5          1.5880    5.0870   -0.4490 h4        1 988      0.026100
     29 H6         -0.4990    6.0410    0.5880 ha        1 988      0.148000
     30 H13        -3.0530    2.1300    1.7010 ha        1 988      0.138000
     31 H17        -0.5490   -1.1540    0.4350 ha        1 988      0.146000
     32 H24         1.9170   -0.9890    1.1910 ha        1 988      0.170000
     33 H26         4.7640   -1.1950   -2.0950 ha        1 988      0.169000
     34 H27         3.4050    0.4800   -3.3550 ha        1 988      0.148000
     35 H28         1.3230    1.4180   -2.3670 ha        1 988      0.155000
     36 H35        -2.4170   -1.2100    2.4280 hc        1 988      0.064200
     37 H35A       -3.7740   -0.0620    2.0820 hc        1 988      0.064200
     38 H39        -2.0120   -3.1230    0.9800 ha        1 988      0.143500
     39 H40        -2.9370   -4.5970   -0.8470 h4        1 988      0.024100
     40 H42        -5.7360   -1.7300   -1.9530 h4        1 988      0.024100
     41 H43        -4.9330   -0.1280   -0.1750 ha        1 988      0.143500
@<TRIPOS>BOND
     1    1    2 ar  
     2    1    6 ar  
     3    1   27 1   
     4    2    3 ar  
     5    2    7 ar  
     6    3    4 ar  
     7    3   10 ar  
     8    4    5 ar  
     9    5    6 ar  
    10    5   28 1   
    11    6   29 1   
    12    7    8 ar  
    13    7   30 1   
    14    8    9 ar  
    15    8   17 1   
    16    9   10 ar  
    17    9   31 1   
    18   10   11 1   
    19   11   12 ar  
    20   11   16 ar  
    21   12   13 ar  
    22   12   32 1   
    23   13   14 ar  
    24   13   24 1   
    25   14   15 ar  
    26   14   33 1   
    27   15   16 ar  
    28   15   34 1   
    29   16   35 1   
    30   17   18 1   
    31   17   36 1   
    32   17   37 1   
    33   18   19 ar  
    34   18   23 ar  
    35   19   20 ar  
    36   19   38 1   
    37   20   21 ar  
    38   20   39 1   
    39   21   22 ar  
    40   22   23 ar  
    41   22   40 1   
    42   23   41 1   
    43   24   25 1   
    44   24   26 1   
@<TRIPOS>SUBSTRUCTURE
     1 988         1 TEMP              0 ****  ****    0 ROOT
