@<TRIPOS>MOLECULE
988
   41    44     1     0     0
SMALL
bcc


@<TRIPOS>ATOM
      1 C1         -0.2720   -0.4760    0.1160 ca        1 988     -0.079000
      2 C2          1.1340   -0.2560    0.0340 ca        1 988     -0.145300
      3 C3          1.8720   -0.1330    1.2520 ca        1 988      0.407600
      4 N4          1.2530   -0.2250    2.4850 nb        1 988     -0.661000
      5 C5         -0.0510   -0.4330    2.5110 ca        1 988      0.417200
      6 C6         -0.8710   -0.5680    1.3460 ca        1 988     -0.246300
      7 C13         1.7960   -0.1660   -1.2150 ca        1 988     -0.101000
      8 C15         3.1580    0.0300   -1.2740 ca        1 988     -0.073300
      9 C17         3.9000    0.1450   -0.0720 ca        1 988     -0.099000
     10 C19         3.2940    0.0750    1.1650 cp        1 988     -0.083300
     11 C22         4.1110    0.1960    2.3750 cp        1 988     -0.034000
     12 C24         5.2270   -0.6350    2.5300 ca        1 988     -0.062000
     13 C25         6.0210   -0.5150    3.6800 ca        1 988     -0.180200
     14 C26         5.7120    0.4240    4.6780 ca        1 988     -0.065000
     15 C27         4.6020    1.2450    4.5060 ca        1 988     -0.145000
     16 C28         3.8050    1.1380    3.3670 ca        1 988     -0.048000
     17 C35         3.8720    0.0910   -2.5820 c3        1 988      0.000200
     18 C37         4.5940    1.3790   -2.7820 ca        1 988     -0.042300
     19 C39         5.9600    1.4900   -2.4920 ca        1 988     -0.243300
     20 C40         6.5990    2.7240   -2.7140 ca        1 988      0.396700
     21 N41         5.9700    3.8140   -3.1930 nb        1 988     -0.662000
     22 C42         4.6570    3.6930   -3.4700 ca        1 988      0.396700
     23 C43         3.9280    2.5050   -3.2840 ca        1 988     -0.243300
     24 N50         7.2060   -1.3950    3.8430 no        1 988      0.313200
     25 O52         7.4880   -2.1640    2.9630 o         1 988     -0.212000
     26 O54         7.8590   -1.3150    4.8500 o         1 988     -0.212000
     27 H1         -0.8520   -0.5700   -0.8150 ha        1 988      0.141000
     28 H5         -0.5120   -0.5050    3.5140 h4        1 988      0.026100
     29 H6         -1.9490   -0.7390    1.4600 ha        1 988      0.148000
     30 H13         1.1980   -0.2600   -2.1350 ha        1 988      0.138000
     31 H17         4.9890    0.3030   -0.1440 ha        1 988      0.146000
     32 H24         5.4750   -1.3820    1.7560 ha        1 988      0.170000
     33 H26         6.3410    0.5060    5.5810 ha        1 988      0.169000
     34 H27         4.3510    1.9860    5.2820 ha        1 988      0.148000
     35 H28         2.9290    1.7960    3.2470 ha        1 988      0.155000
     36 H35         4.6050   -0.7620   -2.6280 hc        1 988      0.064200
     37 H35A        3.1400   -0.0550   -3.4240 hc        1 988      0.064200
     38 H39         6.5270    0.6350   -2.1020 ha        1 988      0.143500
     39 H40         7.6750    2.8470   -2.4960 h4        1 988      0.024100
     40 H42         4.1640    4.6000   -3.8630 h4        1 988      0.024100
     41 H43         2.8590    2.4650   -3.5290 ha        1 988      0.143500
@<TRIPOS>BOND
     1    1    2 ar  
     2    1    6 ar  
     3    1   27 1   
     4    2    3 ar  
     5    2    7 ar  
     6    3    4 ar  
     7    3   10 ar  
     8    4    5 ar  
     9    5    6 ar  
    10    5   28 1   
    11    6   29 1   
    12    7    8 ar  
    13    7   30 1   
    14    8    9 ar  
    15    8   17 1   
    16    9   10 ar  
    17    9   31 1   
    18   10   11 1   
    19   11   12 ar  
    20   11   16 ar  
    21   12   13 ar  
    22   12   32 1   
    23   13   14 ar  
    24   13   24 1   
    25   14   15 ar  
    26   14   33 1   
    27   15   16 ar  
    28   15   34 1   
    29   16   35 1   
    30   17   18 1   
    31   17   36 1   
    32   17   37 1   
    33   18   19 ar  
    34   18   23 ar  
    35   19   20 ar  
    36   19   38 1   
    37   20   21 ar  
    38   20   39 1   
    39   21   22 ar  
    40   22   23 ar  
    41   22   40 1   
    42   23   41 1   
    43   24   25 1   
    44   24   26 1   
@<TRIPOS>SUBSTRUCTURE
     1 988         1 TEMP              0 ****  ****    0 ROOT
