@<TRIPOS>MOLECULE
989
   68    64     1     0     0
SMALL
bcc


@<TRIPOS>ATOM
      1 O22        -6.5100    0.9350   -1.8230 o         1 989     -0.535500
      2 C21        -6.0720   -0.2110   -2.1360 c2        1 989      0.363000
      3 O23        -6.3650   -1.2120   -1.4250 o         1 989     -0.535500
      4 C18        -5.2860   -0.4020   -3.4400 c2        1 989      0.253000
      5 O20        -5.8860   -0.4950   -4.5080 o         1 989     -0.400000
      6 N17        -3.8300   -0.5640   -3.4020 n         1 989     -0.273000
      7 C19        -3.1180   -0.8280   -4.5960 c2        1 989      0.110000
      8 C28        -2.1150    0.0410   -5.0140 c1        1 989     -0.148000
      9 C27        -1.4430   -0.1950   -6.2140 c1        1 989     -0.161250
     10 C26        -1.7770   -1.3040   -6.9960 c1        1 989     -0.161250
     11 C25        -2.7820   -2.1760   -6.5770 c1        1 989     -0.116000
     12 C24        -3.4520   -1.9410   -5.3800 c2        1 989     -0.105000
     13 C33        -4.5080   -2.9290   -4.8920 c2        1 989      0.370000
     14 O34        -5.7330   -2.6430   -4.9970 o         1 989     -0.585500
     15 O35        -4.1600   -4.0920   -4.5210 o         1 989     -0.585500
     16 C10        -3.1150   -0.4540   -2.1330 c2        1 989      0.109000
     17 C9         -2.6710   -1.6570   -1.6160 c2        1 989     -0.088000
     18 C8         -1.9790   -1.6840   -0.4030 c1        1 989     -0.080000
     19 C7         -1.7360   -0.5000    0.2860 c1        1 989     -0.119000
     20 C3         -2.1850    0.7170   -0.2360 c1        1 989     -0.017000
     21 C4         -2.8690    0.7440   -1.4360 c1        1 989     -0.025000
     22 C5         -3.3540    1.9580   -1.9370 c1        1 989     -0.059000
     23 C6         -3.1470    3.1360   -1.2260 c1        1 989     -0.161250
     24 C1         -2.4600    3.1080   -0.0220 c1        1 989     -0.161250
     25 C2         -1.9780    1.9020    0.4770 c1        1 989     -0.144000
     26 C36        -1.0310   -0.7710    1.6380 c3        1 989     -0.109000
     27 C37         0.4280   -0.3410    1.5460 c3        1 989      0.022000
     28 N41         1.1500   -1.2890    0.8010 n         1 989     -0.347000
     29 C61         2.5130   -1.0410    0.4650 c2        1 989      0.313000
     30 O66         3.0920   -0.0740    0.9360 o         1 989     -0.470000
     31 C62         3.2360   -1.9550   -0.5250 c3        1 989     -0.238000
     32 C40         1.0160   -0.2420    2.9490 c2        1 989      0.291000
     33 O43         0.5560   -0.9160    3.8490 o         1 989     -0.412000
     34 N44         2.0930    0.7080    3.2250 n         1 989     -0.377000
     35 C45         2.9640    0.4950    4.3520 c3        1 989     -0.021000
     36 C46         4.2520    1.3890    4.2010 c3        1 989     -0.186000
     37 C49         5.2140    1.0790    5.3270 c3        1 989     -0.154000
     38 C52         6.4740    1.9930    5.2030 c3        1 989     -0.160000
     39 C55         7.4300    1.7210    6.3890 c3        1 989     -0.208000
     40 H28        -1.8550    0.8090   -4.4420 ha        1 989      0.140000
     41 H27        -0.7410    0.4130   -6.5070 ha        1 989      0.100000
     42 H26        -1.3030   -1.4710   -7.8410 ha        1 989      0.100000
     43 H25        -3.0160   -2.9540   -7.1260 ha        1 989      0.120000
     44 H9         -2.8400   -2.4830   -2.0970 ha        1 989      0.185000
     45 H8         -1.6680   -2.5270   -0.0410 ha        1 989      0.125000
     46 H5         -3.8370    1.9780   -2.7850 ha        1 989      0.169000
     47 H6         -3.4850    3.9810   -1.5750 ha        1 989      0.100000
     48 H1         -2.3160    3.9300    0.4720 ha        1 989      0.100000
     49 H2         -1.4900    1.8830    1.3340 ha        1 989      0.109000
     50 H361       -1.0770   -1.7390    1.8460 hc        1 989      0.097500
     51 H362       -1.4770   -0.2620    2.3470 hc        1 989      0.097500
     52 H37         0.4830    0.5300    1.1070 h1        1 989      0.111000
     53 H41         0.7320   -2.0440    0.4920 hn        1 989      0.295000
     54 H621        4.1250   -2.1920   -0.1660 hc        1 989      0.119000
     55 H622        3.3440   -1.4880   -1.3850 hc        1 989      0.119000
     56 H623        2.7070   -2.7780   -0.6610 hc        1 989      0.119000
     57 H44         2.1550    1.4760    2.7430 hn        1 989      0.257000
     58 H451        2.4920    0.7360    5.1800 h1        1 989      0.087000
     59 H452        3.2280   -0.4590    4.3880 h1        1 989      0.087000
     60 H461        4.0010    2.3340    4.2380 hc        1 989      0.085500
     61 H462        4.6870    1.1980    3.3370 hc        1 989      0.085500
     62 H491        5.4850    0.1440    5.2750 hc        1 989      0.076000
     63 H492        4.7760    1.2430    6.1820 hc        1 989      0.076000
     64 H521        6.9340    1.8010    4.3620 hc        1 989      0.078000
     65 H522        6.1940    2.9440    5.2150 hc        1 989      0.078000
     66 H551        6.9910    1.9830    7.2320 hc        1 989      0.065667
     67 H552        7.6540    0.7560    6.4190 hc        1 989      0.065667
     68 H553        8.2630    2.2500    6.2710 hc        1 989      0.065667
@<TRIPOS>BOND
     1    1    2 1   
     2    2    3 1   
     3    2    4 1   
     4    4    5 1   
     5    4    6 1   
     6    6    7 1   
     7    6   16 1   
     8    7    8 1   
     9    7   12 1   
    10    8   40 1   
    11    9   10 1   
    12    9   41 1   
    13   10   42 1   
    14   11   12 1   
    15   11   43 1   
    16   12   13 1   
    17   13   14 1   
    18   13   15 1   
    19   16   17 1   
    20   16   21 1   
    21   17   18 1   
    22   17   44 1   
    23   18   45 1   
    24   19   20 1   
    25   19   26 1   
    26   20   25 1   
    27   21   22 1   
    28   22   46 1   
    29   23   24 1   
    30   23   47 1   
    31   24   48 1   
    32   25   49 1   
    33   26   27 1   
    34   26   50 1   
    35   26   51 1   
    36   27   28 1   
    37   27   32 1   
    38   27   52 1   
    39   28   29 1   
    40   28   53 1   
    41   29   30 1   
    42   29   31 1   
    43   31   54 1   
    44   31   55 1   
    45   31   56 1   
    46   32   33 1   
    47   32   34 1   
    48   34   35 1   
    49   34   57 1   
    50   35   36 1   
    51   35   58 1   
    52   35   59 1   
    53   36   37 1   
    54   36   60 1   
    55   36   61 1   
    56   37   38 1   
    57   37   62 1   
    58   37   63 1   
    59   38   39 1   
    60   38   64 1   
    61   38   65 1   
    62   39   66 1   
    63   39   67 1   
    64   39   68 1   
@<TRIPOS>SUBSTRUCTURE
     1 989         1 TEMP              0 ****  ****    0 ROOT
