@<TRIPOS>MOLECULE
989
   68    70     1     0     0
SMALL
bcc


@<TRIPOS>ATOM
      1 O22         2.0150    2.1780   -4.9220 o         1 989     -0.799300
      2 C21         0.7960    1.9300   -4.7570 c         1 989      0.894600
      3 O23        -0.1550    2.7480   -4.7850 o         1 989     -0.799300
      4 C18         0.4290    0.4200   -4.5720 c         1 989      0.557100
      5 O20         0.1730   -0.2900   -5.5610 o         1 989     -0.637100
      6 N17         0.4630   -0.1560   -3.2800 n         1 989     -0.308200
      7 C19         0.3200   -1.5570   -3.0850 ca        1 989      0.095600
      8 C28         1.0130   -2.4160   -3.9780 ca        1 989     -0.150000
      9 C27         0.9330   -3.7970   -3.8660 ca        1 989     -0.151000
     10 C26         0.1770   -4.3740   -2.8490 ca        1 989     -0.185000
     11 C25        -0.4980   -3.5480   -1.9580 ca        1 989     -0.109000
     12 C24        -0.4540   -2.1500   -2.0560 ca        1 989     -0.113600
     13 C33        -1.2610   -1.4360   -0.9910 c         1 989      0.912200
     14 O34        -2.3120   -0.8010   -1.2880 o         1 989     -0.848300
     15 O35        -0.9040   -1.5780    0.2230 o         1 989     -0.848300
     16 C10         0.5250    0.6720   -2.1320 ca        1 989      0.103600
     17 C9         -0.4000    1.6970   -1.9470 ca        1 989     -0.105000
     18 C8         -0.5410    2.2970   -0.6830 ca        1 989     -0.084000
     19 C7          0.2420    1.9090    0.3850 ca        1 989     -0.123300
     20 C3          1.3800    1.0810    0.1480 ca        1 989     -0.004000
     21 C4          1.5330    0.4600   -1.1210 ca        1 989     -0.023000
     22 C5          2.6780   -0.3510   -1.3550 ca        1 989     -0.069000
     23 C6          3.6290   -0.5340   -0.3810 ca        1 989     -0.170000
     24 C1          3.4700    0.0700    0.8860 ca        1 989     -0.145000
     25 C2          2.3700    0.8490    1.1430 ca        1 989     -0.137000
     26 C36        -0.2310    2.1870    1.7690 c3        1 989     -0.045100
     27 C37        -0.9660    0.9130    2.2640 c3        1 989      0.049700
     28 N41        -2.2170    0.6250    1.6220 n         1 989     -0.533900
     29 C61        -3.2000    1.5570    1.3510 c         1 989      0.664100
     30 O66        -3.2170    2.7130    1.8350 o         1 989     -0.668100
     31 C62        -4.3190    1.0870    0.4460 c3        1 989     -0.186100
     32 C40        -1.0700    0.9680    3.8050 c         1 989      0.647100
     33 O43        -2.1050    1.2070    4.4500 o         1 989     -0.601100
     34 N44         0.1340    0.7480    4.4840 n         1 989     -0.581900
     35 C45         0.1770    0.5150    5.8960 c3        1 989      0.091000
     36 C46         0.3270   -0.9540    6.3070 c3        1 989     -0.114400
     37 C49         0.4020   -1.0690    7.8130 c3        1 989     -0.073400
     38 C52         0.5490   -2.5120    8.2470 c3        1 989     -0.082400
     39 C55         0.6230   -2.6370    9.7470 c3        1 989     -0.089100
     40 H28         1.6050   -1.9800   -4.7990 ha        1 989      0.142000
     41 H27         1.4710   -4.4320   -4.5830 ha        1 989      0.097000
     42 H26         0.1160   -5.4660   -2.7510 ha        1 989      0.094000
     43 H25        -1.0870   -3.9870   -1.1380 ha        1 989      0.126000
     44 H9         -1.0750    1.9950   -2.7700 ha        1 989      0.182000
     45 H8         -1.3660    3.0120   -0.5310 ha        1 989      0.132000
     46 H5          2.8010   -0.8280   -2.3410 ha        1 989      0.145000
     47 H6          4.5150   -1.1530   -0.5740 ha        1 989      0.106000
     48 H1          4.2340   -0.0930    1.6580 ha        1 989      0.097000
     49 H2          2.2500    1.3160    2.1320 ha        1 989      0.106000
     50 H361       -0.9360    3.0600    1.7860 hc        1 989      0.057700
     51 H362        0.6170    2.4270    2.4570 hc        1 989      0.057700
     52 H37        -0.3010    0.0220    2.0000 h1        1 989      0.113700
     53 H41        -2.1690   -0.1740    0.9920 hn        1 989      0.386500
     54 H621       -4.9310    1.9670    0.1410 hc        1 989      0.068033
     55 H622       -3.9000    0.5810   -0.4660 hc        1 989      0.068033
     56 H623       -4.9640    0.3610    0.9950 hc        1 989      0.068033
     57 H44         0.8890    0.3750    3.9560 hn        1 989      0.301500
     58 H451       -0.7650    0.9270    6.3590 h1        1 989      0.046700
     59 H452        1.0540    1.0890    6.3170 h1        1 989      0.046700
     60 H461        1.2520   -1.3900    5.8480 hc        1 989      0.048700
     61 H462       -0.5460   -1.5450    5.9240 hc        1 989      0.048700
     62 H491       -0.5260   -0.6340    8.2700 hc        1 989      0.034700
     63 H492        1.2710   -0.4720    8.1970 hc        1 989      0.034700
     64 H521        1.4750   -2.9480    7.7870 hc        1 989      0.041200
     65 H522       -0.3210   -3.1070    7.8610 hc        1 989      0.041200
     66 H551        0.7300   -3.7070   10.0450 hc        1 989      0.025700
     67 H552        1.4970   -2.0690   10.1470 hc        1 989      0.025700
     68 H553       -0.3030   -2.2300   10.2210 hc        1 989      0.025700
@<TRIPOS>BOND
     1    1    2 1   
     2    2    3 1   
     3    2    4 1   
     4    4    5 2   
     5    4    6 1   
     6    6    7 1   
     7    6   16 1   
     8    7    8 ar  
     9    7   12 ar  
    10    8    9 ar  
    11    8   40 1   
    12    9   10 ar  
    13    9   41 1   
    14   10   11 ar  
    15   10   42 1   
    16   11   12 ar  
    17   11   43 1   
    18   12   13 1   
    19   13   14 1   
    20   13   15 1   
    21   16   17 ar  
    22   16   21 ar  
    23   17   18 ar  
    24   17   44 1   
    25   18   19 ar  
    26   18   45 1   
    27   19   20 ar  
    28   19   26 1   
    29   20   21 ar  
    30   20   25 ar  
    31   21   22 ar  
    32   22   23 ar  
    33   22   46 1   
    34   23   24 ar  
    35   23   47 1   
    36   24   25 ar  
    37   24   48 1   
    38   25   49 1   
    39   26   27 1   
    40   26   50 1   
    41   26   51 1   
    42   27   28 1   
    43   27   32 1   
    44   27   52 1   
    45   28   29 1   
    46   28   53 1   
    47   29   30 2   
    48   29   31 1   
    49   31   54 1   
    50   31   55 1   
    51   31   56 1   
    52   32   33 2   
    53   32   34 1   
    54   34   35 1   
    55   34   57 1   
    56   35   36 1   
    57   35   58 1   
    58   35   59 1   
    59   36   37 1   
    60   36   60 1   
    61   36   61 1   
    62   37   38 1   
    63   37   62 1   
    64   37   63 1   
    65   38   39 1   
    66   38   64 1   
    67   38   65 1   
    68   39   66 1   
    69   39   67 1   
    70   39   68 1   
@<TRIPOS>SUBSTRUCTURE
     1 989         1 TEMP              0 ****  ****    0 ROOT
