@<TRIPOS>MOLECULE
989
   70    72     1     0     0
SMALL
bcc


@<TRIPOS>ATOM
      1 O22         0.0000    0.0000    0.0000 o         1 989     -0.751800
      2 C21         1.3450    0.0000    0.0000 c         1 989      0.919600
      3 O23         1.9520    0.0000    1.0500 o         1 989     -0.751800
      4 C18         2.0920    0.0000   -1.2920 c         1 989      0.527100
      5 O20         1.4840   -0.0000   -2.3430 o         1 989     -0.544100
      6 N17         3.4390    0.0000   -1.2920 n         1 989      0.096800
      7 C19         4.1350    0.0000   -2.4970 ca        1 989     -0.074400
      8 C28         4.6270    1.1900   -3.0190 ca        1 989     -0.133000
      9 C27         5.3180    1.1870   -4.2140 ca        1 989     -0.116000
     10 C26         5.5240    0.0040   -4.9020 ca        1 989     -0.121000
     11 C25         5.0420   -1.1860   -4.4010 ca        1 989     -0.053000
     12 C24         4.3470   -1.2010   -3.1890 ca        1 989     -0.097600
     13 C33         3.8300   -2.4700   -2.6480 c         1 989      0.961200
     14 O34         4.1310   -3.6350   -3.2540 o         1 989     -0.811800
     15 O35         3.1320   -2.4660   -1.6530 o         1 989     -0.811800
     16 C10         4.1370    0.0010   -0.0840 ca        1 989      0.094600
     17 C9          4.5910   -1.1820    0.4580 ca        1 989     -0.055000
     18 C8          5.2860   -1.1930    1.6620 ca        1 989     -0.216000
     19 C7          5.5400   -0.0390    2.3370 ca        1 989     -0.185300
     20 C3          5.0900    1.1880    1.8220 ca        1 989      0.002000
     21 C4          4.3840    1.2130    0.5960 ca        1 989     -0.015000
     22 C5          3.9400    2.4410    0.0810 ca        1 989     -0.035000
     23 C6          4.1960    3.5900    0.7630 ca        1 989     -0.114000
     24 C1          4.8950    3.5680    1.9670 ca        1 989     -0.061000
     25 C2          5.3400    2.3960    2.4970 ca        1 989     -0.172000
     26 C36         6.2950   -0.0780    3.6400 c3        1 989      0.009900
     27 C37         7.7940    0.0560    3.3650 c3        1 989     -0.061500
     28 N41         8.2330   -1.0500    2.5100 ny        1 989      0.156200
     29 C61         8.0940   -2.3230    2.9300 c         1 989      0.341100
     30 O66         7.6030   -2.5520    4.0150 o         1 989     -0.398100
     31 C62         8.5460   -3.4610    2.0520 c3        1 989     -0.051100
     32 C40         8.5510    0.0170    4.6670 c         1 989      0.106100
     33 O43         8.9340   -1.0440    5.1130 o         1 989     -0.547100
     34 N44         8.8000    1.1590    5.3370 ny        1 989      0.260200
     35 C45         9.5350    1.1200    6.6030 c3        1 989     -0.029200
     36 C46         9.6830    2.5410    7.1510 c3        1 989     -0.036400
     37 C49        10.4510    2.5010    8.4730 c3        1 989     -0.019400
     38 C52        10.5980    3.9220    9.0210 c3        1 989     -0.025400
     39 C55        11.3660    3.8820   10.3430 c3        1 989      0.008900
     40 H28         4.4710    2.1200   -2.4870 ha        1 989      0.097000
     41 H27         5.7000    2.1180   -4.6170 ha        1 989      0.090000
     42 H26         6.0820    0.0110   -5.8310 ha        1 989      0.094000
     43 H25         5.2080   -2.1090   -4.9430 ha        1 989      0.133000
     44 H9          4.5150   -2.2370    0.2210 ha        1 989      0.164000
     45 H8          5.0280   -2.1270    2.1480 ha        1 989      0.143000
     46 H5          3.3960    2.4730   -0.8550 ha        1 989      0.135000
     47 H6          3.8530    4.5360    0.3620 ha        1 989      0.111000
     48 H1          5.0860    4.4970    2.4910 ha        1 989      0.092000
     49 H2          5.7790    2.3820    3.4880 ha        1 989      0.075000
     50 H361        5.9700    0.7410    4.2710 hc        1 989      0.061700
     51 H362        6.1030   -1.0190    4.1420 hc        1 989      0.061700
     52 H37         7.9860    0.9970    2.8640 hx        1 989      0.075700
     53 H41         9.2070   -0.9080    2.3290 hn        1 989      0.267300
     54 H621        7.7710   -4.2160    2.0120 hc        1 989      0.055033
     55 H622        8.7410   -3.0900    1.0530 hc        1 989      0.055033
     56 H623        9.4520   -3.8940    2.4600 hc        1 989      0.055033
     57 H44         9.3170    1.7530    4.7180 hn        1 989      0.212800
     58 H451       10.5170    0.6930    6.4380 hx        1 989      0.086700
     59 H452        8.9930    0.5130    7.3170 hx        1 989      0.086700
     60 H461       10.2250    3.1490    6.4370 hc        1 989      0.028700
     61 H462        8.7010    2.9680    7.3160 hc        1 989      0.028700
     62 H491       11.4320    2.0740    8.3080 hc        1 989      0.026700
     63 H492        9.9080    1.8930    9.1870 hc        1 989      0.026700
     64 H521       11.1410    4.5300    8.3070 hc        1 989      0.016700
     65 H522        9.6170    4.3490    9.1860 hc        1 989      0.016700
     66 H551       10.8410    3.2460   11.0460 hc        1 989      0.008367
     67 H552       12.3600    3.4870   10.1720 hc        1 989      0.008367
     68 H553       11.4410    4.8840   10.7480 hc        1 989      0.008367
     69 H412        7.7300   -0.9700    1.6490 hn        1 989      0.267300
     70 H442        7.9140    1.5850    5.5270 hn        1 989      0.212800
@<TRIPOS>BOND
     1    1    2 1   
     2    2    3 1   
     3    2    4 1   
     4    4    5 2   
     5    4    6 1   
     6    6    7 1   
     7    6   16 1   
     8    7    8 ar  
     9    7   12 ar  
    10    8    9 ar  
    11    8   40 1   
    12    9   10 ar  
    13    9   41 1   
    14   10   11 ar  
    15   10   42 1   
    16   11   12 ar  
    17   11   43 1   
    18   12   13 1   
    19   13   14 1   
    20   13   15 1   
    21   16   17 ar  
    22   16   21 ar  
    23   17   18 ar  
    24   17   44 1   
    25   18   19 ar  
    26   18   45 1   
    27   19   20 ar  
    28   19   26 1   
    29   20   21 ar  
    30   20   25 ar  
    31   21   22 ar  
    32   22   23 ar  
    33   22   46 1   
    34   23   24 ar  
    35   23   47 1   
    36   24   25 ar  
    37   24   48 1   
    38   25   49 1   
    39   26   27 1   
    40   26   50 1   
    41   26   51 1   
    42   27   28 1   
    43   27   32 1   
    44   27   52 1   
    45   28   29 1   
    46   28   53 1   
    47   28   69 1   
    48   29   30 2   
    49   29   31 1   
    50   31   54 1   
    51   31   55 1   
    52   31   56 1   
    53   32   33 2   
    54   32   34 1   
    55   34   35 1   
    56   34   57 1   
    57   34   70 1   
    58   35   36 1   
    59   35   58 1   
    60   35   59 1   
    61   36   37 1   
    62   36   60 1   
    63   36   61 1   
    64   37   38 1   
    65   37   62 1   
    66   37   63 1   
    67   38   39 1   
    68   38   64 1   
    69   38   65 1   
    70   39   66 1   
    71   39   67 1   
    72   39   68 1   
@<TRIPOS>SUBSTRUCTURE
     1 989         1 TEMP              0 ****  ****    0 ROOT
