@<TRIPOS>MOLECULE
989
   71    73     1     0     0
SMALL
bcc


@<TRIPOS>ATOM
      1 O22         0.8450   -1.3780   -1.7190 o         1 989     -0.707800
      2 C21         1.3210   -1.6370   -0.6070 c         1 989      0.935600
      3 O23         0.8670   -1.7980    0.5360 o         1 989     -0.707800
      4 C18         2.9330   -1.7590   -0.6360 c         1 989      0.541100
      5 O20         3.6390   -2.7630   -0.5640 o         1 989     -0.582100
      6 N17         3.6680   -0.4750   -0.7830 n         1 989     -0.326200
      7 C19         4.3010   -0.2610   -2.0390 ca        1 989      0.056600
      8 C28         3.5210   -0.0520   -3.1930 ca        1 989     -0.111000
      9 C27         4.1420    0.1130   -4.4310 ca        1 989     -0.078000
     10 C26         5.5320    0.0810   -4.5400 ca        1 989     -0.128000
     11 C25         6.3170   -0.1460   -3.4110 ca        1 989     -0.068000
     12 C24         5.7140   -0.3450   -2.1660 ca        1 989     -0.195600
     13 C33         6.5550   -0.6400   -1.0000 c         1 989      0.694700
     14 O34         6.3060   -1.7420   -0.2260 oh        1 989     -0.680100
     15 O35         7.5100    0.0040   -0.5350 o         1 989     -0.587000
     16 C10         3.7790    0.3670    0.2780 ca        1 989      0.211600
     17 C9          3.3670   -0.0840    1.5720 ca        1 989     -0.286000
     18 C8          4.0330    0.3860    2.6860 ca        1 989     -0.022000
     19 C7          5.0640    1.3260    2.5570 ca        1 989     -0.372300
     20 C3          5.1090    2.1260    1.3770 ca        1 989      0.044000
     21 C4          4.4270    1.6660    0.2190 ca        1 989     -0.142000
     22 C5          4.3710    2.4900   -0.9280 ca        1 989     -0.057000
     23 C6          5.0200    3.7070   -0.9520 ca        1 989     -0.151000
     24 C1          5.7510    4.1370    0.1720 ca        1 989     -0.063000
     25 C2          5.8010    3.3600    1.3100 ca        1 989     -0.195000
     26 C36         6.1280    1.4090    3.5700 c3        1 989      0.007900
     27 C37         7.4250    0.8600    2.9040 c3        1 989      0.038500
     28 N41         7.1830   -0.4280    2.1790 n4        1 989     -0.683800
     29 C61         7.1130   -1.6620    3.0380 c         1 989      0.606100
     30 O66         7.5050   -1.5280    4.1960 o         1 989     -0.530100
     31 C62         6.5800   -2.8840    2.3820 c3        1 989     -0.190100
     32 C40         8.6370    0.7410    3.8240 c         1 989      0.530100
     33 O43         9.7650    0.4680    3.4430 o         1 989     -0.391100
     34 N44         8.4280    0.9920    5.2860 n4        1 989     -0.662800
     35 C45         9.7010    1.2400    6.0370 c3        1 989      0.105800
     36 C46         9.4540    1.4720    7.5210 c3        1 989     -0.109400
     37 C49        10.7830    1.7200    8.2100 c3        1 989     -0.079400
     38 C52        10.5790    1.9560    9.6930 c3        1 989     -0.078400
     39 C55        11.8930    2.2030   10.3880 c3        1 989     -0.098100
     40 H28         2.4140   -0.0550   -3.1120 ha        1 989      0.207000
     41 H27         3.5210    0.2690   -5.3290 ha        1 989      0.163000
     42 H26         6.0130    0.2260   -5.5200 ha        1 989      0.157000
     43 H25         7.4150   -0.1800   -3.4950 ha        1 989      0.153000
     44 H9          2.5380   -0.8160    1.6590 ha        1 989      0.218000
     45 H8          3.7840   -0.0300    3.6760 ha        1 989      0.136000
     46 H5          3.7790    2.1640   -1.8010 ha        1 989      0.157000
     47 H6          4.9610    4.3530   -1.8410 ha        1 989      0.153000
     48 H1          6.2670    5.1100    0.1390 ha        1 989      0.143000
     49 H2          6.3280    3.7310    2.2000 ha        1 989      0.110000
     50 H361        6.3360    2.4670    3.8810 hc        1 989      0.060200
     51 H362        5.8600    0.8010    4.4730 hc        1 989      0.060200
     52 H37         7.7100    1.6230    2.0970 hx        1 989      0.178700
     53 H41         6.2640   -0.3280    1.6770 hn        1 989      0.517800
     54 H621        5.5170   -2.7250    2.0480 hc        1 989      0.133033
     55 H622        7.1810   -3.1410    1.4680 hc        1 989      0.133033
     56 H623        6.6150   -3.7370    3.1090 hc        1 989      0.133033
     57 H44         7.7980    1.7960    5.4090 hn        1 989      0.475300
     58 H451       10.3710    0.3440    5.8850 hx        1 989      0.116700
     59 H452       10.2020    2.1390    5.5740 hx        1 989      0.116700
     60 H461        8.7840    2.3590    7.6770 hc        1 989      0.068200
     61 H462        8.9570    0.5780    7.9830 hc        1 989      0.068200
     62 H491       11.2880    2.6120    7.7550 hc        1 989      0.058200
     63 H492       11.4600    0.8370    8.0610 hc        1 989      0.058200
     64 H521        9.9000    2.8370    9.8440 hc        1 989      0.048200
     65 H522       10.0720    1.0640   10.1490 hc        1 989      0.048200
     66 H551       12.5740    1.3260   10.2720 hc        1 989      0.047700
     67 H552       11.7220    2.3740   11.4790 hc        1 989      0.047700
     68 H553       12.4020    3.1030    9.9660 hc        1 989      0.047700
     69 H171        5.6140   -2.3120   -0.6200 ho        1 989      0.503000
     70 H412        7.8910   -0.5590    1.4230 hn        1 989      0.517800
     71 H442        7.9610    0.1570    5.6770 hn        1 989      0.475300
@<TRIPOS>BOND
     1    1    2 1   
     2    2    3 1   
     3    2    4 1   
     4    4    5 2   
     5    4    6 1   
     6    6    7 1   
     7    6   16 1   
     8    7    8 ar  
     9    7   12 ar  
    10    8    9 ar  
    11    8   40 1   
    12    9   10 ar  
    13    9   41 1   
    14   10   11 ar  
    15   10   42 1   
    16   11   12 ar  
    17   11   43 1   
    18   12   13 1   
    19   13   14 1   
    20   13   15 2   
    21   14   69 1   
    22   16   17 ar  
    23   16   21 ar  
    24   17   18 ar  
    25   17   44 1   
    26   18   19 ar  
    27   18   45 1   
    28   19   20 ar  
    29   19   26 1   
    30   20   21 ar  
    31   20   25 ar  
    32   21   22 ar  
    33   22   23 ar  
    34   22   46 1   
    35   23   24 ar  
    36   23   47 1   
    37   24   25 ar  
    38   24   48 1   
    39   25   49 1   
    40   26   27 1   
    41   26   50 1   
    42   26   51 1   
    43   27   28 1   
    44   27   32 1   
    45   27   52 1   
    46   28   29 1   
    47   28   53 1   
    48   28   70 1   
    49   29   30 2   
    50   29   31 1   
    51   31   54 1   
    52   31   55 1   
    53   31   56 1   
    54   32   33 2   
    55   32   34 1   
    56   34   35 1   
    57   34   57 1   
    58   34   71 1   
    59   35   36 1   
    60   35   58 1   
    61   35   59 1   
    62   36   37 1   
    63   36   60 1   
    64   36   61 1   
    65   37   38 1   
    66   37   62 1   
    67   37   63 1   
    68   38   39 1   
    69   38   64 1   
    70   38   65 1   
    71   39   66 1   
    72   39   67 1   
    73   39   68 1   
@<TRIPOS>SUBSTRUCTURE
     1 989         1 TEMP              0 ****  ****    0 ROOT
