@<TRIPOS>MOLECULE
98J
   16    14     1     0     0
SMALL
bcc


@<TRIPOS>ATOM
      1 C12         1.3340   -1.5610    2.0790 c1        1 98J      0.812000
      2 O1          0.6910    0.7940    1.0350 o         1 98J     -0.637300
      3 O14         2.5900   -1.5110    2.0040 o         1 98J     -0.798500
      4 O13         0.7720   -1.6180    3.2050 o         1 98J     -0.798500
      5 C3          0.5000   -1.5550    0.8170 c2        1 98J     -0.292000
      6 C2          0.1810   -0.1270    0.4300 c2        1 98J      0.580300
      7 C9         -0.7740    0.1520   -0.7090 c3        1 98J     -0.208400
      8 C10        -0.5750    1.5700   -1.1980 c3        1 98J      0.135400
      9 O11        -1.3960    1.8000   -2.3220 oh        1 98J     -0.613800
     10 H31C       -0.3320   -2.0440    0.9740 ha        1 98J      0.092000
     11 H32C        1.0000   -1.9840    0.0940 ha        1 98J      0.092000
     12 H91C       -0.6000   -0.4720   -1.4410 hc        1 98J      0.100700
     13 H92C       -1.6950    0.0410   -0.3980 hc        1 98J      0.100700
     14 H101       -0.8150    2.1980   -0.4850 h1        1 98J      0.026200
     15 H102        0.3630    1.7010   -1.4460 h1        1 98J      0.026200
     16 H11        -1.2420    2.6160   -2.6390 ho        1 98J      0.381000
@<TRIPOS>BOND
     1    1    3 2   
     2    1    4 2   
     3    2    6 1   
     4    5    6 2   
     5    5   10 1   
     6    5   11 1   
     7    6    7 1   
     8    7    8 1   
     9    7   12 1   
    10    7   13 1   
    11    8    9 1   
    12    8   14 1   
    13    8   15 1   
    14    9   16 1   
@<TRIPOS>SUBSTRUCTURE
     1 98J         1 TEMP              0 ****  ****    0 ROOT
