@<TRIPOS>MOLECULE
98J
   16    15     1     0     0
SMALL
bcc


@<TRIPOS>ATOM
      1 C12        -0.1300    0.6530   -0.4610 c         1 98J      0.925600
      2 O1          0.5970   -1.8980   -2.6490 o         1 98J     -0.611100
      3 O14         0.1990    1.7260   -1.0420 o         1 98J     -0.830300
      4 O13        -0.0030    0.4380    0.7730 o         1 98J     -0.830300
      5 C3         -0.7910   -0.4710   -1.3050 c3        1 98J     -0.313400
      6 C2         -0.0090   -0.8210   -2.5220 c         1 98J      0.604100
      7 C9         -0.0140    0.2210   -3.6050 c3        1 98J     -0.208400
      8 C10         0.9890   -0.0740   -4.7020 c3        1 98J      0.135400
      9 O11         0.5780    0.6350   -5.8660 oh        1 98J     -0.613800
     10 H31C       -1.8000   -0.0940   -1.6080 hc        1 98J      0.052700
     11 H32C       -0.9160   -1.3720   -0.6540 hc        1 98J      0.052700
     12 H91C        0.2070    1.2170   -3.1200 hc        1 98J      0.100700
     13 H92C       -1.0450    0.2830   -4.0420 hc        1 98J      0.100700
     14 H101        2.0150    0.2580   -4.3920 h1        1 98J      0.026200
     15 H102        1.0180   -1.1740   -4.9310 h1        1 98J      0.026200
     16 H11         1.3000    0.5560   -6.4970 ho        1 98J      0.381000
@<TRIPOS>BOND
     1    1    3 1   
     2    1    4 1   
     3    1    5 1   
     4    2    6 2   
     5    5    6 1   
     6    5   10 1   
     7    5   11 1   
     8    6    7 1   
     9    7    8 1   
    10    7   12 1   
    11    7   13 1   
    12    8    9 1   
    13    8   14 1   
    14    8   15 1   
    15    9   16 1   
@<TRIPOS>SUBSTRUCTURE
     1 98J         1 TEMP              0 ****  ****    0 ROOT
