@<TRIPOS>MOLECULE
98J
   16    15     1     0     0
SMALL
bcc


@<TRIPOS>ATOM
      1 C12        -0.2150    0.8910   -0.5480 c         1 98J      0.925600
      2 O1          0.8460   -1.7770   -2.4400 o         1 98J     -0.611100
      3 O14        -0.0300    1.9240   -1.2520 o         1 98J     -0.830300
      4 O13        -0.0620    0.8390    0.7010 o         1 98J     -0.830300
      5 C3         -0.7200   -0.4000   -1.2470 c3        1 98J     -0.313400
      6 C2          0.1020   -0.7820   -2.4280 c         1 98J      0.604100
      7 C9         -0.0410    0.1180   -3.6230 c3        1 98J     -0.208400
      8 C10         0.9930   -0.1670   -4.6930 c3        1 98J      0.135400
      9 O11         0.4910    0.3410   -5.9260 oh        1 98J     -0.613800
     10 H31C       -1.7700   -0.1970   -1.5770 hc        1 98J      0.052700
     11 H32C       -0.7250   -1.2290   -0.4950 hc        1 98J      0.052700
     12 H91C        0.0460    1.1840   -3.2580 hc        1 98J      0.100700
     13 H92C       -1.0710   -0.0070   -4.0480 hc        1 98J      0.100700
     14 H101        1.9660    0.3320   -4.4400 h1        1 98J      0.026200
     15 H102        1.1690   -1.2720   -4.7950 h1        1 98J      0.026200
     16 H11         1.2180    0.2850   -6.5540 ho        1 98J      0.381000
@<TRIPOS>BOND
     1    1    3 1   
     2    1    4 1   
     3    1    5 1   
     4    2    6 2   
     5    5    6 1   
     6    5   10 1   
     7    5   11 1   
     8    6    7 1   
     9    7    8 1   
    10    7   12 1   
    11    7   13 1   
    12    8    9 1   
    13    8   14 1   
    14    8   15 1   
    15    9   16 1   
@<TRIPOS>SUBSTRUCTURE
     1 98J         1 TEMP              0 ****  ****    0 ROOT
