@<TRIPOS>MOLECULE
98J
   16    15     1     0     0
SMALL
bcc


@<TRIPOS>ATOM
      1 C12        -1.7990   -0.3500   -0.5080 c         1 98J      0.925600
      2 O1          0.5700    0.3510    1.8840 o         1 98J     -0.611100
      3 O14        -1.2560   -0.1230   -1.6260 o         1 98J     -0.830300
      4 O13        -3.0080   -0.1200   -0.2390 o         1 98J     -0.830300
      5 C3         -0.9450   -1.0090    0.6090 c3        1 98J     -0.313400
      6 C2          0.3420   -0.3020    0.8520 c         1 98J      0.604100
      7 C9          1.3640   -0.4440   -0.2410 c3        1 98J     -0.208400
      8 C10         2.5430    0.4900   -0.0600 c3        1 98J      0.135400
      9 O11         3.6350   -0.0450   -0.8010 oh        1 98J     -0.613800
     10 H31C       -1.5540   -1.0370    1.5480 hc        1 98J      0.052700
     11 H32C       -0.7360   -2.0570    0.2770 hc        1 98J      0.052700
     12 H91C        1.7220   -1.5060   -0.2650 hc        1 98J      0.100700
     13 H92C        0.8420   -0.2410   -1.2230 hc        1 98J      0.100700
     14 H101        2.2900    1.5170   -0.4350 h1        1 98J      0.026200
     15 H102        2.8330    0.5620    1.0240 h1        1 98J      0.026200
     16 H11         4.3190    0.6330   -0.7960 ho        1 98J      0.381000
@<TRIPOS>BOND
     1    1    3 1   
     2    1    4 1   
     3    1    5 1   
     4    2    6 2   
     5    5    6 1   
     6    5   10 1   
     7    5   11 1   
     8    6    7 1   
     9    7    8 1   
    10    7   12 1   
    11    7   13 1   
    12    8    9 1   
    13    8   14 1   
    14    8   15 1   
    15    9   16 1   
@<TRIPOS>SUBSTRUCTURE
     1 98J         1 TEMP              0 ****  ****    0 ROOT
