@<TRIPOS>MOLECULE
98P
   54    52     1     0     0
SMALL
bcc


@<TRIPOS>ATOM
      1 N22        -1.5220   -3.3080    1.0740 n3        1 98P     -0.343000
      2 C3         -0.7480   -2.5010    1.9350 c3        1 98P     -0.009000
      3 C4         -0.2540   -1.2600    1.1710 c2        1 98P      0.252000
      4 O26        -1.0310   -0.3830    0.8730 o         1 98P     -0.394000
      5 C2         -1.5950   -2.0660    3.1300 c3        1 98P     -0.108000
      6 C1         -2.6180   -3.1570    3.4700 c2        1 98P     -0.084000
      7 C5         -2.2680   -4.1860    4.3470 c1        1 98P     -0.127000
      8 C9         -3.9100   -3.0680    2.9870 c2        1 98P     -0.106000
      9 C6         -3.2150   -5.1200    4.7340 c1        1 98P     -0.100500
     10 C8         -4.8550   -3.9970    3.3710 c1        1 98P     -0.127000
     11 C7         -4.5030   -5.0350    4.2550 c1        1 98P     -0.100500
     12 N23         1.1600   -1.1440    0.8030 n         1 98P     -0.323000
     13 C10         1.7450   -0.1310    0.1410 c3        1 98P      0.010000
     14 C11         0.7640    0.4680   -0.8260 c2        1 98P      0.312000
     15 O27        -0.2000   -0.1810   -1.1930 o         1 98P     -0.415000
     16 C14         3.0210   -0.8530   -0.5680 c3        1 98P     -0.166000
     17 C15         3.4670   -1.7310    0.2650 c3        1 98P     -0.173000
     18 C16         2.2630   -2.1470    1.1050 c3        1 98P     -0.039000
     19 C12         0.2750    2.1750   -2.5400 c3        1 98P      0.016000
     20 C13         0.5940    3.6670   -2.8220 c2        1 98P     -0.117000
     21 C17         1.3930    4.0270   -3.9490 c2        1 98P      0.023000
     22 C18         2.3250    5.6680   -5.3680 c3        1 98P     -0.130000
     23 C19         0.9760    6.2780   -3.5220 c1        1 98P     -0.100500
     24 C20         0.1780    5.9220   -2.3960 c1        1 98P     -0.100500
     25 C21         0.0070    4.6330   -2.0750 c1        1 98P      0.035000
     26 N24         1.0700    1.7220   -1.4690 n         1 98P     -0.378000
     27 N25         1.5610    5.3180   -4.2660 n2        1 98P     -0.041000
     28 CL28       -1.1940    4.9650   -0.8290 cl        1 98P      0.117000
     29 HN22       -0.9430   -3.9340    0.6130 hn        1 98P      0.163000
     30 HN2A       -1.9670   -2.7580    0.4390 hn        1 98P      0.163000
     31 H3          0.0440   -3.0230    2.2620 h1        1 98P      0.126000
     32 H2         -2.0620   -1.2420    2.9130 hc        1 98P      0.103500
     33 H2A        -1.0270   -1.9220    3.8820 hc        1 98P      0.103500
     34 H5         -1.4060   -4.2430    4.6690 ha        1 98P      0.127000
     35 H9         -4.1530   -2.3520    2.3790 ha        1 98P      0.129000
     36 H6         -2.9510   -5.8880    5.3900 ha        1 98P      0.172250
     37 H8         -5.7980   -3.9310    3.0180 ha        1 98P      0.136000
     38 H7         -5.2100   -5.7310    4.5440 ha        1 98P      0.172250
     39 H10         1.9950    0.5890    0.6070 h1        1 98P      0.131000
     40 H14         3.7100   -0.1970   -0.7570 hc        1 98P      0.116000
     41 H14A        2.7300   -1.3030   -1.4170 hc        1 98P      0.116000
     42 H15         4.1450   -1.3440    0.8280 hc        1 98P      0.106500
     43 H15A        3.8090   -2.4620   -0.1940 hc        1 98P      0.106500
     44 H16         2.4840   -2.1190    2.0360 h1        1 98P      0.099500
     45 H16A        1.9660   -3.0790    0.8450 h1        1 98P      0.099500
     46 H12         0.4640    1.6560   -3.3190 h1        1 98P      0.128000
     47 H12A       -0.6690    2.0820   -2.3060 h1        1 98P      0.128000
     48 H17         1.7540    3.3340   -4.5290 h4        1 98P      0.251000
     49 H18         2.0160    5.1970   -6.1250 h1        1 98P      0.140333
     50 H18A        2.2420    6.7020   -5.5400 h1        1 98P      0.140333
     51 H18B        3.2970    5.4300   -5.1940 h1        1 98P      0.140333
     52 H19         1.0980    7.2080   -3.7510 ha        1 98P      0.172250
     53 H20        -0.2530    6.6310   -1.8500 ha        1 98P      0.172250
     54 HN24        1.7980    2.1280   -1.2800 hn        1 98P      0.274000
@<TRIPOS>BOND
     1    1    2 1   
     2    1   29 1   
     3    1   30 1   
     4    2    3 1   
     5    2    5 1   
     6    2   31 1   
     7    3    4 1   
     8    3   12 1   
     9    5    6 1   
    10    5   32 1   
    11    5   33 1   
    12    6    7 1   
    13    6    8 1   
    14    7   34 1   
    15    8   10 1   
    16    8   35 1   
    17    9   11 1   
    18    9   36 1   
    19   10   37 1   
    20   11   38 1   
    21   12   13 1   
    22   12   18 1   
    23   13   14 1   
    24   13   16 1   
    25   13   39 1   
    26   14   15 1   
    27   14   26 1   
    28   16   17 1   
    29   16   40 1   
    30   16   41 1   
    31   17   18 1   
    32   17   42 1   
    33   17   43 1   
    34   18   44 1   
    35   18   45 1   
    36   19   20 1   
    37   19   26 1   
    38   19   46 1   
    39   19   47 1   
    40   20   21 1   
    41   20   25 1   
    42   21   27 1   
    43   21   48 1   
    44   22   27 1   
    45   22   49 1   
    46   22   50 1   
    47   22   51 1   
    48   23   24 1   
    49   23   52 1   
    50   24   53 1   
    51   25   28 1   
    52   26   54 1   
@<TRIPOS>SUBSTRUCTURE
     1 98P         1 TEMP              0 ****  ****    0 ROOT
