@<TRIPOS>MOLECULE
98P
   54    56     1     0     0
SMALL
bcc


@<TRIPOS>ATOM
      1 N22         2.8130   -1.5040   -0.9200 n3        1 98P     -0.900800
      2 C3          2.8610   -0.2310   -0.2330 c3        1 98P      0.119500
      3 C4          1.4440    0.1620    0.2320 c         1 98P      0.669100
      4 O26         0.7060   -0.6620    0.8170 o         1 98P     -0.638100
      5 C2          3.7590   -0.1670    1.0200 c3        1 98P     -0.074100
      6 C1          5.1710   -0.4860    0.6840 ca        1 98P     -0.101300
      7 C5          6.0630    0.5340    0.3330 ca        1 98P     -0.128500
      8 C9          5.6250   -1.8100    0.7260 ca        1 98P     -0.128500
      9 C6          7.3880    0.2340    0.0250 ca        1 98P     -0.121000
     10 C8          6.9520   -2.1080    0.4180 ca        1 98P     -0.121000
     11 C7          7.8350   -1.0870    0.0660 ca        1 98P     -0.118000
     12 N23         0.9650    1.4310   -0.0400 n         1 98P     -0.464800
     13 C10        -0.2900    1.9050    0.5260 c3        1 98P      0.043700
     14 C11        -1.5340    1.5020   -0.2940 c         1 98P      0.667100
     15 O27        -2.4720    2.3060   -0.4970 o         1 98P     -0.658100
     16 C14        -0.1860    3.4440    0.6340 c3        1 98P     -0.086400
     17 C15         1.0870    3.8440   -0.1020 c3        1 98P     -0.093400
     18 C16         1.8060    2.5370   -0.4710 c3        1 98P      0.085000
     19 C12        -2.6880   -0.2190   -1.6130 c3        1 98P      0.139300
     20 C13        -3.9770   -0.5610   -0.8970 ca        1 98P     -0.123300
     21 C17        -4.7920    0.5130   -0.4950 ca        1 98P     -0.002300
     22 C19        -6.4020   -0.9670    0.4010 ca        1 98P     -0.035300
     23 C20        -5.6330   -2.0660    0.0290 ca        1 98P     -0.146000
     24 C21        -4.3970   -1.8730   -0.6230 ca        1 98P      0.113400
     25 N24        -1.6310    0.2040   -0.7490 n         1 98P     -0.563900
     26 N25        -5.9810    0.3140    0.1430 na        1 98P      0.026900
     27 CL28       -3.4800   -3.2120   -1.0410 cl        1 98P      0.038600
     28 HN22        3.7450   -1.7960   -1.1490 hn        1 98P      0.368800
     29 HN2A        2.3770   -2.2010   -0.3460 hn        1 98P      0.368800
     30 H3          3.2520    0.5170   -0.9860 h1        1 98P      0.082700
     31 H2          3.3720   -0.8840    1.7920 hc        1 98P      0.063700
     32 H2A         3.6930    0.8660    1.4550 hc        1 98P      0.063700
     33 H5          5.7160    1.5780    0.3050 ha        1 98P      0.129000
     34 H9          4.9350   -2.6170    1.0160 ha        1 98P      0.129000
     35 H6          8.0850    1.0410   -0.2480 ha        1 98P      0.140000
     36 H8          7.3020   -3.1500    0.4570 ha        1 98P      0.140000
     37 H7          8.8820   -1.3230   -0.1750 ha        1 98P      0.142000
     38 H10        -0.4460    1.4420    1.5480 h1        1 98P      0.092700
     39 H14        -1.0850    3.9410    0.1910 hc        1 98P      0.077700
     40 H14A       -0.1300    3.7310    1.7140 hc        1 98P      0.077700
     41 H15         0.8470    4.4250   -1.0260 hc        1 98P      0.067200
     42 H15A        1.7410    4.4800    0.5430 hc        1 98P      0.067200
     43 H16         1.9630    2.4660   -1.5830 h1        1 98P      0.058700
     44 H16A        2.8110    2.4840    0.0330 h1        1 98P      0.058700
     45 H12        -2.3390   -1.1200   -2.1970 h1        1 98P      0.090200
     46 H12A       -2.9220    0.6100   -2.3480 h1        1 98P      0.090200
     47 H17        -4.4570    1.5660   -0.6800 h4        1 98P      0.251000
     48 H18        -7.7460    1.4520   -0.0680 h1        1 98P      0.100700
     49 H18A       -7.0720    1.3340    1.6370 h1        1 98P      0.100700
     50 H18B       -6.2470    2.4030    0.3990 h1        1 98P      0.100700
     51 H19        -7.3770   -1.0850    0.9180 h4        1 98P      0.208000
     52 H20        -6.0010   -3.0830    0.2570 ha        1 98P      0.205000
     53 HN24       -0.9460   -0.4730   -0.4840 hn        1 98P      0.360500
     54 C18        -6.8070    1.4410    0.5500 c3        1 98P     -0.031400
@<TRIPOS>BOND
     1    1    2 1   
     2    1   28 1   
     3    1   29 1   
     4    2    3 1   
     5    2    5 1   
     6    2   30 1   
     7    3    4 2   
     8    3   12 1   
     9    5    6 1   
    10    5   31 1   
    11    5   32 1   
    12    6    7 ar  
    13    6    8 ar  
    14    7    9 ar  
    15    7   33 1   
    16    8   10 ar  
    17    8   34 1   
    18    9   11 ar  
    19    9   35 1   
    20   10   11 ar  
    21   10   36 1   
    22   11   37 1   
    23   12   13 1   
    24   12   18 1   
    25   13   14 1   
    26   13   16 1   
    27   13   38 1   
    28   14   15 2   
    29   14   25 1   
    30   16   17 1   
    31   16   39 1   
    32   16   40 1   
    33   17   18 1   
    34   17   41 1   
    35   17   42 1   
    36   18   43 1   
    37   18   44 1   
    38   19   20 1   
    39   19   25 1   
    40   19   45 1   
    41   19   46 1   
    42   20   21 ar  
    43   20   24 ar  
    44   21   26 2   
    45   21   47 1   
    46   22   23 ar  
    47   22   26 1   
    48   22   51 1   
    49   23   24 ar  
    50   23   52 1   
    51   24   27 1   
    52   25   53 1   
    53   26   54 1   
    54   48   54 1   
    55   49   54 1   
    56   50   54 1   
@<TRIPOS>SUBSTRUCTURE
     1 98P         1 TEMP              0 ****  ****    0 ROOT
