@<TRIPOS>MOLECULE
990
   46    49     1     0     0
SMALL
bcc


@<TRIPOS>ATOM
      1 F17         0.2700    1.1170    0.4410 f         1 990     -0.136900
      2 C16         1.5350    0.6410    0.3590 ca        1 990      0.129900
      3 C18         2.3980    0.7540    1.4620 ca        1 990     -0.142000
      4 C8          3.7020    0.2570    1.3770 cp        1 990     -0.105500
      5 C21         4.5610    0.3800    2.5780 cp        1 990      0.479800
      6 N26         4.9920    1.6190    2.9250 nb        1 990     -0.717000
      7 C25         5.7500    1.7070    4.0460 ca        1 990      0.628600
      8 O27         6.2450    2.9170    4.4870 os        1 990     -0.446100
      9 C28         5.9290    4.0820    3.7240 c3        1 990      0.124700
     10 C24         6.1070    0.5970    4.8610 ca        1 990     -0.254300
     11 C23         5.6460   -0.6540    4.4760 ca        1 990     -0.068000
     12 C22         4.8650   -0.7770    3.3210 ca        1 990     -0.274300
     13 C19         1.9830    0.0370   -0.8300 ca        1 990     -0.158000
     14 C20         3.2860   -0.4400   -0.8980 ca        1 990     -0.093000
     15 C7          4.1590   -0.3380    0.1920 ca        1 990     -0.120300
     16 C6          5.5800   -0.8550    0.0720 c3        1 990      0.154000
     17 N9          6.3080   -0.3110   -1.0450 n         1 990     -0.555900
     18 C1          6.3280   -0.9170   -2.2960 c         1 990      0.726100
     19 O2          6.8110   -0.2730   -3.2520 o         1 990     -0.651500
     20 C5          5.5890   -2.3930    0.1010 c3        1 990     -0.145700
     21 C4          5.4320   -3.0220   -1.2540 ca        1 990      0.527600
     22 N15         4.9560   -4.2790   -1.3100 nb        1 990     -0.779000
     23 C13         4.8760   -4.8530   -2.5780 ca        1 990      0.919900
     24 N14         4.4350   -6.1600   -2.6610 nh        1 990     -0.950500
     25 N12         5.2320   -4.2160   -3.7640 nb        1 990     -0.778000
     26 C10         5.7030   -2.9580   -3.6660 ca        1 990      0.556600
     27 C3          5.8220   -2.2960   -2.4110 ca        1 990     -0.462200
     28 C11         6.1040   -2.2560   -4.9230 c3        1 990     -0.163400
     29 H1          2.0440    1.2400    2.3840 ha        1 990      0.159000
     30 H2          6.4420    4.8990    4.2930 h1        1 990      0.051700
     31 H3          4.8250    4.2480    3.6970 h1        1 990      0.051700
     32 H4          6.3390    3.9980    2.6900 h1        1 990      0.051700
     33 H5          6.7220    0.7530    5.7550 ha        1 990      0.162000
     34 H6          5.8920   -1.5440    5.0740 ha        1 990      0.144000
     35 H7          4.4880   -1.7560    2.9970 ha        1 990      0.150000
     36 H8          1.3050   -0.0470   -1.6910 ha        1 990      0.154000
     37 H9          3.6410   -0.9090   -1.8320 ha        1 990      0.148000
     38 H10         6.1420   -0.5160    1.0010 h1        1 990      0.074700
     39 H11         6.5040    0.6650   -1.0130 hn        1 990      0.324500
     40 H12         4.7840   -2.7390    0.8030 hc        1 990      0.082700
     41 H13         6.5760   -2.7410    0.5150 hc        1 990      0.082700
     42 H14         4.0790   -6.6060   -1.8520 hn        1 990      0.448800
     43 H15         4.2750   -6.5630   -3.5510 hn        1 990      0.448800
     44 H16         5.9190   -2.8730   -5.8360 hc        1 990      0.073033
     45 H17         7.1940   -2.0030   -4.8640 hc        1 990      0.073033
     46 H18         5.5360   -1.2950   -5.0050 hc        1 990      0.073033
@<TRIPOS>BOND
     1    1    2 1   
     2    2    3 ar  
     3    2   13 ar  
     4    3    4 ar  
     5    3   29 1   
     6    4    5 1   
     7    4   15 ar  
     8    5    6 ar  
     9    5   12 ar  
    10    6    7 ar  
    11    7    8 1   
    12    7   10 ar  
    13    8    9 1   
    14    9   30 1   
    15    9   31 1   
    16    9   32 1   
    17   10   11 ar  
    18   10   33 1   
    19   11   12 ar  
    20   11   34 1   
    21   12   35 1   
    22   13   14 ar  
    23   13   36 1   
    24   14   15 ar  
    25   14   37 1   
    26   15   16 1   
    27   16   17 1   
    28   16   20 1   
    29   16   38 1   
    30   17   18 1   
    31   17   39 1   
    32   18   19 2   
    33   18   27 1   
    34   20   21 1   
    35   20   40 1   
    36   20   41 1   
    37   21   22 ar  
    38   21   27 ar  
    39   22   23 ar  
    40   23   24 1   
    41   23   25 ar  
    42   24   42 1   
    43   24   43 1   
    44   25   26 ar  
    45   26   27 ar  
    46   26   28 1   
    47   28   44 1   
    48   28   45 1   
    49   28   46 1   
@<TRIPOS>SUBSTRUCTURE
     1 990         1 TEMP              0 ****  ****    0 ROOT
