@<TRIPOS>MOLECULE
990
   46    49     1     0     0
SMALL
bcc


@<TRIPOS>ATOM
      1 F17         0.2640    1.1090    0.4520 f         1 990     -0.136900
      2 C16         1.5290    0.6330    0.3680 ca        1 990      0.129900
      3 C18         2.3960    0.7520    1.4680 ca        1 990     -0.142000
      4 C8          3.6990    0.2550    1.3810 cp        1 990     -0.105500
      5 C21         4.5620    0.3840    2.5790 cp        1 990      0.479800
      6 N26         4.9930    1.6250    2.9210 nb        1 990     -0.717000
      7 C25         5.7540    1.7180    4.0380 ca        1 990      0.628600
      8 O27         6.2480    2.9300    4.4740 os        1 990     -0.446100
      9 C28         5.9280    4.0920    3.7080 c3        1 990      0.124700
     10 C24         6.1140    0.6110    4.8570 ca        1 990     -0.254300
     11 C23         5.6540   -0.6420    4.4770 ca        1 990     -0.068000
     12 C22         4.8700   -0.7710    3.3250 ca        1 990     -0.274300
     13 C19         1.9740    0.0220   -0.8190 ca        1 990     -0.157000
     14 C20         3.2770   -0.4540   -0.8890 ca        1 990     -0.092000
     15 C7          4.1530   -0.3460    0.1970 ca        1 990     -0.120300
     16 C6          5.5740   -0.8620    0.0750 c3        1 990      0.154000
     17 N9          6.3010   -0.3140   -1.0410 ns        1 990     -0.555900
     18 C1          6.3230   -0.9170   -2.2930 c         1 990      0.726100
     19 O2          6.8050   -0.2700   -3.2480 o         1 990     -0.650500
     20 C5          5.5840   -2.4000    0.0990 c3        1 990     -0.145700
     21 C4          5.4240   -3.0230   -1.2580 ca        1 990      0.526600
     22 N15         4.9440   -4.2790   -1.3180 nb        1 990     -0.777000
     23 C13         4.8470   -4.8430   -2.5900 ca        1 990      0.914900
     24 N14         4.2870   -6.1050   -2.6890 nv        1 990     -0.943500
     25 N12         5.2390   -4.2170   -3.7690 nb        1 990     -0.777000
     26 C10         5.7150   -2.9600   -3.6670 ca        1 990      0.555600
     27 C3          5.8190   -2.2960   -2.4120 ca        1 990     -0.460200
     28 C11         6.1430   -2.2650   -4.9200 c3        1 990     -0.163400
     29 H1          2.0450    1.2420    2.3880 ha        1 990      0.159000
     30 H2          6.4410    4.9110    4.2720 h1        1 990      0.051700
     31 H3          4.8240    4.2560    3.6840 h1        1 990      0.051700
     32 H4          6.3350    4.0050    2.6720 h1        1 990      0.051700
     33 H5          6.7320    0.7710    5.7490 ha        1 990      0.162000
     34 H6          5.9020   -1.5300    5.0780 ha        1 990      0.144000
     35 H7          4.4930   -1.7510    3.0060 ha        1 990      0.150000
     36 H8          1.2920   -0.0680   -1.6770 ha        1 990      0.154000
     37 H9          3.6290   -0.9290   -1.8210 ha        1 990      0.149000
     38 H10         6.1370   -0.5260    1.0040 h1        1 990      0.074700
     39 H11         6.4930    0.6630   -1.0070 hn        1 990      0.324500
     40 H12         4.7810   -2.7490    0.8010 hc        1 990      0.082700
     41 H13         6.5720   -2.7490    0.5100 hc        1 990      0.082700
     42 H14         4.3380   -6.5830   -3.5550 hn        1 990      0.445800
     43 H15         4.1370   -6.6290   -1.8610 hn        1 990      0.445800
     44 H16         7.2300   -2.0080   -4.8380 hc        1 990      0.073033
     45 H17         5.9780   -2.8880   -5.8320 hc        1 990      0.073033
     46 H18         5.5730   -1.3070   -5.0200 hc        1 990      0.073033
@<TRIPOS>BOND
     1    1    2 1   
     2    2    3 ar  
     3    2   13 ar  
     4    3    4 ar  
     5    3   29 1   
     6    4    5 1   
     7    4   15 ar  
     8    5    6 ar  
     9    5   12 ar  
    10    6    7 ar  
    11    7    8 1   
    12    7   10 ar  
    13    8    9 1   
    14    9   30 1   
    15    9   31 1   
    16    9   32 1   
    17   10   11 ar  
    18   10   33 1   
    19   11   12 ar  
    20   11   34 1   
    21   12   35 1   
    22   13   14 ar  
    23   13   36 1   
    24   14   15 ar  
    25   14   37 1   
    26   15   16 1   
    27   16   17 1   
    28   16   20 1   
    29   16   38 1   
    30   17   18 1   
    31   17   39 1   
    32   18   19 2   
    33   18   27 1   
    34   20   21 1   
    35   20   40 1   
    36   20   41 1   
    37   21   22 ar  
    38   21   27 ar  
    39   22   23 ar  
    40   23   24 1   
    41   23   25 ar  
    42   24   42 1   
    43   24   43 1   
    44   25   26 ar  
    45   26   27 ar  
    46   26   28 1   
    47   28   44 1   
    48   28   45 1   
    49   28   46 1   
@<TRIPOS>SUBSTRUCTURE
     1 990         1 TEMP              0 ****  ****    0 ROOT
