@<TRIPOS>MOLECULE
991
   46    38     1     0     0
SMALL
bcc


@<TRIPOS>ATOM
      1 C1         -0.2280    1.6010   -5.1420 c1        1 991     -0.208000
      2 C2         -0.8550    0.3660   -5.2420 c1        1 991     -0.061000
      3 CL2        -1.1750   -0.5050   -6.7190 cl        1 991     -0.044000
      4 C3         -1.2000   -0.3330   -4.0940 c1        1 991     -0.130000
      5 C4         -0.9150    0.2100   -2.8290 c1        1 991      0.005500
      6 C5         -0.2960    1.4300   -2.7300 c1        1 991      0.005500
      7 C6          0.0530    2.1370   -3.8940 c1        1 991     -0.103000
      8 C7          0.0390    2.6070   -6.2410 c2        1 991      0.360000
      9 N1         -0.9080    3.6290   -6.5130 n3        1 991     -0.340000
     10 N2          1.1440    2.5350   -6.9400 n2        1 991     -0.330000
     11 N3         -1.1430   -0.2590   -1.5470 n1        1 991     -0.188000
     12 CN4        -0.1400    1.7180   -1.3920 c1        1 991     -0.323000
     13 C8         -0.6660    0.6690   -0.6650 c2        1 991      0.200000
     14 C1'        -0.7530    0.6720    0.7200 c1        1 991     -0.316000
     15 C2'        -1.7820    1.3560    1.3480 c1        1 991     -0.138500
     16 C3'        -1.8700    1.3570    2.7310 c1        1 991     -0.138500
     17 C4'        -0.9300    0.6730    3.4860 c1        1 991     -0.076000
     18 C5'         0.0990   -0.0110    2.8580 c1        1 991     -0.080000
     19 O5'         1.0100   -0.7630    3.6200 o         1 991     -0.221000
     20 C6'         0.1870   -0.0120    1.4750 c2        1 991      0.297000
     21 O6'         1.2560   -0.6660    0.8400 o         1 991     -0.472000
     22 C1B         1.1660   -3.2650    3.5860 c3        1 991     -0.172000
     23 C2B         0.3710   -1.9270    4.1050 c3        1 991      0.028000
     24 C3B         0.4230   -1.9570    5.4550 c3        1 991     -0.172000
     25 C4B         1.7410   -2.7750    5.8010 c3        1 991     -0.154500
     26 C5B         2.2060   -3.4370    4.4300 c3        1 991     -0.154500
     27 HC3        -1.6410   -1.2010   -4.1650 ha        1 991      0.162000
     28 HC6         0.4940    3.0050   -3.8240 ha        1 991      0.130000
     29 HH11       -1.7070    3.6410   -6.0700 hn        1 991      0.264000
     30 HH12       -0.7270    4.2620   -7.1470 hn        1 991      0.264000
     31 HH21        1.7550    1.8760   -6.7640 DU        1 991      0.248000
     32 HH22        1.3050    3.1440   -7.6040 hn        1 991      0.246000
     33 HN3        -1.5420   -1.0500   -1.3290 DU        1 991      0.248000
     34 HCN4        0.2710    2.5230   -1.0230 DU        1 991      0.248000
     35 HC2'       -2.4440    1.8370    0.8160 ha        1 991      0.111000
     36 HC3'       -2.5950    1.8390    3.1740 ha        1 991      0.111000
     37 HC4'       -0.9930    0.6740    4.4600 ha        1 991      0.125000
     38 H1A         1.4930   -3.1290    2.6730 hc        1 991      0.090000
     39 H1B         0.5730   -4.0440    3.6200 hc        1 991      0.090000
     40 H2A        -0.5610   -1.9510    3.8040 h1        1 991      0.117000
     41 H3A        -0.3660   -2.4130    5.8160 hc        1 991      0.090000
     42 H3B         0.4830   -1.0470    5.8140 hc        1 991      0.090000
     43 H4A         2.4340   -2.1730    6.1380 hc        1 991      0.073250
     44 H4B         1.5450   -3.4690    6.4620 hc        1 991      0.073250
     45 H5A         2.3870   -4.3910    4.5570 hc        1 991      0.073250
     46 H5B         3.0020   -2.9820    4.0860 hc        1 991      0.073250
@<TRIPOS>BOND
     1    1    7 1   
     2    1    8 1   
     3    2    3 1   
     4    2    4 1   
     5    4   27 1   
     6    5    6 1   
     7    7   28 1   
     8    8    9 1   
     9    8   10 1   
    10    9   29 1   
    11    9   30 1   
    12   10   32 1   
    13   11   13 1   
    14   12   13 1   
    15   13   14 1   
    16   14   20 1   
    17   15   16 1   
    18   15   35 1   
    19   16   36 1   
    20   17   18 1   
    21   17   37 1   
    22   18   20 1   
    23   19   23 1   
    24   20   21 1   
    25   22   23 1   
    26   22   26 1   
    27   22   38 1   
    28   22   39 1   
    29   23   24 1   
    30   23   40 1   
    31   24   25 1   
    32   24   41 1   
    33   24   42 1   
    34   25   26 1   
    35   25   43 1   
    36   25   44 1   
    37   26   45 1   
    38   26   46 1   
@<TRIPOS>SUBSTRUCTURE
     1 991         1 TEMP              0 ****  ****    0 ROOT
