@<TRIPOS>MOLECULE
991
   46    49     1     0     0
SMALL
bcc


@<TRIPOS>ATOM
      1 C1          4.7640    0.2370   -0.2440 ca        1 991     -0.288900
      2 C2          4.3510   -1.1130   -0.2990 ca        1 991      0.015400
      3 CL2         5.4990   -2.3800   -0.3570 cl        1 991     -0.124400
      4 C3          3.0060   -1.4680   -0.2480 ca        1 991     -0.131000
      5 C4          2.0580   -0.4460   -0.1510 ca        1 991      0.039000
      6 C5          2.4680    0.9680   -0.0890 ca        1 991     -0.023000
      7 C6          3.8170    1.2740   -0.1310 ca        1 991     -0.110000
      8 C7          6.1840    0.6160   -0.3010 ce        1 991      0.536400
      9 N1          6.9860    0.0880   -1.2600 nh        1 991     -0.489100
     10 N2          6.6460    1.5250    0.5970 nh        1 991     -0.473200
     11 N3          0.6820   -0.4880   -0.0950 na        1 991     -0.214600
     12 CN4         1.2780    1.7330    0.0070 cc        1 991     -0.328000
     13 C8          0.1720    0.8280    0.0050 cc        1 991      0.174900
     14 C1'        -1.2110    1.1210    0.0910 cd        1 991     -0.339200
     15 C2'        -1.6150    2.4830    0.1750 cd        1 991     -0.040000
     16 C3'        -2.9270    2.8490    0.2680 cc        1 991     -0.232000
     17 C4'        -3.9430    1.8530    0.2900 cc        1 991     -0.139000
     18 C5'        -3.6050    0.5330    0.2030 cd        1 991     -0.030100
     19 O5'        -4.5200   -0.5060    0.2770 os        1 991     -0.310900
     20 C6'        -2.2100    0.0720    0.0910 c         1 991      0.591500
     21 O6'        -1.9450   -1.1540   -0.0010 o         1 991     -0.681100
     22 C1B        -6.3440   -1.5740   -0.8120 c3        1 991     -0.095900
     23 C2B        -5.8080   -0.2350   -0.2900 c3        1 991      0.139100
     24 C3B        -6.7870    0.2580    0.7840 c3        1 991     -0.095900
     25 C4B        -7.9480   -0.7230    0.8350 c3        1 991     -0.076400
     26 C5B        -7.7740   -1.7050   -0.3150 c3        1 991     -0.076400
     27 HC3         2.7000   -2.5240   -0.2770 ha        1 991      0.161000
     28 HC6         4.1310    2.3270   -0.1160 ha        1 991      0.129000
     29 HH11        6.5960   -0.5950   -1.8760 hn        1 991      0.313450
     30 HH12        7.9640    0.2540   -1.2980 hn        1 991      0.313450
     31 HH21        7.5710    1.8830    0.5820 hn        1 991      0.313450
     32 HH22        6.0020    1.8880    1.2680 hn        1 991      0.313450
     33 HN3         0.0990   -1.2990   -0.1070 hn        1 991      0.350700
     34 HCN4        1.2100    2.8120    0.0710 ha        1 991      0.157000
     35 HC2'       -0.8350    3.2600    0.1600 ha        1 991      0.106000
     36 HC3'       -3.2230    3.9030    0.3290 ha        1 991      0.115000
     37 HC4'       -4.9930    2.1670    0.3770 ha        1 991      0.120000
     38 H1A        -6.2950   -1.6040   -1.9270 hc        1 991      0.053700
     39 H1B        -5.7060   -2.4080   -0.4190 hc        1 991      0.053700
     40 H2A        -5.7170    0.5130   -1.1210 h1        1 991      0.047700
     41 H3A        -6.2670    0.3140    1.7740 hc        1 991      0.053700
     42 H3B        -7.1490    1.2850    0.5300 hc        1 991      0.053700
     43 H4A        -8.9270   -0.1880    0.7540 hc        1 991      0.036200
     44 H4B        -7.9470   -1.2700    1.8120 hc        1 991      0.036200
     45 H5A        -8.4940   -1.4660   -1.1390 hc        1 991      0.036200
     46 H5B        -7.9850   -2.7510    0.0180 hc        1 991      0.036200
@<TRIPOS>BOND
     1    1    2 ar  
     2    1    7 ar  
     3    1    8 1   
     4    2    3 1   
     5    2    4 ar  
     6    4    5 ar  
     7    4   27 1   
     8    5    6 ar  
     9    5   11 2   
    10    6    7 ar  
    11    6   12 2   
    12    7   28 1   
    13    8    9 2   
    14    8   10 1   
    15    9   29 1   
    16    9   30 1   
    17   10   31 1   
    18   10   32 1   
    19   11   13 1   
    20   11   33 1   
    21   12   13 1   
    22   12   34 1   
    23   13   14 2   
    24   14   15 1   
    25   14   20 1   
    26   15   16 2   
    27   15   35 1   
    28   16   17 1   
    29   16   36 1   
    30   17   18 2   
    31   17   37 1   
    32   18   19 1   
    33   18   20 1   
    34   19   23 1   
    35   20   21 2   
    36   22   23 1   
    37   22   26 1   
    38   22   38 1   
    39   22   39 1   
    40   23   24 1   
    41   23   40 1   
    42   24   25 1   
    43   24   41 1   
    44   24   42 1   
    45   25   26 1   
    46   25   43 1   
    47   25   44 1   
    48   26   45 1   
    49   26   46 1   
@<TRIPOS>SUBSTRUCTURE
     1 991         1 TEMP              0 ****  ****    0 ROOT
