@<TRIPOS>MOLECULE
992
   48    52     1     0     0
SMALL
bcc


@<TRIPOS>ATOM
      1 C6         -0.5970    0.2940    0.3510 ca        1 992     -0.098800
      2 C21         0.6500    0.8600    0.6100 ca        1 992     -0.059000
      3 C5         -0.8520   -1.0810    0.7170 ca        1 992     -0.041200
      4 N7         -2.1590   -1.4010    0.3220 na        1 992     -0.086400
      5 C4          0.1420   -1.8530    1.3370 ca        1 992     -0.153000
      6 C3          1.3670   -1.2560    1.5830 ca        1 992     -0.094000
      7 C2          1.6320    0.0850    1.2240 cp        1 992     -0.054000
      8 C1         -2.8570   -2.5980    0.6400 c3        1 992      0.035600
      9 C7          2.9470    0.6520    1.5410 cp        1 992     -0.056000
     10 C10         3.8000    1.1610    0.5370 ca        1 992      0.028400
     11 C11         5.0520    1.7030    0.8230 ca        1 992     -0.122000
     12 C12         5.4490    1.7290    2.1600 ca        1 992     -0.064200
     13 C13         4.5920    1.2060    3.2160 ca        1 992      0.079400
     14 C14         3.3480    0.6690    2.8800 ca        1 992     -0.074000
     15 N21         6.6110    2.1820    2.7880 na        1 992     -0.293300
     16 N22         5.2220    1.3570    4.4690 nc        1 992     -0.592100
     17 C23         6.4170    1.9370    4.1700 cd        1 992      0.628100
     18 O25         7.3760    2.1860    5.1300 os        1 992     -0.296700
     19 C26         8.1900    3.3050    4.8640 ca        1 992      0.013100
     20 C27         7.9820    4.4570    5.6280 ca        1 992     -0.135000
     21 C28         8.8430    5.5360    5.4440 ca        1 992     -0.156000
     22 C29         9.8770    5.4850    4.4980 ca        1 992     -0.036300
     23 C30        10.0630    4.3230    3.7290 ca        1 992     -0.116600
     24 C31         9.2270    3.2220    3.9320 ca        1 992     -0.126000
     25 C32        10.7700    6.6520    4.3180 c3        1 992     -0.050800
     26 Cl1         3.3290    1.1100   -1.1040 cl        1 992     -0.110400
     27 C8         -1.8150    0.7910   -0.2530 cc        1 992     -0.179200
     28 C9         -2.7360   -0.2490   -0.2380 cd        1 992     -0.118100
     29 C18        11.1180    4.2090    2.6300 c         1 992      0.911200
     30 O19        10.8480    3.4280    1.6730 o         1 992     -0.821300
     31 O20        12.1780    4.8840    2.7280 o         1 992     -0.821300
     32 H21         0.8540    1.9030    0.3290 ha        1 992      0.144000
     33 H8         -1.9640    1.7920   -0.6450 ha        1 992      0.154000
     34 H4         -0.0440   -2.8980    1.6180 ha        1 992      0.127000
     35 H11C       -3.6680   -2.7730   -0.1160 h1        1 992      0.043367
     36 H12C       -2.1430   -3.4650    0.6250 h1        1 992      0.043367
     37 H13C       -3.3230   -2.5360    1.6620 h1        1 992      0.043367
     38 H9         -3.7640   -0.2720   -0.6010 h4        1 992      0.157000
     39 H3          2.1660   -1.8370    2.0720 ha        1 992      0.138000
     40 H14         2.6850    0.2680    3.6610 ha        1 992      0.149000
     41 H11         5.7040    2.0910    0.0280 ha        1 992      0.157000
     42 HA          7.3900    2.6280    2.3690 hn        1 992      0.340700
     43 H27         7.1630    4.4970    6.3590 ha        1 992      0.132000
     44 H31         9.4070    2.3080    3.3420 ha        1 992      0.163000
     45 H28         8.7020    6.4450    6.0460 ha        1 992      0.118000
     46 H321       11.8140    6.3710    4.6150 hc        1 992      0.050033
     47 H322       10.8130    6.9370    3.2360 hc        1 992      0.050033
     48 H323       10.4320    7.5280    4.9220 hc        1 992      0.050033
@<TRIPOS>BOND
     1    1    2 ar  
     2    1    3 ar  
     3    1   27 1   
     4    2    7 ar  
     5    2   32 1   
     6    3    4 1   
     7    3    5 ar  
     8    4    8 1   
     9    4   28 1   
    10    5    6 ar  
    11    5   34 1   
    12    6    7 ar  
    13    6   39 1   
    14    7    9 1   
    15    8   35 1   
    16    8   36 1   
    17    8   37 1   
    18    9   10 ar  
    19    9   14 ar  
    20   10   11 ar  
    21   10   26 1   
    22   11   12 ar  
    23   11   41 1   
    24   12   13 ar  
    25   12   15 1   
    26   13   14 ar  
    27   13   16 1   
    28   14   40 1   
    29   15   17 1   
    30   15   42 1   
    31   16   17 2   
    32   17   18 1   
    33   18   19 1   
    34   19   20 ar  
    35   19   24 ar  
    36   20   21 ar  
    37   20   43 1   
    38   21   22 ar  
    39   21   45 1   
    40   22   23 ar  
    41   22   25 1   
    42   23   24 ar  
    43   23   29 1   
    44   24   44 1   
    45   25   46 1   
    46   25   47 1   
    47   25   48 1   
    48   27   28 2   
    49   27   33 1   
    50   28   38 1   
    51   29   30 1   
    52   29   31 1   
@<TRIPOS>SUBSTRUCTURE
     1 992         1 TEMP              0 ****  ****    0 ROOT
