@<TRIPOS>MOLECULE
992
   48    52     1     0     0
SMALL
bcc


@<TRIPOS>ATOM
      1 C6         -0.5630    0.2430    0.3040 ca        1 992     -0.098800
      2 C21         0.6770    0.8190    0.5720 ca        1 992     -0.059000
      3 C5         -0.8150   -1.1290    0.6820 ca        1 992     -0.041200
      4 N7         -2.1150   -1.4610    0.2730 na        1 992     -0.085400
      5 C4          0.1760   -1.8880    1.3240 ca        1 992     -0.153000
      6 C3          1.3940   -1.2810    1.5800 ca        1 992     -0.094000
      7 C2          1.6550    0.0580    1.2090 cp        1 992     -0.054000
      8 C1         -2.8100   -2.6590    0.5960 c3        1 992      0.035600
      9 C7          2.9630    0.6360    1.5370 cp        1 992     -0.056000
     10 C10         3.8270    1.1370    0.5370 ca        1 992      0.028400
     11 C11         5.0710    1.6910    0.8350 ca        1 992     -0.122000
     12 C12         5.4500    1.7340    2.1760 ca        1 992     -0.064200
     13 C13         4.5820    1.2200    3.2270 ca        1 992      0.079400
     14 C14         3.3450    0.6720    2.8800 ca        1 992     -0.074000
     15 N21         6.6010    2.2020    2.8140 na        1 992     -0.293300
     16 N22         5.1940    1.3890    4.4860 nc        1 992     -0.592100
     17 C23         6.3890    1.9720    4.1970 cd        1 992      0.628100
     18 O25         7.3340    2.2380    5.1660 os        1 992     -0.296700
     19 C26         8.1470    3.3580    4.8960 ca        1 992      0.013100
     20 C27         7.9230    4.5190    5.6430 ca        1 992     -0.135000
     21 C28         8.7820    5.5990    5.4570 ca        1 992     -0.156000
     22 C29         9.8290    5.5400    4.5260 ca        1 992     -0.036300
     23 C30        10.0300    4.3700    3.7740 ca        1 992     -0.116600
     24 C31         9.1970    3.2680    3.9790 ca        1 992     -0.126000
     25 C32        10.7200    6.7090    4.3430 c3        1 992     -0.050800
     26 CL1         3.3780    1.0640   -1.1090 cl        1 992     -0.110400
     27 C8         -1.7750    0.7260   -0.3220 cc        1 992     -0.179200
     28 C9         -2.6900   -0.3190   -0.3090 cd        1 992     -0.118100
     29 C18        11.1010    4.2460    2.6910 c         1 992      0.911200
     30 O19        10.8480    3.4520    1.7410 o         1 992     -0.821300
     31 O20        12.1560    4.9270    2.7950 o         1 992     -0.821300
     32 H21         0.8790    1.8610    0.2820 ha        1 992      0.144000
     33 H8         -1.9250    1.7210   -0.7280 ha        1 992      0.154000
     34 H4         -0.0090   -2.9310    1.6140 ha        1 992      0.127000
     35 H11C       -3.6100   -2.8470   -0.1690 h1        1 992      0.043367
     36 H12C       -2.0910   -3.5220    0.6000 h1        1 992      0.043367
     37 H13C       -3.2900   -2.5880    1.6100 h1        1 992      0.043367
     38 H9         -3.7130   -0.3530   -0.6850 h4        1 992      0.157000
     39 H3          2.1890   -1.8510    2.0860 ha        1 992      0.138000
     40 H14         2.6750    0.2760    3.6570 ha        1 992      0.149000
     41 H11         5.7320    2.0720    0.0430 ha        1 992      0.157000
     42 HA          7.3840    2.6460    2.4010 hn        1 992      0.340700
     43 H27         7.0950    4.5640    6.3620 ha        1 992      0.132000
     44 H31         9.3880    2.3470    3.4040 ha        1 992      0.163000
     45 H28         8.6280    6.5150    6.0460 ha        1 992      0.118000
     46 H321       11.7600    6.4360    4.6580 hc        1 992      0.050033
     47 H322       10.7760    6.9800    3.2590 hc        1 992      0.050033
     48 H323       10.3690    7.5910    4.9310 hc        1 992      0.050033
@<TRIPOS>BOND
     1    1    2 ar  
     2    1    3 ar  
     3    1   27 1   
     4    2    7 ar  
     5    2   32 1   
     6    3    4 1   
     7    3    5 ar  
     8    4    8 1   
     9    4   28 1   
    10    5    6 ar  
    11    5   34 1   
    12    6    7 ar  
    13    6   39 1   
    14    7    9 1   
    15    8   35 1   
    16    8   36 1   
    17    8   37 1   
    18    9   10 ar  
    19    9   14 ar  
    20   10   11 ar  
    21   10   26 1   
    22   11   12 ar  
    23   11   41 1   
    24   12   13 ar  
    25   12   15 1   
    26   13   14 ar  
    27   13   16 1   
    28   14   40 1   
    29   15   17 1   
    30   15   42 1   
    31   16   17 2   
    32   17   18 1   
    33   18   19 1   
    34   19   20 ar  
    35   19   24 ar  
    36   20   21 ar  
    37   20   43 1   
    38   21   22 ar  
    39   21   45 1   
    40   22   23 ar  
    41   22   25 1   
    42   23   24 ar  
    43   23   29 1   
    44   24   44 1   
    45   25   46 1   
    46   25   47 1   
    47   25   48 1   
    48   27   28 2   
    49   27   33 1   
    50   28   38 1   
    51   29   30 1   
    52   29   31 1   
@<TRIPOS>SUBSTRUCTURE
     1 992         1 TEMP              0 ****  ****    0 ROOT
