@<TRIPOS>MOLECULE
992
   48    52     1     0     0
SMALL
bcc


@<TRIPOS>ATOM
      1 C6          5.6090   -1.3630   -0.6580 ca        1 992     -0.098800
      2 C21         4.2320   -1.1640   -0.7460 ca        1 992     -0.059000
      3 C5          6.3610   -0.7230    0.3980 ca        1 992     -0.041200
      4 N7          7.7120   -1.0630    0.2360 na        1 992     -0.086400
      5 C4          5.7180    0.0940    1.3410 ca        1 992     -0.153000
      6 C3          4.3490    0.2640    1.2260 ca        1 992     -0.094000
      7 C2          3.6020   -0.3500    0.1940 cp        1 992     -0.054000
      8 C1          8.7590   -0.7750    1.1540 c3        1 992      0.035600
      9 C7          2.1520   -0.1410    0.1550 cp        1 992     -0.056000
     10 C10         1.5140    0.4450   -0.9620 ca        1 992      0.028400
     11 C11         0.1360    0.6490   -1.0140 ca        1 992     -0.122000
     12 C12        -0.6130    0.2540    0.0940 ca        1 992     -0.064200
     13 C13         0.0180   -0.3470    1.2620 ca        1 992      0.079400
     14 C14         1.4030   -0.5300    1.2690 ca        1 992     -0.074000
     15 N21        -1.9790    0.3150    0.3770 na        1 992     -0.293300
     16 N22        -0.9570   -0.6600    2.2320 nc        1 992     -0.592100
     17 C23        -2.1260   -0.2490    1.6690 cd        1 992      0.628100
     18 O25        -3.3300   -0.3110    2.3410 os        1 992     -0.296700
     19 C26        -4.4520   -0.5000    1.5090 ca        1 992      0.013100
     20 C27        -5.0640   -1.7570    1.5200 ca        1 992     -0.135000
     21 C28        -6.2310   -1.9290    0.7800 ca        1 992     -0.156000
     22 C29        -6.7690   -0.8800    0.0200 ca        1 992     -0.036300
     23 C30        -6.1320    0.3730    0.0100 ca        1 992     -0.116600
     24 C31        -4.9810    0.5660    0.7780 ca        1 992     -0.126000
     25 C32        -8.0060   -1.0970   -0.7650 c3        1 992     -0.050800
     26 CL1         2.4290    0.9530   -2.3110 cl        1 992     -0.110400
     27 C8          6.5610   -2.1230   -1.4390 cc        1 992     -0.179200
     28 C9          7.8100   -1.9320   -0.8630 cd        1 992     -0.118100
     29 C18        -6.6090    1.5460   -0.8440 c         1 992      0.911200
     30 O19        -5.7220    2.3630   -1.2200 o         1 992     -0.821300
     31 O20        -7.8340    1.6380   -1.1260 o         1 992     -0.821300
     32 H21         3.6530   -1.6430   -1.5490 ha        1 992      0.144000
     33 H8          6.3280   -2.7220   -2.3130 ha        1 992      0.154000
     34 H4          6.2830    0.5840    2.1450 ha        1 992      0.127000
     35 H11C        8.8010   -1.5420    1.9760 h1        1 992      0.043367
     36 H12C        9.7430   -0.7730    0.6130 h1        1 992      0.043367
     37 H13C        8.5880    0.2350    1.6150 h1        1 992      0.043367
     38 H9          8.7810   -2.3340   -1.1570 h4        1 992      0.157000
     39 H3          3.8170    0.8960    1.9540 ha        1 992      0.138000
     40 H14         1.9000   -0.9800    2.1410 ha        1 992      0.149000
     41 H11        -0.3420    1.1100   -1.8900 ha        1 992      0.157000
     42 HA         -2.7050    0.6380   -0.2140 hn        1 992      0.340700
     43 H27        -4.6330   -2.5790    2.1070 ha        1 992      0.132000
     44 H31        -4.5120    1.5640    0.7830 ha        1 992      0.163000
     45 H28        -6.7330   -2.9070    0.7880 ha        1 992      0.118000
     46 H321       -8.8230   -0.4460   -0.3580 hc        1 992      0.050033
     47 H322       -7.8450   -0.7800   -1.8270 hc        1 992      0.050033
     48 H323       -8.3300   -2.1650   -0.7390 hc        1 992      0.050033
@<TRIPOS>BOND
     1    1    2 ar  
     2    1    3 ar  
     3    1   27 1   
     4    2    7 ar  
     5    2   32 1   
     6    3    4 1   
     7    3    5 ar  
     8    4    8 1   
     9    4   28 1   
    10    5    6 ar  
    11    5   34 1   
    12    6    7 ar  
    13    6   39 1   
    14    7    9 1   
    15    8   35 1   
    16    8   36 1   
    17    8   37 1   
    18    9   10 ar  
    19    9   14 ar  
    20   10   11 ar  
    21   10   26 1   
    22   11   12 ar  
    23   11   41 1   
    24   12   13 ar  
    25   12   15 1   
    26   13   14 ar  
    27   13   16 1   
    28   14   40 1   
    29   15   17 1   
    30   15   42 1   
    31   16   17 2   
    32   17   18 1   
    33   18   19 1   
    34   19   20 ar  
    35   19   24 ar  
    36   20   21 ar  
    37   20   43 1   
    38   21   22 ar  
    39   21   45 1   
    40   22   23 ar  
    41   22   25 1   
    42   23   24 ar  
    43   23   29 1   
    44   24   44 1   
    45   25   46 1   
    46   25   47 1   
    47   25   48 1   
    48   27   28 2   
    49   27   33 1   
    50   28   38 1   
    51   29   30 1   
    52   29   31 1   
@<TRIPOS>SUBSTRUCTURE
     1 992         1 TEMP              0 ****  ****    0 ROOT
