@<TRIPOS>MOLECULE
992
   48    36     1     0     0
SMALL
bcc


@<TRIPOS>ATOM
      1 C6         -3.3890   -1.3140   -2.5100 c1        1 992     -0.062500
      2 C21        -2.0000   -1.0620   -2.4170 c1        1 992     -0.014000
      3 C5         -4.1940   -1.1640   -1.3970 c1        1 992     -0.062500
      4 N7         -5.4980   -1.4490   -1.7700 n1        1 992     -0.133000
      5 C4         -3.6290   -0.7580   -0.1630 c1        1 992     -0.051500
      6 C3         -2.2600   -0.5110   -0.0710 c1        1 992     -0.051500
      7 C2         -1.4430   -0.6620   -1.1990 c1        1 992     -0.149000
      8 C1         -6.6200   -2.1440   -1.2070 c2        1 992     -0.074000
      9 C7         -2.7360   -1.0460   -0.5790 c2        1 992     -0.213000
     10 C10        -2.1110   -2.1730   -0.0550 c1        1 992      0.066000
     11 C11        -0.7530   -2.1350    0.2630 c1        1 992     -0.219000
     12 C12        -0.0080   -0.9450    0.0510 c1        1 992      0.081000
     13 C13        -0.6230    0.1660   -0.4650 c1        1 992      0.035000
     14 C14        -2.0030    0.1260   -0.7870 c2        1 992     -0.088000
     15 N21         1.2970   -0.6380    0.2680 n1        1 992     -0.261000
     16 N22         0.3070    1.1510   -0.5630 n1        1 992     -0.261000
     17 C23         1.4950    0.6560   -0.1110 c1        1 992      0.205000
     18 O25         2.5360    1.4570   -0.6450 o         1 992     -0.119000
     19 C26         3.4100    1.8490    0.3950 c2        1 992     -0.021000
     20 C27         3.2470    3.0850    1.0090 c2        1 992     -0.138000
     21 C28         4.1590    3.5110    1.9690 c1        1 992     -0.151000
     22 C29         5.2340    2.6990    2.3150 c1        1 992     -0.034000
     23 C30         5.3970    1.4630    1.7010 c1        1 992     -0.083000
     24 C31         4.4850    1.0370    0.7410 c1        1 992     -0.131000
     25 C32         6.2100    3.1470    3.3990 c3        1 992     -0.191000
     26 CL1        -2.6960   -3.6900    0.5750 cl        1 992     -0.030000
     27 C8         -4.1940   -1.6910   -3.5690 c1        1 992     -0.178000
     28 C9         -5.4990   -1.7740   -3.1060 c1        1 992     -0.143000
     29 C18         6.5480    0.5580    2.1080 c2        1 992      0.361000
     30 O19         6.3800   -0.3110    3.0070 o         1 992     -0.554000
     31 O20         7.6600    0.6460    1.5140 o         1 992     -0.554000
     32 H21        -1.4300   -1.1510   -3.2130 ha        1 992      0.144000
     33 H8         -3.8960   -1.8690   -4.4840 DU        1 992      0.195333
     34 H4         -4.2050   -0.6510    0.6330 ha        1 992      0.124000
     35 H11C       -7.4510   -1.7300   -1.5180 ha        1 992      0.087000
     36 H12C       -6.5970   -3.0860   -1.4890 ha        1 992      0.087000
     37 H13C       -6.5770   -2.0950   -0.2260 ha        1 992      0.087000
     38 H9         -6.2860   -2.0220   -3.6400 DU        1 992      0.195333
     39 H3         -1.8640   -0.2350    0.7930 ha        1 992      0.124000
     40 H14        -2.4520    0.9340   -1.1340 ha        1 992      0.147000
     41 H11        -0.3100   -2.9350    0.6340 ha        1 992      0.157000
     42 HA          1.9360   -1.2060    0.6110 DU        1 992      0.195333
     43 H27         2.5180    3.6790    0.7280 ha        1 992      0.130000
     44 H31         4.6000    0.1660    0.3090 ha        1 992      0.157000
     45 H28         4.0430    4.3870    2.4030 ha        1 992      0.117000
     46 H321        6.0850    2.5960    4.2000 hc        1 992      0.091000
     47 H322        7.1300    3.0460    3.0720 hc        1 992      0.091000
     48 H323        6.0430    4.0860    3.6200 hc        1 992      0.091000
@<TRIPOS>BOND
     1    1    3 1   
     2    2    7 1   
     3    2   32 1   
     4    4   28 1   
     5    5    6 1   
     6    5   34 1   
     7    6   39 1   
     8    7    9 1   
     9    8   35 1   
    10    8   36 1   
    11    8   37 1   
    12    9   10 1   
    13    9   14 1   
    14   10   26 1   
    15   11   12 1   
    16   11   41 1   
    17   13   14 1   
    18   14   40 1   
    19   15   17 1   
    20   16   17 1   
    21   18   19 1   
    22   19   20 1   
    23   19   24 1   
    24   20   21 1   
    25   20   43 1   
    26   21   45 1   
    27   22   23 1   
    28   22   25 1   
    29   23   29 1   
    30   24   44 1   
    31   25   46 1   
    32   25   47 1   
    33   25   48 1   
    34   27   28 1   
    35   29   30 1   
    36   29   31 1   
@<TRIPOS>SUBSTRUCTURE
     1 992         1 TEMP              0 ****  ****    0 ROOT
