@<TRIPOS>MOLECULE
993
   55    51     1     0     0
SMALL
bcc


@<TRIPOS>ATOM
      1 C35        -0.5530    5.8160   -1.2440 c3        1 993     -0.113000
      2 N34        -1.3950    4.8650   -0.5250 n3        1 993     -0.234000
      3 C33        -1.7020    5.0860    0.8580 c2        1 993      0.031000
      4 N32        -2.1350    6.3580    1.2880 n1        1 993     -0.168000
      5 C31        -3.0200    6.2240    2.2650 c1        1 993     -0.163500
      6 C30        -3.2250    4.8070    2.5530 c1        1 993     -0.163500
      7 N29        -2.3900    3.9980    1.6700 n2        1 993     -0.171000
      8 C28        -2.6690    2.6560    1.2270 c3        1 993      0.052000
      9 C25        -1.8270    1.6600    2.0470 c2        1 993     -0.138000
     10 C26        -0.7230    0.7770    1.3320 c2        1 993     -0.064000
     11 CL3        -0.4440    0.9480   -0.3650 cl        1 993      0.027000
     12 C24        -2.4830    0.8610    3.1900 c1        1 993     -0.442000
     13 S23        -1.7850   -0.7110    3.2840 s         1 993      0.780000
     14 C22        -0.6510   -0.6220    1.9940 c2        1 993     -0.472000
     15 C20        -0.3860   -1.8680    1.1270 c2        1 993      0.384000
     16 O21        -0.4950   -2.9590    1.6050 o         1 993     -0.353000
     17 N19        -0.2090   -1.7260   -0.2810 n         1 993     -0.304000
     18 C12        -0.1610   -2.9350   -1.1520 c2        1 993      0.039000
     19 C13        -1.3070   -3.7390   -1.2970 c2        1 993      0.079000
     20 O17        -2.4350   -3.5080   -0.4910 os        1 993     -0.210000
     21 C18        -3.2230   -4.6900   -0.2310 c3        1 993     -0.077000
     22 C14        -1.3240   -4.7670   -2.2410 c1        1 993     -0.182000
     23 C15        -0.2060   -4.9960   -3.0390 c1        1 993     -0.090000
     24 CL2        -0.2530   -6.2340   -4.2710 cl        1 993      0.003000
     25 C16         0.9360   -4.1960   -2.8960 c1        1 993     -0.075000
     26 C11         0.9560   -3.1680   -1.9530 c1        1 993     -0.063000
     27 C9          2.2750   -2.4080   -1.6740 c2        1 993      0.364000
     28 O10         3.2470   -2.6100   -2.3760 o         1 993     -0.338000
     29 N7          2.4160   -1.6450   -0.4620 n         1 993     -0.309000
     30 C1          3.7200   -1.1160   -0.0800 c2        1 993      0.122000
     31 C6          4.2410    0.0010   -0.7440 c2        1 993     -0.187000
     32 C5          5.5050    0.4300   -0.4660 c1        1 993     -0.068000
     33 C4          6.2690   -0.2350    0.4680 c1        1 993     -0.090000
     34 CL1         7.9440    0.2380    0.7270 cl        1 993      0.003000
     35 C3          5.7500   -1.3440    1.1260 c1        1 993     -0.075000
     36 N2          4.4790   -1.7760    0.8460 n1        1 993     -0.178000
     37 H351       -0.5570    5.5970   -2.2090 h1        1 993      0.087000
     38 H352        0.3700    5.7630   -0.8990 h1        1 993      0.087000
     39 H353       -0.9010    6.7290   -1.1120 h1        1 993      0.087000
     40 HN34       -1.8050    4.1730   -0.9830 hn        1 993      0.175000
     41 H31        -3.0540    6.8810    2.9860 ha        1 993      0.179000
     42 H30        -4.1160    4.4830    2.8230 ha        1 993      0.179000
     43 H281       -3.6240    2.4590    1.3560 h1        1 993      0.110500
     44 H282       -2.4440    2.5720    0.2800 h1        1 993      0.110500
     45 H24        -3.4350    0.9850    3.3910 ha        1 993      0.204000
     46 HN19       -0.1110   -0.8960   -0.6470 hn        1 993      0.242000
     47 H181       -2.6430   -5.4930   -0.2800 h1        1 993      0.091000
     48 H182       -3.9430   -4.7620   -0.9040 h1        1 993      0.091000
     49 H183       -3.6160   -4.6270    0.6590 h1        1 993      0.091000
     50 H14        -2.1340   -5.3350   -2.3440 ha        1 993      0.159000
     51 H16         1.7240   -4.3600   -3.4620 ha        1 993      0.169500
     52 HN7         1.6940   -1.5130    0.0810 hn        1 993      0.275000
     53 H6          3.6930    0.4780   -1.4150 ha        1 993      0.182000
     54 H5          5.8700    1.2140   -0.9320 ha        1 993      0.154000
     55 H3          6.2950   -1.8190    1.7920 ha        1 993      0.169500
@<TRIPOS>BOND
     1    1    2 1   
     2    1   37 1   
     3    1   38 1   
     4    1   39 1   
     5    2    3 1   
     6    2   40 1   
     7    3    4 1   
     8    3    7 1   
     9    5    6 1   
    10    5   41 1   
    11    6   42 1   
    12    7    8 1   
    13    8    9 1   
    14    8   43 1   
    15    8   44 1   
    16    9   10 1   
    17    9   12 1   
    18   10   11 1   
    19   10   14 1   
    20   12   45 1   
    21   13   14 1   
    22   14   15 1   
    23   15   16 1   
    24   15   17 1   
    25   17   18 1   
    26   17   46 1   
    27   18   19 1   
    28   18   26 1   
    29   19   20 1   
    30   19   22 1   
    31   20   21 1   
    32   21   47 1   
    33   21   48 1   
    34   21   49 1   
    35   22   50 1   
    36   23   24 1   
    37   23   25 1   
    38   25   51 1   
    39   26   27 1   
    40   27   28 1   
    41   27   29 1   
    42   29   30 1   
    43   29   52 1   
    44   30   31 1   
    45   30   36 1   
    46   31   32 1   
    47   31   53 1   
    48   32   54 1   
    49   33   34 1   
    50   33   35 1   
    51   35   55 1   
@<TRIPOS>SUBSTRUCTURE
     1 993         1 TEMP              0 ****  ****    0 ROOT
