@<TRIPOS>MOLECULE
993
   56    59     1     0     0
SMALL
bcc


@<TRIPOS>ATOM
      1 C35         3.2550    2.3680    2.6100 c3        1 993      0.094100
      2 N34         4.3760    1.5020    2.1550 n4        1 993     -0.692700
      3 C33         3.9650    0.1070    2.0320 cc        1 993      0.387400
      4 N32         3.3000   -0.5630    3.0350 nd        1 993     -0.598000
      5 C31         3.0570   -1.8230    2.5380 cd        1 993      0.320200
      6 C30         3.5650   -1.9370    1.2200 cc        1 993     -0.192600
      7 N29         4.1350   -0.7140    0.8860 na        1 993     -0.152900
      8 C28         4.8970   -0.4970   -0.3250 c3        1 993      0.088600
      9 C25         4.7410    0.8310   -0.9640 cc        1 993     -0.188300
     10 C26         5.6830    1.8970   -0.8190 cc        1 993     -0.038600
     11 CL3         7.1010    1.7780    0.0720 cl        1 993     -0.024400
     12 C24         3.7270    1.1990   -1.8410 cd        1 993     -0.181100
     13 S23         3.9150    2.7280   -2.4160 ss        1 993      0.313200
     14 C22         5.2870    3.0230   -1.5400 cd        1 993     -0.227700
     15 C20         6.0080    4.3190   -1.4260 c         1 993      0.717700
     16 O21         6.7110    4.7930   -2.3250 o         1 993     -0.518100
     17 N19         5.7920    4.9200   -0.1880 n         1 993     -0.466100
     18 C12         6.5690    5.9430    0.3780 ca        1 993      0.080600
     19 C13         6.7710    7.1900   -0.2730 ca        1 993      0.126100
     20 O17         6.1170    7.4180   -1.4680 os        1 993     -0.327900
     21 C18         6.9660    7.8000   -2.5560 c3        1 993      0.112700
     22 C14         7.5090    8.2090    0.3390 ca        1 993     -0.117000
     23 C15         8.0330    8.0150    1.6180 ca        1 993      0.023400
     24 CL2         8.9030    9.2570    2.3700 cl        1 993     -0.043400
     25 C16         7.8390    6.8030    2.2870 ca        1 993     -0.101000
     26 C11         7.1270    5.7700    1.6730 ca        1 993     -0.168600
     27 C9          6.9600    4.4760    2.3990 c         1 993      0.724700
     28 O10         5.8690    3.8500    2.4320 o         1 993     -0.722100
     29 N7          8.0800    3.9780    3.0350 n         1 993     -0.528400
     30 C1          8.1140    2.7530    3.7470 ca        1 993      0.508200
     31 C6          6.9870    2.2920    4.4760 ca        1 993     -0.280300
     32 C5          7.0850    1.0980    5.1910 ca        1 993     -0.081000
     33 C4          8.2840    0.3830    5.1610 ca        1 993     -0.119900
     34 CL1         8.4620   -1.0680    5.9990 cl        1 993     -0.033400
     35 C3          9.3640    0.9130    4.4140 ca        1 993      0.443200
     36 N2          9.2960    2.0520    3.7210 nb        1 993     -0.680000
     37 H351        3.6340    3.4280    2.6380 hx        1 993      0.111700
     38 H352        2.3950    2.2730    1.8980 hx        1 993      0.111700
     39 H353        2.9240    2.0540    3.6370 hx        1 993      0.111700
     40 HN34        5.1510    1.5680    2.8420 hn        1 993      0.474800
     41 H31         2.5370   -2.5820    3.1290 h4        1 993      0.080100
     42 H30         3.5540   -2.7840    0.5300 h4        1 993      0.210000
     43 H281        4.5720   -1.2930   -1.0620 h1        1 993      0.100200
     44 H282        5.9900   -0.6740   -0.0840 h1        1 993      0.100200
     45 H24         2.9010    0.5430   -2.1320 h4        1 993      0.200000
     46 HN19        5.2280    4.4210    0.4690 hn        1 993      0.323500
     47 H181        7.5360    8.7270   -2.3090 h1        1 993      0.056367
     48 H182        6.2410    7.9900   -3.3880 h1        1 993      0.056367
     49 H183        7.6550    6.9590   -2.8130 h1        1 993      0.056367
     50 H14         7.6490    9.1690   -0.1850 ha        1 993      0.176000
     51 H16         8.2400    6.6790    3.3060 ha        1 993      0.162000
     52 HN7         8.9590    4.4260    2.8650 hn        1 993      0.357500
     53 H6          6.0660    2.8920    4.5220 ha        1 993      0.160000
     54 H5          6.2300    0.7360    5.7840 ha        1 993      0.164000
     55 H3         10.3400    0.3890    4.3730 h4        1 993      0.057100
     56 H342        4.7290    1.8560    1.2550 hn        1 993      0.474800
@<TRIPOS>BOND
     1    1    2 1   
     2    1   37 1   
     3    1   38 1   
     4    1   39 1   
     5    2    3 1   
     6    2   40 1   
     7    2   56 1   
     8    3    4 2   
     9    3    7 1   
    10    4    5 1   
    11    5    6 2   
    12    5   41 1   
    13    6    7 1   
    14    6   42 1   
    15    7    8 1   
    16    8    9 1   
    17    8   43 1   
    18    8   44 1   
    19    9   10 1   
    20    9   12 2   
    21   10   11 1   
    22   10   14 2   
    23   12   13 1   
    24   12   45 1   
    25   13   14 1   
    26   14   15 1   
    27   15   16 2   
    28   15   17 1   
    29   17   18 1   
    30   17   46 1   
    31   18   19 ar  
    32   18   26 ar  
    33   19   20 1   
    34   19   22 ar  
    35   20   21 1   
    36   21   47 1   
    37   21   48 1   
    38   21   49 1   
    39   22   23 ar  
    40   22   50 1   
    41   23   24 1   
    42   23   25 ar  
    43   25   26 ar  
    44   25   51 1   
    45   26   27 1   
    46   27   28 2   
    47   27   29 1   
    48   29   30 1   
    49   29   52 1   
    50   30   31 ar  
    51   30   36 ar  
    52   31   32 ar  
    53   31   53 1   
    54   32   33 ar  
    55   32   54 1   
    56   33   34 1   
    57   33   35 ar  
    58   35   36 ar  
    59   35   55 1   
@<TRIPOS>SUBSTRUCTURE
     1 993         1 TEMP              0 ****  ****    0 ROOT
