@<TRIPOS>MOLECULE
993
   55    58     1     0     0
SMALL
bcc


@<TRIPOS>ATOM
      1 C35         2.1620    0.4450  -10.5180 c3        1 993      0.146100
      2 N34         2.7800    0.9900   -9.3300 nh        1 993     -0.789900
      3 C33         1.9040    1.8230   -8.5670 cc        1 993      0.544400
      4 N32         1.7360    3.1790   -8.6690 nd        1 993     -0.684000
      5 C31         0.8240    3.5280   -7.6840 cd        1 993      0.295200
      6 C30         0.4090    2.3880   -6.9720 cc        1 993     -0.248600
      7 N29         1.0780    1.3000   -7.5340 na        1 993     -0.184900
      8 C28         0.9990   -0.0590   -7.0780 c3        1 993      0.112600
      9 C25         1.9280   -0.3950   -5.9620 cc        1 993     -0.140300
     10 C26         1.5240   -0.7020   -4.6220 cc        1 993      0.021400
     11 CL3        -0.0740   -0.7130   -4.1140 cl        1 993     -0.039400
     12 C24         3.3060   -0.4750   -6.0880 cd        1 993     -0.162100
     13 S23         4.0450   -0.9070   -4.6800 ss        1 993      0.197200
     14 C22         2.6190   -1.0040   -3.8170 cd        1 993     -0.217700
     15 C20         2.5870   -1.4050   -2.3970 c         1 993      0.727700
     16 O21         3.1700   -2.4250   -1.9880 o         1 993     -0.580100
     17 N19         1.8740   -0.5670   -1.5460 n         1 993     -0.467100
     18 C12         1.8280   -0.7120   -0.1540 ca        1 993      0.107600
     19 C13         2.9860   -1.0060    0.6250 ca        1 993      0.106100
     20 O17         4.2130   -1.0390   -0.0140 os        1 993     -0.327900
     21 C18         4.9740   -2.2280    0.2140 c3        1 993      0.118700
     22 C14         2.9100   -1.1430    2.0130 ca        1 993     -0.128000
     23 C15         1.6890   -0.9610    2.6630 ca        1 993      0.011400
     24 CL2         1.6010   -1.1170    4.3510 cl        1 993     -0.077400
     25 C16         0.5430   -0.6410    1.9340 ca        1 993     -0.099000
     26 C11         0.6100   -0.5220    0.5450 ca        1 993     -0.166600
     27 C9         -0.6300   -0.1500   -0.2060 c         1 993      0.691700
     28 O10        -0.6450    0.8000   -1.0110 o         1 993     -0.593100
     29 N7         -1.7460   -0.9280    0.0750 n         1 993     -0.541400
     30 C1         -3.0170   -0.8030   -0.5240 ca        1 993      0.526200
     31 C6         -3.4220    0.3800   -1.2040 ca        1 993     -0.252300
     32 C5         -4.7030    0.4420   -1.7470 ca        1 993     -0.068000
     33 C4         -5.5580   -0.6550   -1.6100 ca        1 993     -0.135900
     34 CL1        -7.1230   -0.6350   -2.2500 cl        1 993     -0.071400
     35 C3         -5.0850   -1.7910   -0.9180 ca        1 993      0.435200
     36 N2         -3.8620   -1.8810   -0.3890 nb        1 993     -0.704000
     37 H351        1.2700   -0.1690  -10.2240 h1        1 993      0.041033
     38 H352        2.9140   -0.2220  -11.0170 h1        1 993      0.041033
     39 H353        1.8260    1.2250  -11.2540 h1        1 993      0.041033
     40 HN34        3.6020    1.5200   -9.5670 hn        1 993      0.392800
     41 H31         0.5130    4.5620   -7.5400 h4        1 993      0.042100
     42 H30        -0.2890    2.2730   -6.1460 h4        1 993      0.181000
     43 H281        1.2300   -0.7420   -7.9490 h1        1 993      0.077700
     44 H282       -0.0660   -0.2510   -6.7520 h1        1 993      0.077700
     45 H24         3.8410   -0.2690   -7.0190 h4        1 993      0.199000
     46 HN19        1.3030    0.1540   -1.9390 hn        1 993      0.355500
     47 H181        5.8570   -2.1000   -0.4600 h1        1 993      0.049033
     48 H182        4.3850   -3.1310   -0.0750 h1        1 993      0.049033
     49 H183        5.2950   -2.2830    1.2820 h1        1 993      0.049033
     50 H14         3.8220   -1.3750    2.5870 ha        1 993      0.162000
     51 H16        -0.4110   -0.4710    2.4590 ha        1 993      0.158000
     52 HN7        -1.6000   -1.7380    0.6430 hn        1 993      0.341500
     53 H6         -2.7410    1.2390   -1.3060 ha        1 993      0.184000
     54 H5         -5.0310    1.3500   -2.2760 ha        1 993      0.156000
     55 H3         -5.7270   -2.6820   -0.7820 h4        1 993      0.038100
@<TRIPOS>BOND
     1    1    2 1   
     2    1   37 1   
     3    1   38 1   
     4    1   39 1   
     5    2    3 1   
     6    2   40 1   
     7    3    4 2   
     8    3    7 1   
     9    4    5 1   
    10    5    6 2   
    11    5   41 1   
    12    6    7 1   
    13    6   42 1   
    14    7    8 1   
    15    8    9 1   
    16    8   43 1   
    17    8   44 1   
    18    9   10 1   
    19    9   12 2   
    20   10   11 1   
    21   10   14 2   
    22   12   13 1   
    23   12   45 1   
    24   13   14 1   
    25   14   15 1   
    26   15   16 2   
    27   15   17 1   
    28   17   18 1   
    29   17   46 1   
    30   18   19 ar  
    31   18   26 ar  
    32   19   20 1   
    33   19   22 ar  
    34   20   21 1   
    35   21   47 1   
    36   21   48 1   
    37   21   49 1   
    38   22   23 ar  
    39   22   50 1   
    40   23   24 1   
    41   23   25 ar  
    42   25   26 ar  
    43   25   51 1   
    44   26   27 1   
    45   27   28 2   
    46   27   29 1   
    47   29   30 1   
    48   29   52 1   
    49   30   31 ar  
    50   30   36 ar  
    51   31   32 ar  
    52   31   53 1   
    53   32   33 ar  
    54   32   54 1   
    55   33   34 1   
    56   33   35 ar  
    57   35   36 ar  
    58   35   55 1   
@<TRIPOS>SUBSTRUCTURE
     1 993         1 TEMP              0 ****  ****    0 ROOT
