@<TRIPOS>MOLECULE
993
   56    59     1     0     0
SMALL
bcc


@<TRIPOS>ATOM
      1 C35         3.2260    2.3830    2.5560 c3        1 993      0.094100
      2 N34         4.3510    1.5110    2.1230 ny        1 993     -0.692700
      3 C33         3.9370    0.1170    1.9950 cc        1 993      0.387400
      4 N32         3.2480   -0.5470    2.9860 nd        1 993     -0.598000
      5 C31         3.0080   -1.8060    2.4860 cd        1 993      0.320200
      6 C30         3.5440   -1.9260    1.1800 cc        1 993     -0.192600
      7 N29         4.1270   -0.7060    0.8560 na        1 993     -0.152900
      8 C28         4.9150   -0.4970   -0.3400 c3        1 993      0.088600
      9 C25         4.7790    0.8310   -0.9860 cc        1 993     -0.188300
     10 C26         5.7220    1.8930   -0.8230 cc        1 993     -0.038600
     11 Cl3         7.1200    1.7700    0.0980 cl        1 993     -0.024400
     12 C24         3.7850    1.2010   -1.8850 cd        1 993     -0.181100
     13 S23         3.9920    2.7280   -2.4590 ss        1 993      0.313200
     14 C22         5.3460    3.0190   -1.5550 cd        1 993     -0.227700
     15 C20         6.0710    4.3120   -1.4280 c         1 993      0.717700
     16 O21         6.7950    4.7800   -2.3130 o         1 993     -0.518100
     17 N19         5.8320    4.9170   -0.1960 ns        1 993     -0.466100
     18 C12         6.6010    5.9380    0.3830 ca        1 993      0.080600
     19 C13         6.8210    7.1830   -0.2670 ca        1 993      0.126100
     20 O17         6.1940    7.4090   -1.4760 os        1 993     -0.327900
     21 C18         7.0670    7.7860   -2.5470 c3        1 993      0.112700
     22 C14         7.5500    8.2000    0.3590 ca        1 993     -0.117000
     23 C15         8.0460    8.0070    1.6490 ca        1 993      0.023400
     24 Cl2         8.9050    9.2480    2.4160 cl        1 993     -0.043400
     25 C16         7.8330    6.7980    2.3160 ca        1 993     -0.101000
     26 C11         7.1310    5.7660    1.6900 ca        1 993     -0.168600
     27 C9          6.9440    4.4740    2.4160 c         1 993      0.724700
     28 O10         5.8490    3.8530    2.4270 o         1 993     -0.722100
     29 N7          8.0480    3.9740    3.0760 ns        1 993     -0.528400
     30 C1          8.0630    2.7500    3.7910 ca        1 993      0.508200
     31 C6          6.9190    2.2950    4.4980 ca        1 993     -0.280300
     32 C5          6.9980    1.1020    5.2170 ca        1 993     -0.081000
     33 C4          8.1950    0.3830    5.2150 ca        1 993     -0.119900
     34 Cl1         8.3500   -1.0660    6.0590 cl        1 993     -0.033400
     35 C3          9.2920    0.9080    4.4890 ca        1 993      0.443200
     36 N2          9.2430    2.0460    3.7920 nb        1 993     -0.680000
     37 H351        3.6090    3.4420    2.5880 hx        1 993      0.111700
     38 H352        2.3790    2.2910    1.8270 hx        1 993      0.111700
     39 H353        2.8740    2.0730    3.5760 hx        1 993      0.111700
     40 HN34        5.1140    1.5750    2.8250 hn        1 993      0.474800
     41 H31         2.4730   -2.5620    3.0680 h4        1 993      0.080100
     42 H30         3.5440   -2.7750    0.4920 h4        1 993      0.210000
     43 H281        6.0020   -0.6780   -0.0760 h1        1 993      0.100200
     44 H282        4.6020   -1.2930   -1.0810 h1        1 993      0.100200
     45 H24         2.9630    0.5480   -2.1920 h4        1 993      0.200000
     46 HN19        5.2520    4.4210    0.4490 hn        1 993      0.323500
     47 H181        6.3610    7.9760   -3.3940 h1        1 993      0.056367
     48 H182        7.6350    8.7110   -2.2890 h1        1 993      0.056367
     49 H183        7.7590    6.9420   -2.7860 h1        1 993      0.056367
     50 H14         7.7040    9.1590   -0.1650 ha        1 993      0.176000
     51 H16         8.2120    6.6750    3.3440 ha        1 993      0.162000
     52 HN7         8.9320    4.4190    2.9230 hn        1 993      0.357500
     53 H6          5.9990    2.8980    4.5230 ha        1 993      0.160000
     54 H5          6.1290    0.7450    5.7930 ha        1 993      0.164000
     55 H3         10.2670    0.3810    4.4710 h4        1 993      0.057100
     56 H342        4.7230    1.8620    1.2300 hn        1 993      0.474800
@<TRIPOS>BOND
     1    1    2 1   
     2    1   37 1   
     3    1   38 1   
     4    1   39 1   
     5    2    3 1   
     6    2   40 1   
     7    2   56 1   
     8    3    4 2   
     9    3    7 1   
    10    4    5 1   
    11    5    6 2   
    12    5   41 1   
    13    6    7 1   
    14    6   42 1   
    15    7    8 1   
    16    8    9 1   
    17    8   43 1   
    18    8   44 1   
    19    9   10 1   
    20    9   12 2   
    21   10   11 1   
    22   10   14 2   
    23   12   13 1   
    24   12   45 1   
    25   13   14 1   
    26   14   15 1   
    27   15   16 2   
    28   15   17 1   
    29   17   18 1   
    30   17   46 1   
    31   18   19 ar  
    32   18   26 ar  
    33   19   20 1   
    34   19   22 ar  
    35   20   21 1   
    36   21   47 1   
    37   21   48 1   
    38   21   49 1   
    39   22   23 ar  
    40   22   50 1   
    41   23   24 1   
    42   23   25 ar  
    43   25   26 ar  
    44   25   51 1   
    45   26   27 1   
    46   27   28 2   
    47   27   29 1   
    48   29   30 1   
    49   29   52 1   
    50   30   31 ar  
    51   30   36 ar  
    52   31   32 ar  
    53   31   53 1   
    54   32   33 ar  
    55   32   54 1   
    56   33   34 1   
    57   33   35 ar  
    58   35   36 ar  
    59   35   55 1   
@<TRIPOS>SUBSTRUCTURE
     1 993         1 TEMP              0 ****  ****    0 ROOT
