@<TRIPOS>MOLECULE
993
   58    61     1     0     0
SMALL
bcc


@<TRIPOS>ATOM
      1 C35        -0.8470   -1.6430   -0.3410 c3        1 993      0.095100
      2 N34         0.5620   -1.3200   -0.7160 n4        1 993     -0.697700
      3 C33         0.7220    0.0820   -1.0990 cc        1 993      0.379400
      4 N32        -0.2140    0.7810   -1.8210 nd        1 993     -0.552000
      5 C31         0.3100    2.0450   -1.9830 cd        1 993      0.342200
      6 C30         1.5790    2.1340   -1.3590 cc        1 993     -0.187600
      7 N29         1.8570    0.8900   -0.8040 na        1 993     -0.180900
      8 C28         3.0080    0.5260   -0.0150 c3        1 993      0.098600
      9 C25         4.2250    1.3490   -0.2690 cc        1 993     -0.148300
     10 C26         4.8890    2.1560    0.6900 cc        1 993      0.053400
     11 CL3         4.3410    2.3680    2.2590 cl        1 993     -0.009400
     12 C24         4.9310    1.3500   -1.4810 cd        1 993     -0.177100
     13 S23         6.2800    2.2340   -1.4330 ss        1 993      0.442200
     14 C22         6.0730    2.7140    0.1600 cd        1 993     -0.338700
     15 C20         7.0730    3.5240    0.8120 c         1 993      0.616700
     16 O21         8.2600    3.6230    0.5320 o         1 993     -0.414100
     17 N19         6.6000    4.3720    1.9930 n4        1 993     -0.534200
     18 C12         7.3400    5.6210    2.1660 ca        1 993     -0.051400
     19 C13         6.8540    6.7940    1.5260 ca        1 993      0.206100
     20 O17         5.7230    6.6360    0.7720 os        1 993     -0.355900
     21 C18         5.1440    7.8170    0.1860 c3        1 993      0.110700
     22 C14         7.5100    8.0280    1.6880 ca        1 993     -0.140000
     23 C15         8.6460    8.1080    2.4870 ca        1 993      0.092400
     24 CL2         9.4340    9.5710    2.7020 cl        1 993      0.064600
     25 C16         9.1410    6.9510    3.1250 ca        1 993     -0.120000
     26 C11         8.5150    5.7200    2.9630 ca        1 993     -0.101600
     27 C9          9.0420    4.5330    3.6770 c         1 993      0.577700
     28 O10         8.3780    3.5840    4.0790 o         1 993     -0.426100
     29 N7         10.5240    4.5160    3.9540 n4        1 993     -0.634500
     30 C1         11.1100    3.1540    4.0010 ca        1 993      0.415200
     31 C6         11.9050    2.7830    5.1040 ca        1 993     -0.161300
     32 C5         12.4920    1.5120    5.0810 ca        1 993     -0.071000
     33 C4         12.2650    0.6700    3.9870 ca        1 993     -0.042900
     34 CL1        12.9470   -0.8530    3.8980 cl        1 993      0.054600
     35 C3         11.4290    1.1400    2.9320 ca        1 993      0.432200
     36 N2         10.8560    2.3450    2.9290 nb        1 993     -0.652000
     37 H351       -0.8720   -2.7090    0.0150 hx        1 993      0.125700
     38 H352       -1.1890   -0.9480    0.4720 hx        1 993      0.125700
     39 H353       -1.5170   -1.5210   -1.2370 hx        1 993      0.125700
     40 HN34        0.8360   -1.8990   -1.5260 hn        1 993      0.462300
     41 H31        -0.2360    2.8220   -2.5300 h4        1 993      0.097100
     42 H30         2.2700    2.9740   -1.2830 h4        1 993      0.200000
     43 H281        3.2730   -0.5500   -0.2450 h1        1 993      0.084200
     44 H282        2.7240    0.5950    1.0800 h1        1 993      0.084200
     45 H24         4.5940    0.7960   -2.3690 h4        1 993      0.224000
     46 HN19        5.6060    4.6150    1.8390 hn        1 993      0.483800
     47 H181        4.2290    7.4100   -0.3190 h1        1 993      0.085033
     48 H182        4.8680    8.5490    0.9830 h1        1 993      0.085033
     49 H183        5.8490    8.2590   -0.5580 h1        1 993      0.085033
     50 H14         7.1220    8.9340    1.1850 ha        1 993      0.210000
     51 H16        10.0220    7.0760    3.7780 ha        1 993      0.169000
     52 HN7        11.0090    5.0480    3.2140 hn        1 993      0.482300
     53 H6         12.0830    3.4490    5.9640 ha        1 993      0.180000
     54 H5         13.1310    1.1880    5.9250 ha        1 993      0.208000
     55 H3         11.2230    0.5060    2.0450 h4        1 993      0.073100
     56 H342        1.1810   -1.5340    0.0740 hn        1 993      0.462300
     57 H192        6.6650    3.8020    2.8520 hn        1 993      0.483800
     58 H72        10.6970    4.9660    4.8640 hn        1 993      0.482300
@<TRIPOS>BOND
     1    1    2 1   
     2    1   37 1   
     3    1   38 1   
     4    1   39 1   
     5    2    3 1   
     6    2   40 1   
     7    2   56 1   
     8    3    4 2   
     9    3    7 1   
    10    4    5 1   
    11    5    6 2   
    12    5   41 1   
    13    6    7 1   
    14    6   42 1   
    15    7    8 1   
    16    8    9 1   
    17    8   43 1   
    18    8   44 1   
    19    9   10 1   
    20    9   12 2   
    21   10   11 1   
    22   10   14 2   
    23   12   13 1   
    24   12   45 1   
    25   13   14 1   
    26   14   15 1   
    27   15   16 2   
    28   15   17 1   
    29   17   18 1   
    30   17   46 1   
    31   17   57 1   
    32   18   19 ar  
    33   18   26 ar  
    34   19   20 1   
    35   19   22 ar  
    36   20   21 1   
    37   21   47 1   
    38   21   48 1   
    39   21   49 1   
    40   22   23 ar  
    41   22   50 1   
    42   23   24 1   
    43   23   25 ar  
    44   25   26 ar  
    45   25   51 1   
    46   26   27 1   
    47   27   28 2   
    48   27   29 1   
    49   29   30 1   
    50   29   52 1   
    51   29   58 1   
    52   30   31 ar  
    53   30   36 ar  
    54   31   32 ar  
    55   31   53 1   
    56   32   33 ar  
    57   32   54 1   
    58   33   34 1   
    59   33   35 ar  
    60   35   36 ar  
    61   35   55 1   
@<TRIPOS>SUBSTRUCTURE
     1 993         1 TEMP              0 ****  ****    0 ROOT
