@<TRIPOS>MOLECULE
994
   56    59     1     0     0
SMALL
bcc


@<TRIPOS>ATOM
      1 C1         -0.1270   -1.4740   -0.0250 ca        1 994      0.180100
      2 C2          0.3360   -2.3890    0.9760 ca        1 994      0.107600
      3 C3          0.9230   -1.9320    2.1520 ca        1 994     -0.166500
      4 C4          1.0540   -0.5430    2.3460 ca        1 994     -0.078400
      5 C5          0.6210    0.3810    1.3860 ca        1 994     -0.166500
      6 C6          0.0280   -0.0870    0.2080 ca        1 994      0.107600
      7 N9          1.6350   -0.0550    3.6010 n4        1 994     -0.599100
      8 C10         3.1340   -0.0860    3.5480 ca        1 994      0.787900
      9 N11         3.7740    1.0860    3.2350 nb        1 994     -0.706000
     10 C12         5.1530    1.0020    3.1750 cp        1 994      0.789500
     11 N13         5.8390   -0.1690    3.3830 nb        1 994     -0.774000
     12 C14         5.0970   -1.2620    3.6980 ca        1 994      0.739900
     13 N15         3.7390   -1.2940    3.8060 nb        1 994     -0.679000
     14 O17        -0.3870    0.7580   -0.7980 os        1 994     -0.294900
     15 C18        -0.7130    2.0950   -0.4170 c3        1 994      0.103200
     16 O22        -0.6420   -2.0770   -1.1250 os        1 994     -0.268900
     17 C23        -1.3010   -1.2800   -2.1170 c3        1 994      0.113700
     18 O27         0.1590   -3.7090    0.6550 os        1 994     -0.294900
     19 C28         0.4010   -4.6650    1.6870 c3        1 994      0.103200
     20 C32         5.9080    2.2500    2.9070 cp        1 994     -0.260800
     21 C33         5.2520    3.4880    3.1020 ca        1 994     -0.030000
     22 C34         5.9270    4.6860    2.8950 ca        1 994     -0.202300
     23 C35         7.2780    4.6360    2.4980 ca        1 994      0.481200
     24 N36         7.9350    3.4840    2.3040 nb        1 994     -0.655000
     25 C37         7.2700    2.3120    2.4990 ca        1 994      0.541200
     26 N41         8.1000    1.1040    2.2490 n4        1 994     -0.625100
     27 C42         8.4750    0.9580    0.8340 ca        1 994     -0.061400
     28 C43         7.7390    0.0880    0.0090 ca        1 994     -0.094500
     29 C44         8.1280   -0.0750   -1.3170 ca        1 994     -0.103500
     30 C45         9.2300    0.6190   -1.8240 ca        1 994     -0.062000
     31 C46         9.9510    1.4840   -1.0000 ca        1 994     -0.103500
     32 C47         9.5820    1.6640    0.3330 ca        1 994     -0.094500
     33 H3          1.2680   -2.6520    2.9100 ha        1 994      0.163500
     34 H5          0.7330    1.4670    1.5380 ha        1 994      0.163500
     35 HN9         1.3220   -0.6650    4.3750 hn        1 994      0.486800
     36 H14         5.6360   -2.2220    3.8950 h5        1 994      0.116100
     37 H181       -1.3950    2.1090    0.4660 h1        1 994      0.061533
     38 H182       -1.2300    2.4980   -1.3280 h1        1 994      0.061533
     39 H183        0.2220    2.6720   -0.2120 h1        1 994      0.061533
     40 H231       -0.5650   -0.6080   -2.6200 h1        1 994      0.071700
     41 H232       -1.6910   -2.0570   -2.8250 h1        1 994      0.071700
     42 H233       -2.1330   -0.6950   -1.6590 h1        1 994      0.071700
     43 H281        0.0960   -5.6310    1.2040 h1        1 994      0.061533
     44 H282        1.4850   -4.6820    1.9550 h1        1 994      0.061533
     45 H283       -0.2320   -4.4520    2.5820 h1        1 994      0.061533
     46 H33         4.1980    3.5230    3.4270 ha        1 994      0.182000
     47 H34         5.4260    5.6570    3.0430 ha        1 994      0.198000
     48 H35         7.8750    5.5590    2.3280 h4        1 994      0.082100
     49 HN41        7.5920    0.2590    2.5570 hn        1 994      0.481800
     50 H43         6.8730   -0.4720    0.3930 ha        1 994      0.155000
     51 H44         7.5610   -0.7610   -1.9700 ha        1 994      0.175000
     52 H45         9.5300    0.4810   -2.8770 ha        1 994      0.178000
     53 H46        10.8230    2.0310   -1.3990 ha        1 994      0.175000
     54 H47        10.1620    2.3560    0.9680 ha        1 994      0.155000
     55 H92         1.3190    0.9110    3.7740 hn        1 994      0.486800
     56 H412        8.9670    1.1860    2.8040 hn        1 994      0.481800
@<TRIPOS>BOND
     1    1    2 ar  
     2    1    6 ar  
     3    1   16 1   
     4    2    3 ar  
     5    2   18 1   
     6    3    4 ar  
     7    3   33 1   
     8    4    5 ar  
     9    4    7 1   
    10    5    6 ar  
    11    5   34 1   
    12    6   14 1   
    13    7    8 1   
    14    7   35 1   
    15    7   55 1   
    16    8    9 ar  
    17    8   13 ar  
    18    9   10 ar  
    19   10   11 ar  
    20   10   20 1   
    21   11   12 ar  
    22   12   13 ar  
    23   12   36 1   
    24   14   15 1   
    25   15   37 1   
    26   15   38 1   
    27   15   39 1   
    28   16   17 1   
    29   17   40 1   
    30   17   41 1   
    31   17   42 1   
    32   18   19 1   
    33   19   43 1   
    34   19   44 1   
    35   19   45 1   
    36   20   21 ar  
    37   20   25 ar  
    38   21   22 ar  
    39   21   46 1   
    40   22   23 ar  
    41   22   47 1   
    42   23   24 ar  
    43   23   48 1   
    44   24   25 ar  
    45   25   26 1   
    46   26   27 1   
    47   26   49 1   
    48   26   56 1   
    49   27   28 ar  
    50   27   32 ar  
    51   28   29 ar  
    52   28   50 1   
    53   29   30 ar  
    54   29   51 1   
    55   30   31 ar  
    56   30   52 1   
    57   31   32 ar  
    58   31   53 1   
    59   32   54 1   
@<TRIPOS>SUBSTRUCTURE
     1 994         1 TEMP              0 ****  ****    0 ROOT
