@<TRIPOS>MOLECULE
994
   54    57     1     0     0
SMALL
bcc


@<TRIPOS>ATOM
      1 C1          6.6020    1.3870   10.8680 ca        1 994      0.038100
      2 C2          5.7990    0.4310   10.2040 ca        1 994      0.130600
      3 C3          5.9040    0.2370    8.8230 ca        1 994     -0.191000
      4 C4          6.8030    1.0210    8.0750 ca        1 994      0.161600
      5 C5          7.5990    1.9870    8.7240 ca        1 994     -0.191000
      6 C6          7.5050    2.1510   10.1100 ca        1 994      0.130600
      7 N9          6.9880    0.8080    6.6870 nh        1 994     -0.705300
      8 C10         5.9510    0.9120    5.7540 ca        1 994      0.888900
      9 N11         4.6270    0.8050    6.1700 nb        1 994     -0.749000
     10 C12         3.6960    0.8490    5.1700 cp        1 994      0.748500
     11 N13         3.9740    0.9910    3.8310 nb        1 994     -0.751000
     12 C14         5.2990    1.0900    3.5410 ca        1 994      0.681900
     13 N15         6.3300    1.0670    4.4150 nb        1 994     -0.775000
     14 O17         8.4000    3.0290   10.7000 os        1 994     -0.330400
     15 C18         7.7910    4.1540   11.3350 c3        1 994      0.112200
     16 O22         6.4410    1.6640   12.2140 os        1 994     -0.329900
     17 C23         6.8810    0.6150   13.0790 c3        1 994      0.116700
     18 O27         4.9570   -0.2970   11.0180 os        1 994     -0.330400
     19 C28         4.0620   -1.1950   10.3660 c3        1 994      0.112200
     20 C32         2.2670    0.7720    5.5610 cp        1 994     -0.314800
     21 C33         1.4400    1.8630    5.2810 ca        1 994     -0.020000
     22 C34         0.1000    1.8230    5.6570 ca        1 994     -0.296300
     23 C35        -0.3650    0.6660    6.3060 ca        1 994      0.448200
     24 N36         0.3870   -0.4070    6.5760 nb        1 994     -0.715000
     25 C37         1.7120   -0.3780    6.2140 ca        1 994      0.680200
     26 N41         2.5490   -1.4660    6.5100 nh        1 994     -0.715300
     27 C42         2.0520   -2.7210    6.9370 ca        1 994      0.131600
     28 C43         2.4460   -3.8960    6.2560 ca        1 994     -0.143500
     29 C44         2.0380   -5.1430    6.7170 ca        1 994     -0.115500
     30 C45         1.2300   -5.2510    7.8480 ca        1 994     -0.143000
     31 C46         0.8370   -4.0980    8.5240 ca        1 994     -0.115500
     32 C47         1.2430   -2.8400    8.0860 ca        1 994     -0.143500
     33 H3          5.2780   -0.5190    8.3250 ha        1 994      0.160000
     34 H5          8.3170    2.6110    8.1700 ha        1 994      0.160000
     35 HN9         7.8950    1.0630    6.3460 hn        1 994      0.451800
     36 H14         5.5670    1.2080    2.4690 h5        1 994      0.061100
     37 H181        7.2560    4.7780   10.5790 h1        1 994      0.049533
     38 H182        8.6620    4.7110   11.7650 h1        1 994      0.049533
     39 H183        7.0900    3.8250   12.1390 h1        1 994      0.049533
     40 H231        7.9730    0.4300   12.9380 h1        1 994      0.044700
     41 H232        6.2960   -0.3170   12.8900 h1        1 994      0.044700
     42 H233        6.6730    1.0170   14.1020 h1        1 994      0.044700
     43 H281        4.6300   -2.0190    9.8700 h1        1 994      0.049533
     44 H282        3.4220   -0.6550    9.6270 h1        1 994      0.049533
     45 H283        3.4430   -1.5950   11.2100 h1        1 994      0.049533
     46 H33         1.8510    2.7450    4.7650 ha        1 994      0.150000
     47 H34        -0.5750    2.6630    5.4550 ha        1 994      0.150000
     48 H35        -1.4210    0.5840    6.6280 h4        1 994      0.025100
     49 HN41        3.3440   -1.5360    5.9080 hn        1 994      0.425800
     50 H43         3.0790   -3.8350    5.3580 ha        1 994      0.141000
     51 H44         2.3530   -6.0490    6.1780 ha        1 994      0.133000
     52 H45         0.9050   -6.2390    8.2020 ha        1 994      0.133000
     53 H46         0.1980   -4.1770    9.4170 ha        1 994      0.133000
     54 H47         0.9230   -1.9460    8.6420 ha        1 994      0.141000
@<TRIPOS>BOND
     1    1    2 ar  
     2    1    6 ar  
     3    1   16 1   
     4    2    3 ar  
     5    2   18 1   
     6    3    4 ar  
     7    3   33 1   
     8    4    5 ar  
     9    4    7 1   
    10    5    6 ar  
    11    5   34 1   
    12    6   14 1   
    13    7    8 1   
    14    7   35 1   
    15    8    9 ar  
    16    8   13 ar  
    17    9   10 ar  
    18   10   11 ar  
    19   10   20 1   
    20   11   12 ar  
    21   12   13 ar  
    22   12   36 1   
    23   14   15 1   
    24   15   37 1   
    25   15   38 1   
    26   15   39 1   
    27   16   17 1   
    28   17   40 1   
    29   17   41 1   
    30   17   42 1   
    31   18   19 1   
    32   19   43 1   
    33   19   44 1   
    34   19   45 1   
    35   20   21 ar  
    36   20   25 ar  
    37   21   22 ar  
    38   21   46 1   
    39   22   23 ar  
    40   22   47 1   
    41   23   24 ar  
    42   23   48 1   
    43   24   25 ar  
    44   25   26 1   
    45   26   27 1   
    46   26   49 1   
    47   27   28 ar  
    48   27   32 ar  
    49   28   29 ar  
    50   28   50 1   
    51   29   30 ar  
    52   29   51 1   
    53   30   31 ar  
    54   30   52 1   
    55   31   32 ar  
    56   31   53 1   
    57   32   54 1   
@<TRIPOS>SUBSTRUCTURE
     1 994         1 TEMP              0 ****  ****    0 ROOT
