@<TRIPOS>MOLECULE
994
   54    57     1     0     0
SMALL
bcc


@<TRIPOS>ATOM
      1 C1         -0.0100   -0.0700    0.2200 ca        1 994      0.038100
      2 C2          1.3720   -0.3690    0.2200 ca        1 994      0.130600
      3 C3          2.0920   -0.4440    1.4160 ca        1 994     -0.191000
      4 C4          1.4410   -0.1950    2.6390 ca        1 994      0.161600
      5 C5          0.0670    0.1180    2.6510 ca        1 994     -0.191000
      6 C6         -0.6480    0.1620    1.4500 ca        1 994      0.130600
      7 N9          2.1200   -0.3290    3.8750 nh        1 994     -0.705300
      8 C10         3.2590    0.4130    4.2050 ca        1 994      0.888900
      9 N11         4.0280    0.9920    3.1990 nb        1 994     -0.749000
     10 C12         5.1580    1.6340    3.6240 cp        1 994      0.748500
     11 N13         5.5660    1.7420    4.9330 nb        1 994     -0.751000
     12 C14         4.7360    1.1420    5.8300 ca        1 994      0.681900
     13 N15         3.5900    0.4780    5.5640 nb        1 994     -0.775000
     14 O17        -2.0180    0.3530    1.5420 os        1 994     -0.330400
     15 C18        -2.4880    1.5570    0.9320 c3        1 994      0.112200
     16 O22        -0.7170    0.1090   -0.9560 os        1 994     -0.329900
     17 C23        -0.9240   -1.0960   -1.6970 c3        1 994      0.116700
     18 O27         1.9210   -0.6100   -1.0220 os        1 994     -0.330400
     19 C28         3.3310   -0.8100   -1.0660 c3        1 994      0.112200
     20 C32         5.9960    2.2970    2.5960 cp        1 994     -0.314800
     21 C33         6.1560    3.6840    2.6600 ca        1 994     -0.020000
     22 C34         6.9210    4.3320    1.6950 ca        1 994     -0.296300
     23 C35         7.5110    3.5470    0.6890 ca        1 994      0.448200
     24 N36         7.4000    2.2160    0.6020 nb        1 994     -0.715000
     25 C37         6.6430    1.5650    1.5460 ca        1 994      0.680200
     26 N41         6.4670    0.1740    1.4730 nh        1 994     -0.715300
     27 C42         7.2410   -0.6530    0.6250 ca        1 994      0.131600
     28 C43         7.9090   -1.7760    1.1640 ca        1 994     -0.143000
     29 C44         8.6010   -2.6480    0.3310 ca        1 994     -0.115500
     30 C45         8.6520   -2.4230   -1.0440 ca        1 994     -0.143000
     31 C46         7.9970   -1.3180   -1.5840 ca        1 994     -0.115500
     32 C47         7.2900   -0.4380   -0.7680 ca        1 994     -0.143000
     33 H3          3.1650   -0.6890    1.3960 ha        1 994      0.160000
     34 H5         -0.4730    0.3110    3.5900 ha        1 994      0.160000
     35 HN9         1.5290   -0.5680    4.6480 hn        1 994      0.451800
     36 H14         5.0290    1.2080    6.9000 h5        1 994      0.061100
     37 H181       -2.2340    1.5760   -0.1550 h1        1 994      0.049533
     38 H182       -2.0520    2.4450    1.4520 h1        1 994      0.049533
     39 H183       -3.5950    1.5100    1.0860 h1        1 994      0.049533
     40 H231       -1.5200   -1.8230   -1.0960 h1        1 994      0.044700
     41 H232        0.0550   -1.5420   -1.9970 h1        1 994      0.044700
     42 H233       -1.4980   -0.7530   -2.5940 h1        1 994      0.044700
     43 H281        3.5420   -0.8990   -2.1620 h1        1 994      0.049533
     44 H282        3.8730    0.0620   -0.6280 h1        1 994      0.049533
     45 H283        3.6070   -1.7540   -0.5340 h1        1 994      0.049533
     46 H33         5.6780    4.2550    3.4720 ha        1 994      0.149000
     47 H34         7.0640    5.4190    1.7130 ha        1 994      0.150000
     48 H35         8.1270    4.0130   -0.1040 h4        1 994      0.025100
     49 HN41        6.2510   -0.2490    2.3530 hn        1 994      0.425800
     50 H43         7.8880   -1.9710    2.2480 ha        1 994      0.141000
     51 H44         9.1150   -3.5190    0.7650 ha        1 994      0.133000
     52 H45         9.2070   -3.1120   -1.6970 ha        1 994      0.133000
     53 H46         8.0350   -1.1340   -2.6690 ha        1 994      0.133000
     54 H47         6.7760    0.4240   -1.2210 ha        1 994      0.141000
@<TRIPOS>BOND
     1    1    2 ar  
     2    1    6 ar  
     3    1   16 1   
     4    2    3 ar  
     5    2   18 1   
     6    3    4 ar  
     7    3   33 1   
     8    4    5 ar  
     9    4    7 1   
    10    5    6 ar  
    11    5   34 1   
    12    6   14 1   
    13    7    8 1   
    14    7   35 1   
    15    8    9 ar  
    16    8   13 ar  
    17    9   10 ar  
    18   10   11 ar  
    19   10   20 1   
    20   11   12 ar  
    21   12   13 ar  
    22   12   36 1   
    23   14   15 1   
    24   15   37 1   
    25   15   38 1   
    26   15   39 1   
    27   16   17 1   
    28   17   40 1   
    29   17   41 1   
    30   17   42 1   
    31   18   19 1   
    32   19   43 1   
    33   19   44 1   
    34   19   45 1   
    35   20   21 ar  
    36   20   25 ar  
    37   21   22 ar  
    38   21   46 1   
    39   22   23 ar  
    40   22   47 1   
    41   23   24 ar  
    42   23   48 1   
    43   24   25 ar  
    44   25   26 1   
    45   26   27 1   
    46   26   49 1   
    47   27   28 ar  
    48   27   32 ar  
    49   28   29 ar  
    50   28   50 1   
    51   29   30 ar  
    52   29   51 1   
    53   30   31 ar  
    54   30   52 1   
    55   31   32 ar  
    56   31   53 1   
    57   32   54 1   
@<TRIPOS>SUBSTRUCTURE
     1 994         1 TEMP              0 ****  ****    0 ROOT
