@<TRIPOS>MOLECULE
994
   54    43     1     0     0
SMALL
bcc


@<TRIPOS>ATOM
      1 C1         -3.7230   -0.3080   -3.7570 c1        1 994      0.042000
      2 C2         -3.5470    1.0280   -3.3320 c2        1 994      0.053000
      3 C3         -2.8060    1.3030   -2.1840 c1        1 994     -0.102000
      4 C4         -2.2360    0.2540   -1.4510 c1        1 994      0.046000
      5 C5         -2.4120   -1.0810   -1.8750 c1        1 994     -0.172000
      6 C6         -3.1550   -1.3560   -3.0250 c1        1 994      0.018000
      7 N9         -1.5050    0.5310   -0.2620 n2        1 994     -0.230000
      8 C10        -0.0740    0.5460   -0.2930 c2        1 994      0.177000
      9 N11         0.6170   -0.1890    0.5800 n2        1 994     -0.273000
     10 C12         1.9640   -0.1070    0.6160 c1        1 994      0.141000
     11 N13         2.6160    0.7230   -0.2370 n1        1 994     -0.207500
     12 C14         1.9190    1.4640   -1.1180 c1        1 994      0.004000
     13 N15         0.5810    1.3820   -1.1520 n1        1 994     -0.238000
     14 O17        -3.3320   -2.7010   -3.4520 o         1 994     -0.221500
     15 C18        -2.2000   -3.2540   -4.0750 c3        1 994     -0.069000
     16 O22        -4.5290   -0.5900   -4.9180 o         1 994     -0.221500
     17 C23        -5.8620   -0.9850   -4.6160 c3        1 994     -0.069000
     18 O27        -4.1320    2.0960   -4.0770 os        1 994     -0.214000
     19 C28        -3.3150    2.5650   -5.1550 c3        1 994     -0.074000
     20 C32         2.6890   -0.9600    1.4460 c1        1 994      0.010500
     21 C33         3.1520   -2.1550    0.9640 c1        1 994     -0.129750
     22 C34         3.8320   -3.0080    1.7900 c1        1 994     -0.129750
     23 C35         4.0520   -2.6630    3.1090 c1        1 994      0.004000
     24 N36         3.5880   -1.4660    3.5940 n1        1 994     -0.207500
     25 C37         2.9110   -0.6150    2.7760 c1        1 994      0.010500
     26 N41         2.5790    0.7150    3.2360 n2        1 994     -0.241000
     27 C42         2.8820    1.1080    4.5870 c2        1 994      0.054000
     28 C43         2.0210    1.9970    5.2630 c2        1 994     -0.168000
     29 C44         2.3970    2.5340    6.4820 c1        1 994     -0.114000
     30 C45         3.6250    2.1990    7.0430 c1        1 994     -0.129750
     31 C46         4.4830    1.3190    6.3760 c1        1 994     -0.129750
     32 C47         4.1070    0.7740    5.1460 c1        1 994     -0.113000
     33 H3         -2.6840    2.2240   -1.8920 ha        1 994      0.172000
     34 H5         -2.0120   -1.8180   -1.3610 ha        1 994      0.146000
     35 HN9        -1.9600    0.7970    0.5160 hn        1 994      0.245000
     36 H14         2.4130    2.0940   -1.7650 ha        1 994      0.179000
     37 H181       -1.6440   -2.5440   -4.4210 h1        1 994      0.084667
     38 H182       -2.4760   -3.8240   -4.7970 h1        1 994      0.084667
     39 H183       -1.6950   -3.7740   -3.4290 h1        1 994      0.084667
     40 H231       -5.9750   -1.0200   -3.6800 h1        1 994      0.084667
     41 H232       -6.0380   -1.8860   -5.0050 h1        1 994      0.084667
     42 H233       -6.5080   -0.3190   -5.0070 h1        1 994      0.084667
     43 H281       -2.3680    2.4870   -4.9060 h1        1 994      0.085333
     44 H282       -3.5240    3.4820   -5.3370 h1        1 994      0.085333
     45 H283       -3.4860    2.0310   -5.9470 h1        1 994      0.085333
     46 H33         2.9980   -2.3970    0.0370 ha        1 994      0.140750
     47 H34         4.1680   -3.8720    1.4420 ha        1 994      0.140750
     48 H35         4.5390   -3.2750    3.7000 ha        1 994      0.179000
     49 HN41        2.1910    1.3070    2.6680 hn        1 994      0.236000
     50 H43         1.1540    2.2350    4.8690 ha        1 994      0.131000
     51 H44         1.7990    3.1490    6.9480 ha        1 994      0.131000
     52 H45         3.8820    2.5690    7.8800 ha        1 994      0.140750
     53 H46         5.3450    1.0840    6.7710 ha        1 994      0.140750
     54 H47         4.6960    0.1690    4.6880 ha        1 994      0.148000
@<TRIPOS>BOND
     1    1    2 1   
     2    1    6 1   
     3    2    3 1   
     4    2   18 1   
     5    3   33 1   
     6    4    5 1   
     7    5   34 1   
     8    7    8 1   
     9    7   35 1   
    10    8    9 1   
    11    8   13 1   
    12    9   10 1   
    13   11   12 1   
    14   12   36 1   
    15   14   15 1   
    16   15   37 1   
    17   15   38 1   
    18   15   39 1   
    19   16   17 1   
    20   17   40 1   
    21   17   41 1   
    22   17   42 1   
    23   18   19 1   
    24   19   43 1   
    25   19   44 1   
    26   19   45 1   
    27   20   25 1   
    28   21   22 1   
    29   21   46 1   
    30   22   47 1   
    31   23   24 1   
    32   23   48 1   
    33   26   27 1   
    34   26   49 1   
    35   27   28 1   
    36   27   32 1   
    37   28   29 1   
    38   28   50 1   
    39   29   51 1   
    40   30   31 1   
    41   30   52 1   
    42   31   53 1   
    43   32   54 1   
@<TRIPOS>SUBSTRUCTURE
     1 994         1 TEMP              0 ****  ****    0 ROOT
