@<TRIPOS>MOLECULE
994
   54    57     1     0     0
SMALL
bcc


@<TRIPOS>ATOM
      1 C1         -0.0050   -0.0600    0.1970 ca        1 994      0.038100
      2 C2          1.3760   -0.3630    0.2060 ca        1 994      0.130600
      3 C3          2.0880   -0.4360    1.4070 ca        1 994     -0.191000
      4 C4          1.4300   -0.1800    2.6250 ca        1 994      0.161600
      5 C5          0.0570    0.1370    2.6270 ca        1 994     -0.191000
      6 C6         -0.6500    0.1790    1.4210 ca        1 994      0.130600
      7 N9          2.1000   -0.3110    3.8660 nu        1 994     -0.705300
      8 C10         3.2400    0.4270    4.2010 ca        1 994      0.888900
      9 N11         4.0180    1.0000    3.1980 nb        1 994     -0.749000
     10 C12         5.1460    1.6390    3.6280 cp        1 994      0.748500
     11 N13         5.5460    1.7510    4.9390 nb        1 994     -0.751000
     12 C14         4.7080    1.1580    5.8330 ca        1 994      0.681900
     13 N15         3.5610    0.4970    5.5620 nb        1 994     -0.775000
     14 O17        -2.0200    0.3740    1.5040 os        1 994     -0.330400
     15 C18        -2.4820    1.5770    0.8860 c3        1 994      0.112200
     16 O22        -0.7040    0.1160   -0.9850 os        1 994     -0.329900
     17 C23        -0.9090   -1.0900   -1.7230 c3        1 994      0.116700
     18 O27         1.9320   -0.6100   -1.0310 os        1 994     -0.330400
     19 C28         3.3420   -0.8160   -1.0640 c3        1 994      0.112200
     20 C32         5.9940    2.2950    2.6030 cp        1 994     -0.314800
     21 C33         6.1590    3.6820    2.6630 ca        1 994     -0.020000
     22 C34         6.9330    4.3230    1.7000 ca        1 994     -0.296300
     23 C35         7.5270    3.5310    0.7010 ca        1 994      0.448200
     24 N36         7.4110    2.2000    0.6180 nb        1 994     -0.715000
     25 C37         6.6450    1.5570    1.5610 ca        1 994      0.680200
     26 N41         6.4650    0.1660    1.4920 nu        1 994     -0.715300
     27 C42         7.2400   -0.6670    0.6510 ca        1 994      0.131600
     28 C43         7.9010   -1.7910    1.2000 ca        1 994     -0.143500
     29 C44         8.5940   -2.6700    0.3740 ca        1 994     -0.115500
     30 C45         8.6550   -2.4490   -1.0020 ca        1 994     -0.143000
     31 C46         8.0080   -1.3440   -1.5500 ca        1 994     -0.115500
     32 C47         7.2990   -0.4580   -0.7420 ca        1 994     -0.143500
     33 H3          3.1600   -0.6840    1.3960 ha        1 994      0.160000
     34 H5         -0.4890    0.3350    3.5620 ha        1 994      0.160000
     35 HN9         1.5030   -0.5450    4.6360 hn        1 994      0.451800
     36 H14         4.9940    1.2270    6.9050 h5        1 994      0.061100
     37 H181       -2.0480    2.4660    1.4040 h1        1 994      0.049533
     38 H182       -3.5910    1.5340    1.0330 h1        1 994      0.049533
     39 H183       -2.2220    1.5900   -0.2000 h1        1 994      0.049533
     40 H231        0.0710   -1.5400   -2.0150 h1        1 994      0.044700
     41 H232       -1.5110   -1.8140   -1.1230 h1        1 994      0.044700
     42 H233       -1.4770   -0.7490   -2.6240 h1        1 994      0.044700
     43 H281        3.5600   -0.9100   -2.1590 h1        1 994      0.049533
     44 H282        3.6110   -1.7580   -0.5280 h1        1 994      0.049533
     45 H283        3.8850    0.0570   -0.6260 h1        1 994      0.049533
     46 H33         5.6780    4.2570    3.4690 ha        1 994      0.150000
     47 H34         7.0800    5.4100    1.7150 ha        1 994      0.150000
     48 H35         8.1500    3.9910   -0.0890 h4        1 994      0.025100
     49 HN41        6.2410   -0.2530    2.3720 hn        1 994      0.425800
     50 H43         7.8710   -1.9820    2.2830 ha        1 994      0.141000
     51 H44         9.1020   -3.5410    0.8140 ha        1 994      0.133000
     52 H45         9.2100   -3.1430   -1.6480 ha        1 994      0.133000
     53 H46         8.0530   -1.1640   -2.6350 ha        1 994      0.133000
     54 H47         6.7920    0.4040   -1.2010 ha        1 994      0.141000
@<TRIPOS>BOND
     1    1    2 ar  
     2    1    6 ar  
     3    1   16 1   
     4    2    3 ar  
     5    2   18 1   
     6    3    4 ar  
     7    3   33 1   
     8    4    5 ar  
     9    4    7 1   
    10    5    6 ar  
    11    5   34 1   
    12    6   14 1   
    13    7    8 1   
    14    7   35 1   
    15    8    9 ar  
    16    8   13 ar  
    17    9   10 ar  
    18   10   11 ar  
    19   10   20 1   
    20   11   12 ar  
    21   12   13 ar  
    22   12   36 1   
    23   14   15 1   
    24   15   37 1   
    25   15   38 1   
    26   15   39 1   
    27   16   17 1   
    28   17   40 1   
    29   17   41 1   
    30   17   42 1   
    31   18   19 1   
    32   19   43 1   
    33   19   44 1   
    34   19   45 1   
    35   20   21 ar  
    36   20   25 ar  
    37   21   22 ar  
    38   21   46 1   
    39   22   23 ar  
    40   22   47 1   
    41   23   24 ar  
    42   23   48 1   
    43   24   25 ar  
    44   25   26 1   
    45   26   27 1   
    46   26   49 1   
    47   27   28 ar  
    48   27   32 ar  
    49   28   29 ar  
    50   28   50 1   
    51   29   30 ar  
    52   29   51 1   
    53   30   31 ar  
    54   30   52 1   
    55   31   32 ar  
    56   31   53 1   
    57   32   54 1   
@<TRIPOS>SUBSTRUCTURE
     1 994         1 TEMP              0 ****  ****    0 ROOT
