@<TRIPOS>MOLECULE
995
   71    71     1     0     0
SMALL
bcc


@<TRIPOS>ATOM
      1 CX          1.2040    1.2240    0.2110 c         1 995      0.513600
      2 CY          2.7180    1.0720   -0.1200 c3        1 995      0.036500
      3 CZ          0.5700    0.1510    0.9420 cc        1 995      0.102900
      4 OX          0.6150    2.2270   -0.2060 o         1 995     -0.509100
      5 S1         -1.1150   -0.0550    0.9620 ss        1 995      0.446700
      6 C2         -1.0050   -1.3790    1.8670 cc        1 995     -0.274400
      7 C3          0.3500   -1.6720    2.1800 cd        1 995      0.327200
      8 N1          1.2500   -0.8050    1.6620 nd        1 995     -0.721000
      9 C6          3.5390    1.2330    1.1770 c3        1 995     -0.077400
     10 C7          4.2960   -0.0390    1.5700 c3        1 995     -0.104400
     11 N2          3.1070    2.0830   -1.1810 n4        1 995     -0.673800
     12 C8          2.6380    1.7300   -2.5830 c         1 995      0.548100
     13 C9          2.1930    2.9020   -3.4720 c3        1 995      0.073500
     14 C10         0.6380    2.9090   -3.5630 c3        1 995     -0.073700
     15 C11         0.1720    4.2500   -4.0910 c3        1 995     -0.137600
     16 C12         0.1010    1.7760   -4.4060 c3        1 995     -0.137600
     17 N3          2.8420    2.8100   -4.8180 n4        1 995     -0.701800
     18 C13         4.3740    2.8630   -4.7580 c         1 995      0.616100
     19 C14         5.1070    3.1810   -6.0150 c3        1 995     -0.167400
     20 C15         4.2790    3.6620   -7.1860 c3        1 995     -0.108400
     21 C16         5.1780    3.9780   -8.3850 c3        1 995     -0.057700
     22 C17         5.7320    2.7150   -9.0080 c3        1 995     -0.107100
     23 C18         4.3840    4.7660   -9.4080 c3        1 995     -0.107100
     24 O2          4.8050    2.6140   -3.6350 o         1 995     -0.538100
     25 O3          2.6560    0.5520   -2.8930 o         1 995     -0.379100
     26 C19         4.3500   -0.1300    3.1050 c3        1 995      0.117800
     27 N4          5.1670   -1.3480    3.5630 n4        1 995     -0.834000
     28 C20         5.1340   -1.5810    5.0800 c3        1 995      0.549900
     29 N5          5.4790   -3.0240    5.4690 n4        1 995     -0.901100
     30 N6          5.9800   -0.5750    5.8590 n4        1 995     -0.901100
     31 HY          2.8700    0.0460   -0.5760 hx        1 995      0.151700
     32 H2         -1.8420   -2.0060    2.2120 h4        1 995      0.252000
     33 H3          0.6630   -2.5410    2.7700 h4        1 995      0.047100
     34 H61         2.8210    1.5210    1.9960 hc        1 995      0.097700
     35 H62         4.2820    2.0740    1.0950 hc        1 995      0.097700
     36 H71         5.3340    0.0000    1.1410 hc        1 995      0.107200
     37 H72         3.7760   -0.9440    1.1500 hc        1 995      0.107200
     38 HN2         4.1320    2.1820   -1.2230 hn        1 995      0.483300
     39 H9          2.5250    3.8910   -3.0240 hx        1 995      0.137700
     40 H10         0.2720    2.7960   -2.5000 hc        1 995      0.098700
     41 H111       -0.9490    4.2970   -4.0240 hc        1 995      0.082533
     42 H112        0.4420    4.3950   -5.1650 hc        1 995      0.082533
     43 H113        0.5830    5.0960   -3.4890 hc        1 995      0.082533
     44 H121        0.2250    1.9720   -5.5000 hc        1 995      0.082533
     45 H122        0.5820    0.8020   -4.1460 hc        1 995      0.082533
     46 H123       -1.0040    1.6770   -4.2260 hc        1 995      0.082533
     47 HN3         2.4950    3.6030   -5.3930 hn        1 995      0.500300
     48 H141        5.6780    2.2450   -6.3070 hc        1 995      0.161200
     49 H142        5.8860    3.9610   -5.7460 hc        1 995      0.161200
     50 H151        3.5380    2.8810   -7.5010 hc        1 995      0.051700
     51 H152        3.7250    4.5990   -6.9110 hc        1 995      0.051700
     52 H16         6.0350    4.6180   -8.0300 hc        1 995      0.068700
     53 H171        6.3700    2.1520   -8.2860 hc        1 995      0.058533
     54 H172        4.9100    2.0490   -9.3640 hc        1 995      0.058533
     55 H173        6.3660    2.9810   -9.8930 hc        1 995      0.058533
     56 H181        5.0380    5.0110  -10.2840 hc        1 995      0.058533
     57 H182        3.5140    4.1740   -9.7800 hc        1 995      0.058533
     58 H183        4.0130    5.7250   -8.9730 hc        1 995      0.058533
     59 H191        4.8410    0.7900    3.5300 hx        1 995      0.135700
     60 H192        3.2950   -0.2490    3.5020 hx        1 995      0.135700
     61 HN4         4.7430   -2.1700    3.0830 hn        1 995      0.508300
     62 H20         4.0290   -1.4100    5.4140 hx        1 995      0.244700
     63 HN51        6.4470   -3.3120    5.2210 hn        1 995      0.539967
     64 HN52        4.8170   -3.6920    5.0130 hn        1 995      0.539967
     65 HN61        7.0020   -0.6480    5.6770 hn        1 995      0.539967
     66 HN62        5.6780    0.3970    5.6340 hn        1 995      0.539967
     67 H22         2.6900    2.9920   -0.9180 hn        1 995      0.483300
     68 H32         2.5500    1.9400   -5.2920 hn        1 995      0.500300
     69 H42         6.1350   -1.2500    3.2070 hn        1 995      0.508300
     70 H53         5.3600   -3.1630    6.5010 hn        1 995      0.539967
     71 H63         5.8320   -0.6960    6.8910 hn        1 995      0.539967
@<TRIPOS>BOND
     1    1    2 1   
     2    1    3 1   
     3    1    4 2   
     4    2    9 1   
     5    2   11 1   
     6    2   31 1   
     7    3    5 1   
     8    3    8 2   
     9    5    6 1   
    10    6    7 2   
    11    6   32 1   
    12    7    8 1   
    13    7   33 1   
    14    9   10 1   
    15    9   34 1   
    16    9   35 1   
    17   10   26 1   
    18   10   36 1   
    19   10   37 1   
    20   11   12 1   
    21   11   38 1   
    22   11   67 1   
    23   12   13 1   
    24   12   25 2   
    25   13   14 1   
    26   13   17 1   
    27   13   39 1   
    28   14   15 1   
    29   14   16 1   
    30   14   40 1   
    31   15   41 1   
    32   15   42 1   
    33   15   43 1   
    34   16   44 1   
    35   16   45 1   
    36   16   46 1   
    37   17   18 1   
    38   17   47 1   
    39   17   68 1   
    40   18   19 1   
    41   18   24 2   
    42   19   20 1   
    43   19   48 1   
    44   19   49 1   
    45   20   21 1   
    46   20   50 1   
    47   20   51 1   
    48   21   22 1   
    49   21   23 1   
    50   21   52 1   
    51   22   53 1   
    52   22   54 1   
    53   22   55 1   
    54   23   56 1   
    55   23   57 1   
    56   23   58 1   
    57   26   27 1   
    58   26   59 1   
    59   26   60 1   
    60   27   28 1   
    61   27   61 1   
    62   27   69 1   
    63   28   29 1   
    64   28   30 1   
    65   28   62 1   
    66   29   63 1   
    67   29   64 1   
    68   29   70 1   
    69   30   65 1   
    70   30   66 1   
    71   30   71 1   
@<TRIPOS>SUBSTRUCTURE
     1 995         1 TEMP              0 ****  ****    0 ROOT
