@<TRIPOS>MOLECULE
995
   71    71     1     0     0
SMALL
bcc


@<TRIPOS>ATOM
      1 CX          0.0000    0.0000    0.0000 c         1 995      0.571600
      2 CY          1.5080    0.0000    0.0000 c3        1 995     -0.144500
      3 CZ         -0.7320   -1.2230    0.3300 cc        1 995      0.280900
      4 OX         -0.6060    1.0150   -0.2720 o         1 995     -0.494100
      5 S1         -2.4950   -1.5020    0.4060 ss        1 995     -0.015300
      6 C2         -2.4380   -3.1790    0.8560 cc        1 995      0.104600
      7 C3         -1.0900   -3.3990    0.9150 cd        1 995      0.364200
      8 N1         -0.2630   -2.4270    0.6470 nd        1 995     -0.575000
      9 C6          2.0180    0.0000    1.4430 c3        1 995     -0.012400
     10 C7          3.5420   -0.1260    1.4440 c3        1 995     -0.040400
     11 N2          1.9960    1.1950   -0.6930 ny        1 995      0.140200
     12 C8          2.1250    1.1920   -2.0340 c         1 995      0.338100
     13 C9          2.5180    2.4550   -2.7550 c3        1 995     -0.112500
     14 C10         1.2960    3.3660   -2.8920 c3        1 995     -0.065700
     15 C11         1.7170    4.6930   -3.5260 c3        1 995     -0.020100
     16 C12         0.2480    2.6870   -3.7750 c3        1 995     -0.020100
     17 N3          3.0250    2.1180   -4.0880 ny        1 995      0.124200
     18 C13         3.8790    2.9520   -4.7150 c         1 995      0.328100
     19 C14         4.4010    2.6050   -6.0850 c3        1 995     -0.082400
     20 C15         5.3430    3.7090   -6.5670 c3        1 995     -0.016400
     21 C16         5.8730    3.3580   -7.9580 c3        1 995     -0.050700
     22 C17         4.7150    3.3490   -8.9580 c3        1 995      0.005900
     23 C18         6.9090    4.3980   -8.3870 c3        1 995      0.005900
     24 O2          4.2260    3.9810   -4.1760 o         1 995     -0.407100
     25 O3          1.9240    0.1730   -2.6600 o         1 995     -0.376100
     26 C19         4.0520   -0.1250    2.8860 c3        1 995     -0.006200
     27 N4          5.5170   -0.2470    2.8880 ny        1 995     -0.102000
     28 C20         5.9390   -0.2390    4.2940 c3        1 995     -0.028100
     29 N5          7.3270   -0.7120    4.3910 nz        1 995      0.023900
     30 N6          5.8490    1.1280    4.8260 nz        1 995      0.023900
     31 HY          1.8680   -0.8850   -0.5100 hx        1 995      0.134700
     32 H2         -3.1950   -3.9230    0.6400 h4        1 995      0.222000
     33 H3         -0.7100   -4.3790    1.1760 h4        1 995      0.038100
     34 H61         1.5860   -0.8360    1.9790 hc        1 995      0.080700
     35 H62         1.7320    0.9260    1.9270 hc        1 995      0.080700
     36 H71         3.9740    0.7100    0.9070 hc        1 995      0.040200
     37 H72         3.8280   -1.0520    0.9610 hc        1 995      0.040200
     38 HN2         2.8990    1.4010   -0.3140 hn        1 995      0.271800
     39 H9          3.2900    2.9660   -2.1930 hx        1 995      0.102700
     40 H10         0.8750    3.5530   -1.9110 hc        1 995      0.054700
     41 H111        2.6220    5.0500   -3.0500 hc        1 995      0.047367
     42 H112        1.9000    4.5450   -4.5840 hc        1 995      0.047367
     43 H113        0.9280    5.4230   -3.3950 hc        1 995      0.047367
     44 H121        0.4020    1.6140   -3.7600 hc        1 995      0.047367
     45 H122       -0.7430    2.9150   -3.4010 hc        1 995      0.047367
     46 H123        0.3420    3.0500   -4.7920 hc        1 995      0.047367
     47 HN3         2.2280    2.0130   -4.6850 hn        1 995      0.286300
     48 H141        4.9390    1.6660   -6.0390 hc        1 995      0.071700
     49 H142        3.5710    2.5120   -6.7750 hc        1 995      0.071700
     50 H151        6.1730    3.8020   -5.8770 hc        1 995      0.038700
     51 H152        4.8050    4.6480   -6.6120 hc        1 995      0.038700
     52 H16         6.3350    2.3780   -7.9310 hc        1 995      0.028700
     53 H171        5.1010    3.4980   -9.9590 hc        1 995      0.018533
     54 H172        4.2020    2.3960   -8.9070 hc        1 995      0.018533
     55 H173        4.0220    4.1460   -8.7150 hc        1 995      0.018533
     56 H181        7.3140    4.1270   -9.3550 hc        1 995      0.018533
     57 H182        6.4390    5.3720   -8.4520 hc        1 995      0.018533
     58 H183        7.7100    4.4320   -7.6580 hc        1 995      0.018533
     59 H191        3.7670    0.8020    3.3700 hx        1 995      0.098200
     60 H192        3.6200   -0.9600    3.4230 hx        1 995      0.098200
     61 HN4         5.9270    0.5250    2.4010 hn        1 995      0.289800
     62 H20         5.2940   -0.8930    4.8680 hx        1 995      0.191700
     63 HN51        7.3890   -1.6420    4.0280 hn        1 995      0.288633
     64 HN52        7.9240   -0.1070    3.8610 hn        1 995      0.288633
     65 HN61        6.1130    1.7810    4.1160 hn        1 995      0.288633
     66 HN62        4.9090    1.3120    5.1160 hn        1 995      0.288633
     67 H22         1.3710    1.9410   -0.4610 hn        1 995      0.271800
     68 H32         3.4900    1.2350   -4.0080 hn        1 995      0.286300
     69 H42         5.7910   -1.1040    2.4510 hn        1 995      0.289800
     70 H53         7.6140   -0.7090    5.3500 hn        1 995      0.288633
     71 H63         6.4650    1.2220    5.6100 hn        1 995      0.288633
@<TRIPOS>BOND
     1    1    2 1   
     2    1    3 1   
     3    1    4 2   
     4    2    9 1   
     5    2   11 1   
     6    2   31 1   
     7    3    5 1   
     8    3    8 2   
     9    5    6 1   
    10    6    7 2   
    11    6   32 1   
    12    7    8 1   
    13    7   33 1   
    14    9   10 1   
    15    9   34 1   
    16    9   35 1   
    17   10   26 1   
    18   10   36 1   
    19   10   37 1   
    20   11   12 1   
    21   11   38 1   
    22   11   67 1   
    23   12   13 1   
    24   12   25 2   
    25   13   14 1   
    26   13   17 1   
    27   13   39 1   
    28   14   15 1   
    29   14   16 1   
    30   14   40 1   
    31   15   41 1   
    32   15   42 1   
    33   15   43 1   
    34   16   44 1   
    35   16   45 1   
    36   16   46 1   
    37   17   18 1   
    38   17   47 1   
    39   17   68 1   
    40   18   19 1   
    41   18   24 2   
    42   19   20 1   
    43   19   48 1   
    44   19   49 1   
    45   20   21 1   
    46   20   50 1   
    47   20   51 1   
    48   21   22 1   
    49   21   23 1   
    50   21   52 1   
    51   22   53 1   
    52   22   54 1   
    53   22   55 1   
    54   23   56 1   
    55   23   57 1   
    56   23   58 1   
    57   26   27 1   
    58   26   59 1   
    59   26   60 1   
    60   27   28 1   
    61   27   61 1   
    62   27   69 1   
    63   28   29 1   
    64   28   30 1   
    65   28   62 1   
    66   29   63 1   
    67   29   64 1   
    68   29   70 1   
    69   30   65 1   
    70   30   66 1   
    71   30   71 1   
@<TRIPOS>SUBSTRUCTURE
     1 995         1 TEMP              0 ****  ****    0 ROOT
