@<TRIPOS>MOLECULE
995
   66    63     1     0     0
SMALL
bcc


@<TRIPOS>ATOM
      1 CX         -2.9060   -0.5490    1.0910 c1        1 995      0.292000
      2 CY         -1.4730   -0.3100    1.4610 c2        1 995      0.002000
      3 CZ         -3.4160   -1.9980    0.8470 c2        1 995     -0.387000
      4 OX         -3.6560    0.3870    0.9510 o         1 995     -0.288000
      5 S1         -4.9480   -1.8550    0.7450 ss        1 995      0.623000
      6 C2         -5.5370   -3.2750    0.5680 c1        1 995     -0.475000
      7 C3         -4.4480   -4.2040    0.5630 c1        1 995     -0.139000
      8 N1         -3.0960   -3.3900    0.7410 n2        1 995     -0.074000
      9 C6         -1.3690   -0.1110    2.9480 c3        1 995     -0.171000
     10 C7         -0.5890   -1.2610    3.5640 c3        1 995     -0.166000
     11 N2         -0.9860    0.8780    0.7750 n         1 995     -0.374000
     12 C8         -0.8450    0.8710   -0.6750 c2        1 995      0.282000
     13 C9         -0.1770    2.0600   -1.3900 c3        1 995      0.012000
     14 C10        -1.2020    3.1840   -1.5810 c3        1 995     -0.106000
     15 C11        -0.5200    4.5500   -1.3620 c3        1 995     -0.215000
     16 C12        -1.7650    3.1200   -2.9950 c3        1 995     -0.215000
     17 N3          0.3020    1.6430   -2.6500 n         1 995     -0.360000
     18 C13         1.7210    1.6450   -2.9220 c2        1 995      0.303000
     19 C14         2.2670    0.9030   -4.1600 c3        1 995     -0.181000
     20 C15         3.7630    1.2790   -4.3750 c3        1 995     -0.152000
     21 C16         4.4000    0.2920   -5.3700 c3        1 995     -0.107000
     22 C17         4.9260    1.0700   -6.5990 c3        1 995     -0.209500
     23 C18         5.5290   -0.4210   -4.7120 c3        1 995     -0.209500
     24 O2          2.4660    2.3010   -2.2350 o         1 995     -0.370000
     25 O3         -1.3140   -0.0300   -1.3190 o         1 995     -0.374000
     26 C19        -0.7900   -1.2560    5.1080 c3        1 995     -0.069000
     27 N4         -0.3770   -2.5540    5.6570 n3        1 995     -0.327000
     28 C20        -0.9030   -2.7030    7.0020 c3        1 995      0.094000
     29 N5         -1.6350   -3.9490    7.0970 n3        1 995     -0.363500
     30 N6          0.2030   -2.7140    7.9600 n3        1 995     -0.363500
     31 HY         -0.9340   -1.0840    1.1950 h4        1 995      0.165000
     32 H2         -6.4950   -3.5010    0.4750 DU        1 995      0.187000
     33 H3         -4.5240   -5.1830    0.4660 DU        1 995      0.187000
     34 H61        -2.2720   -0.0830    3.3380 hc        1 995      0.098000
     35 H62        -0.9050    0.7340    3.1330 hc        1 995      0.098000
     36 H71         0.3470   -1.1590    3.3610 hc        1 995      0.095500
     37 H72        -0.9100   -2.1010    3.1980 hc        1 995      0.095500
     38 HN2        -0.7010    1.5990    1.2580 hn        1 995      0.237000
     39 H9          0.5730    2.3900   -0.8480 h1        1 995      0.140000
     40 H10        -1.9250    3.0770   -0.9390 hc        1 995      0.094000
     41 H111       -0.0020    4.7900   -2.1620 hc        1 995      0.082000
     42 H112       -1.2100    5.2410   -1.1950 hc        1 995      0.082000
     43 H113        0.0820    4.4950   -0.5870 hc        1 995      0.082000
     44 H121       -2.0810    2.2070   -3.1810 hc        1 995      0.082000
     45 H122       -2.5120    3.7490   -3.0770 hc        1 995      0.082000
     46 H123       -1.0660    3.3600   -3.6350 hc        1 995      0.082000
     47 HN3        -0.2830    1.3790   -3.2910 hn        1 995      0.235000
     48 H141        2.1900   -0.0730   -4.0190 hc        1 995      0.113000
     49 H142        1.7510    1.1600   -4.9480 hc        1 995      0.113000
     50 H151        4.2410    1.2320   -3.5140 hc        1 995      0.087500
     51 H152        3.8230    2.1880   -4.7330 hc        1 995      0.087500
     52 H16         3.7250   -0.3630   -5.6610 hc        1 995      0.086000
     53 H171        5.3870    0.4470   -7.2110 hc        1 995      0.075167
     54 H172        5.5550    1.7630   -6.3030 hc        1 995      0.075167
     55 H173        4.1700    1.4920   -7.0680 hc        1 995      0.075167
     56 H181        5.8810   -1.1030   -5.3170 hc        1 995      0.075167
     57 H182        5.2110   -0.8470   -3.8890 hc        1 995      0.075167
     58 H183        6.2390    0.2200   -4.4950 hc        1 995      0.075167
     59 H191       -0.2440   -0.5400    5.5090 h1        1 995      0.079000
     60 H192       -1.7350   -1.0990    5.3130 h1        1 995      0.079000
     61 HN4         0.5280   -2.5980    5.6790 hn        1 995      0.151000
     62 H20        -1.5030   -1.9560    7.2040 h3        1 995      0.117000
     63 HN51       -2.1330   -3.9520    7.8650 hn        1 995      0.150000
     64 HN52       -2.1930   -4.0350    6.3690 hn        1 995      0.150000
     65 HN61        0.1450   -3.4770    8.4870 hn        1 995      0.150000
     66 HN62        0.1540   -1.9740    8.4910 hn        1 995      0.150000
@<TRIPOS>BOND
     1    1    3 1   
     2    1    4 1   
     3    2    9 1   
     4    2   11 1   
     5    2   31 1   
     6    3    5 1   
     7    3    8 1   
     8    5    6 1   
     9    6    7 1   
    10    7    8 1   
    11    9   10 1   
    12    9   34 1   
    13    9   35 1   
    14   10   26 1   
    15   10   36 1   
    16   10   37 1   
    17   11   12 1   
    18   11   38 1   
    19   12   13 1   
    20   12   25 1   
    21   13   14 1   
    22   13   17 1   
    23   13   39 1   
    24   14   15 1   
    25   14   16 1   
    26   14   40 1   
    27   15   41 1   
    28   15   42 1   
    29   15   43 1   
    30   16   44 1   
    31   16   45 1   
    32   16   46 1   
    33   17   18 1   
    34   17   47 1   
    35   18   19 1   
    36   18   24 1   
    37   19   20 1   
    38   19   48 1   
    39   19   49 1   
    40   20   21 1   
    41   20   50 1   
    42   20   51 1   
    43   21   22 1   
    44   21   23 1   
    45   21   52 1   
    46   22   53 1   
    47   22   54 1   
    48   22   55 1   
    49   23   56 1   
    50   23   57 1   
    51   23   58 1   
    52   26   27 1   
    53   26   59 1   
    54   26   60 1   
    55   27   28 1   
    56   27   61 1   
    57   28   29 1   
    58   28   30 1   
    59   28   62 1   
    60   29   63 1   
    61   29   64 1   
    62   30   65 1   
    63   30   66 1   
@<TRIPOS>SUBSTRUCTURE
     1 995         1 TEMP              0 ****  ****    0 ROOT
