@<TRIPOS>MOLECULE
995
   66    66     1     0     0
SMALL
bcc


@<TRIPOS>ATOM
      1 CX          2.5130    1.7190   -1.1000 c         1 995      0.482600
      2 CY          1.7750    0.5120   -0.5020 c3        1 995      0.028700
      3 CZ          3.3460    2.5150   -0.1760 cc        1 995      0.275900
      4 OX          2.4190    2.0240   -2.2930 o         1 995     -0.528100
      5 S1          3.7400    4.1550   -0.4950 ss        1 995      0.043700
      6 C2          4.6050    4.2580    0.9110 cc        1 995     -0.270400
      7 C3          4.5850    3.0390    1.5910 cd        1 995      0.327200
      8 N1          3.8640    2.0450    0.9730 nd        1 995     -0.603000
      9 C6          2.7090   -0.7020   -0.6560 c3        1 995     -0.082400
     10 C7          2.1890   -1.9050    0.0990 c3        1 995     -0.088400
     11 N2          0.4880    0.3130   -1.1220 n         1 995     -0.555900
     12 C8         -0.6960    0.6600   -0.5090 c         1 995      0.636100
     13 C9         -1.9910    0.4970   -1.3520 c3        1 995      0.037700
     14 C10        -2.1980    1.8220   -2.1270 c3        1 995     -0.068700
     15 C11        -3.2010    1.6270   -3.2420 c3        1 995     -0.096100
     16 C12        -2.6150    2.9600   -1.2210 c3        1 995     -0.096100
     17 N3         -3.1070    0.1320   -0.5230 n         1 995     -0.549900
     18 C13        -3.6310   -1.1510   -0.5160 c         1 995      0.658100
     19 C14        -4.6680   -1.4760    0.5440 c3        1 995     -0.152400
     20 C15        -5.8890   -0.5890    0.4370 c3        1 995     -0.073400
     21 C16        -7.0100   -1.0540    1.3570 c3        1 995     -0.068700
     22 C17        -6.6790   -0.7920    2.8110 c3        1 995     -0.091600
     23 C18        -8.3040   -0.3610    0.9820 c3        1 995     -0.091600
     24 O2         -3.2860   -1.9960   -1.3650 o         1 995     -0.608100
     25 O3         -0.7310    1.0730    0.6680 o         1 995     -0.618100
     26 C19         3.2280   -3.0280    0.0520 c3        1 995      0.171800
     27 N4          2.7700   -4.2500    0.6790 n3        1 995     -0.857200
     28 C20         3.8680   -5.1860    1.0780 c3        1 995      0.618900
     29 N5          3.3460   -6.4690    1.6020 n3        1 995     -0.922300
     30 N6          4.8700   -5.3580    0.0090 n3        1 995     -0.922300
     31 HY          1.5980    0.7020    0.6020 h1        1 995      0.121700
     32 H2          5.1180    5.1520    1.2620 h4        1 995      0.187000
     33 H3          5.0800    2.8220    2.5450 h4        1 995      0.050100
     34 H61         2.8340   -0.9550   -1.7410 hc        1 995      0.061700
     35 H62         3.7170   -0.4140   -0.2550 hc        1 995      0.061700
     36 H71         1.9770   -1.6200    1.1630 hc        1 995      0.053200
     37 H72         1.2250   -2.2570   -0.3540 hc        1 995      0.053200
     38 HN2         0.4890    0.0770   -2.0870 hn        1 995      0.321500
     39 H9         -1.8450   -0.3320   -2.1130 h1        1 995      0.103700
     40 H10        -1.2020    2.0780   -2.5880 hc        1 995      0.055700
     41 H111       -4.2050    1.3560   -2.8340 hc        1 995      0.042200
     42 H112       -3.3030    2.5720   -3.8290 hc        1 995      0.042200
     43 H113       -2.8700    0.8140   -3.9320 hc        1 995      0.042200
     44 H121       -1.9790    2.9820   -0.3020 hc        1 995      0.042200
     45 H122       -2.5040    3.9320   -1.7590 hc        1 995      0.042200
     46 H123       -3.6830    2.8550   -0.9130 hc        1 995      0.042200
     47 HN3        -3.2790    0.7250    0.2570 hn        1 995      0.321500
     48 H141       -4.1980   -1.3760    1.5580 hc        1 995      0.074200
     49 H142       -4.9600   -2.5510    0.4050 hc        1 995      0.074200
     50 H151       -6.2580   -0.5980   -0.6230 hc        1 995      0.048200
     51 H152       -5.6220    0.4710    0.6900 hc        1 995      0.048200
     52 H16        -7.1480   -2.1640    1.2170 hc        1 995      0.050700
     53 H171       -6.5120    0.2980    2.9860 hc        1 995      0.035200
     54 H172       -7.5190   -1.1300    3.4640 hc        1 995      0.035200
     55 H173       -5.7550   -1.3440    3.1100 hc        1 995      0.035200
     56 H181       -8.1980    0.7460    1.0790 hc        1 995      0.035200
     57 H182       -8.5840   -0.6000   -0.0730 hc        1 995      0.035200
     58 H183       -9.1310   -0.6980    1.6530 hc        1 995      0.035200
     59 H191        3.4540   -3.2670   -1.0260 h1        1 995      0.041200
     60 H192        4.1840   -2.6450    0.5170 h1        1 995      0.041200
     61 HN4         2.2280   -4.0380    1.4970 hn        1 995      0.355800
     62 H20         4.4570   -4.7280    1.9480 h3        1 995      0.044700
     63 HN51        2.8130   -6.3160    2.4340 hn        1 995      0.357300
     64 HN52        2.7750   -6.9420    0.9310 hn        1 995      0.357300
     65 HN61        5.5510   -6.0320    0.3000 hn        1 995      0.357300
     66 HN62        4.4480   -5.6680   -0.8450 hn        1 995      0.357300
@<TRIPOS>BOND
     1    1    2 1   
     2    1    3 1   
     3    1    4 2   
     4    2    9 1   
     5    2   11 1   
     6    2   31 1   
     7    3    5 1   
     8    3    8 2   
     9    5    6 1   
    10    6    7 2   
    11    6   32 1   
    12    7    8 1   
    13    7   33 1   
    14    9   10 1   
    15    9   34 1   
    16    9   35 1   
    17   10   26 1   
    18   10   36 1   
    19   10   37 1   
    20   11   12 1   
    21   11   38 1   
    22   12   13 1   
    23   12   25 2   
    24   13   14 1   
    25   13   17 1   
    26   13   39 1   
    27   14   15 1   
    28   14   16 1   
    29   14   40 1   
    30   15   41 1   
    31   15   42 1   
    32   15   43 1   
    33   16   44 1   
    34   16   45 1   
    35   16   46 1   
    36   17   18 1   
    37   17   47 1   
    38   18   19 1   
    39   18   24 2   
    40   19   20 1   
    41   19   48 1   
    42   19   49 1   
    43   20   21 1   
    44   20   50 1   
    45   20   51 1   
    46   21   22 1   
    47   21   23 1   
    48   21   52 1   
    49   22   53 1   
    50   22   54 1   
    51   22   55 1   
    52   23   56 1   
    53   23   57 1   
    54   23   58 1   
    55   26   27 1   
    56   26   59 1   
    57   26   60 1   
    58   27   28 1   
    59   27   61 1   
    60   28   29 1   
    61   28   30 1   
    62   28   62 1   
    63   29   63 1   
    64   29   64 1   
    65   30   65 1   
    66   30   66 1   
@<TRIPOS>SUBSTRUCTURE
     1 995         1 TEMP              0 ****  ****    0 ROOT
