@<TRIPOS>MOLECULE
996
   72    67     1     0     0
SMALL
bcc


@<TRIPOS>ATOM
      1 O21         0.3880    3.4030    4.3570 o         1 996     -0.371000
      2 C6          1.1580    3.6330    3.4880 c1        1 996      0.298000
      3 C5          2.4960    4.3190    3.8100 c3        1 996     -0.244000
      4 N7          0.8130    3.3280    2.1150 n2        1 996     -0.375000
      5 C8         -0.5660    3.2860    1.7130 c3        1 996      0.027000
      6 C13        -0.9900    4.6470    1.2440 c3        1 996     -0.138000
      7 C22        -1.9310    5.2640    2.2700 c1        1 996     -0.077000
      8 C23        -3.2260    5.5810    1.9150 c1        1 996     -0.138000
      9 C24        -4.0500    6.2780    2.8180 c1        1 996     -0.127000
     10 C25        -3.5660    6.6430    4.0500 c1        1 996     -0.127000
     11 C26        -2.2640    6.3230    4.4030 c1        1 996     -0.127000
     12 C27        -1.4470    5.6320    3.5090 c1        1 996     -0.127000
     13 C9         -0.7310    2.2730    0.5810 c3        1 996      0.028000
     14 O1         -2.0640    2.2270    0.1830 oh        1 996     -0.340000
     15 C10        -0.2950    0.8920    1.0710 c3        1 996     -0.119000
     16 N11        -0.5070   -0.1050    0.0010 n3        1 996     -0.315000
     17 C12         0.1070   -1.4220    0.4150 c3        1 996      0.060000
     18 C17         0.7750   -2.0950   -0.9000 c2        1 996     -0.190000
     19 C16         0.4280   -3.4810   -1.2040 c1        1 996     -0.110500
     20 C14        -0.4220   -4.2840   -0.1240 c2        1 996     -0.080000
     21 C2         -0.6630   -3.6270    1.1100 c3        1 996     -0.051000
     22 C3         -1.9090   -4.2600    1.7470 c3        1 996     -0.207000
     23 C4          0.5300   -3.9050    2.0330 c3        1 996     -0.207000
     24 C15        -0.8700   -2.1670    1.0640 c3        1 996     -0.140000
     25 N20         0.9880   -3.7970   -2.3860 n2        1 996     -0.098500
     26 N19         1.6940   -2.6520   -2.8630 n2        1 996     -0.098500
     27 C18         1.5410   -1.6220   -1.9210 c1        1 996     -0.110500
     28 C28         2.4930   -2.5790   -4.0690 c2        1 996      0.002000
     29 C29         1.9090   -3.4930   -5.1320 c3        1 996     -0.072000
     30 C30         2.2060   -4.9730   -4.7630 c3        1 996     -0.207667
     31 C31         0.3930   -3.2800   -5.2160 c3        1 996     -0.207667
     32 C32         2.5500   -3.1670   -6.4830 c3        1 996     -0.207667
     33 H1          3.2400    3.6600    3.7040 hc        1 996      0.105667
     34 H2          2.4800    4.6480    4.7330 hc        1 996      0.105667
     35 H3          2.6330    5.0560    3.2130 hc        1 996      0.105667
     36 H4          1.5160    3.2390    1.4470 hn        1 996      0.219000
     37 H5         -1.1440    3.0050    2.5060 h1        1 996      0.126000
     38 H6         -0.1990    5.2190    1.1420 hc        1 996      0.111000
     39 H7         -1.4490    4.5690    0.3860 hc        1 996      0.111000
     40 H8         -3.5680    5.3220    1.0420 ha        1 996      0.127000
     41 H9         -4.9730    6.5040    2.5670 ha        1 996      0.133500
     42 H10        -4.1500    7.1380    4.6910 ha        1 996      0.133500
     43 H11        -1.9230    6.5770    5.2670 ha        1 996      0.133500
     44 H12        -0.5250    5.4060    3.7620 ha        1 996      0.133500
     45 H13        -0.1760    2.5390   -0.1760 h1        1 996      0.075000
     46 H14        -2.1160    2.3440   -0.7030 ho        1 996      0.222000
     47 H15        -0.8220    0.6460    1.8550 h1        1 996      0.096000
     48 H16         0.6600    0.9170    1.3120 h1        1 996      0.096000
     49 H17        -0.0950    0.2000   -0.7990 hn        1 996      0.155000
     50 H19         0.8360   -1.2320    1.0690 h1        1 996      0.083000
     51 H20        -1.3390   -4.5200   -0.5480 ha        1 996      0.098500
     52 H21         0.0250   -5.0760    0.0570 ha        1 996      0.098500
     53 H22        -2.0410   -3.8790    2.6760 hc        1 996      0.076000
     54 H23        -2.7040   -4.0580    1.1910 hc        1 996      0.076000
     55 H24        -1.7860   -5.2570    1.8060 hc        1 996      0.076000
     56 H25         1.3380   -3.4270    1.6860 hc        1 996      0.076000
     57 H26         0.6990   -4.8290    2.0550 hc        1 996      0.076000
     58 H27         0.3200   -3.5810    2.9570 hc        1 996      0.076000
     59 H28        -0.8940   -1.8380    2.0480 hc        1 996      0.089500
     60 H29        -1.6800   -2.0190    0.6010 hc        1 996      0.089500
     61 H30         1.9140   -0.7330   -1.9860 DU        1 996      0.171000
     62 H31         3.3720   -2.8460   -3.8790 ha        1 996      0.105000
     63 H32         2.4960   -1.6600   -4.4000 ha        1 996      0.105000
     64 H33         1.7840   -5.5940   -5.4690 hc        1 996      0.079444
     65 H34         3.1970   -5.1170   -4.7400 hc        1 996      0.079444
     66 H35         1.8200   -5.1780   -3.8670 hc        1 996      0.079444
     67 H36         0.0510   -3.5950   -6.1360 hc        1 996      0.079444
     68 H37         0.1820   -2.2910   -5.0970 hc        1 996      0.079444
     69 H38        -0.0540   -3.8020   -4.4990 hc        1 996      0.079444
     70 H39         2.2100   -3.7760   -7.1600 hc        1 996      0.079444
     71 H40         3.5690   -3.2690   -6.4120 hc        1 996      0.079444
     72 H41         2.3280   -2.2280   -6.7390 hc        1 996      0.079444
@<TRIPOS>BOND
     1    1    2 1   
     2    2    3 1   
     3    3   33 1   
     4    3   34 1   
     5    3   35 1   
     6    4    5 1   
     7    4   36 1   
     8    5    6 1   
     9    5   13 1   
    10    5   37 1   
    11    6    7 1   
    12    6   38 1   
    13    6   39 1   
    14    7    8 1   
    15    8   40 1   
    16    9   10 1   
    17    9   41 1   
    18   10   42 1   
    19   11   12 1   
    20   11   43 1   
    21   12   44 1   
    22   13   14 1   
    23   13   15 1   
    24   13   45 1   
    25   14   46 1   
    26   15   16 1   
    27   15   47 1   
    28   15   48 1   
    29   16   17 1   
    30   16   49 1   
    31   17   18 1   
    32   17   24 1   
    33   17   50 1   
    34   18   19 1   
    35   18   27 1   
    36   19   25 1   
    37   20   21 1   
    38   20   51 1   
    39   20   52 1   
    40   21   22 1   
    41   21   23 1   
    42   21   24 1   
    43   22   53 1   
    44   22   54 1   
    45   22   55 1   
    46   23   56 1   
    47   23   57 1   
    48   23   58 1   
    49   24   59 1   
    50   24   60 1   
    51   25   26 1   
    52   26   27 1   
    53   28   29 1   
    54   28   62 1   
    55   28   63 1   
    56   29   30 1   
    57   29   31 1   
    58   29   32 1   
    59   30   64 1   
    60   30   65 1   
    61   30   66 1   
    62   31   67 1   
    63   31   68 1   
    64   31   69 1   
    65   32   70 1   
    66   32   71 1   
    67   32   72 1   
@<TRIPOS>SUBSTRUCTURE
     1 996         1 TEMP              0 ****  ****    0 ROOT
