@<TRIPOS>MOLECULE
996
   74    76     1     0     0
SMALL
bcc


@<TRIPOS>ATOM
      1 O21         3.3240   -0.3340   -0.4160 o         1 996     -0.448100
      2 C6          3.1110   -1.2370   -1.2120 c         1 996      0.577100
      3 C5          3.4310   -2.6830   -1.0930 c3        1 996     -0.197100
      4 N7          2.4600   -0.7990   -2.5190 n4        1 996     -0.691800
      5 C8          1.0310   -0.3460   -2.4040 c3        1 996      0.091500
      6 C13         0.0790   -1.5320   -2.1710 c3        1 996     -0.053100
      7 C22         0.3680   -2.6980   -3.0480 ca        1 996     -0.179300
      8 C23         0.4130   -3.9850   -2.4960 ca        1 996     -0.143000
      9 C24         0.6000   -5.0950   -3.3200 ca        1 996     -0.104000
     10 C25         0.7450   -4.9290   -4.6980 ca        1 996     -0.086000
     11 C26         0.6960   -3.6480   -5.2540 ca        1 996     -0.104000
     12 C27         0.5050   -2.5370   -4.4340 ca        1 996     -0.143000
     13 C9          0.7840    0.7340   -1.3150 c3        1 996      0.118100
     14 O1         -0.5690    1.1340   -1.3930 oh        1 996     -0.590800
     15 C10         1.6150    2.0100   -1.5830 c3        1 996      0.089800
     16 N11         1.1650    3.1760   -0.7860 n4        1 996     -0.774000
     17 C12         1.9120    4.4740   -1.1490 c3        1 996      0.274800
     18 C17         1.6720    5.4580   -0.0960 cc        1 996     -0.411600
     19 C16         1.2640    6.8260   -0.3700 cc        1 996      0.370600
     20 C14         1.0430    7.3360   -1.7390 c3        1 996     -0.115700
     21 C2          1.7760    6.4610   -2.7630 c3        1 996     -0.037000
     22 C3          3.2760    6.6970   -2.6900 c3        1 996     -0.100100
     23 C4          1.2820    6.8310   -4.1570 c3        1 996     -0.100100
     24 C15         1.4520    4.9820   -2.5250 c3        1 996     -0.093400
     25 N20         1.1840    7.5210    0.7960 nd        1 996     -0.458800
     26 N19         1.5120    6.6700    1.7850 na        1 996      0.150400
     27 C18         1.8450    5.4100    1.3070 cd        1 996     -0.110300
     28 C28         1.5680    7.0540    3.1940 c3        1 996      0.039300
     29 C29         2.9570    7.4840    3.7110 c3        1 996     -0.067000
     30 C30         3.4810    8.6740    2.9270 c3        1 996     -0.095433
     31 C31         2.7660    7.8850    5.1700 c3        1 996     -0.095433
     32 C32         3.9410    6.3310    3.6320 c3        1 996     -0.095433
     33 H1          2.5520   -3.3250   -1.3720 hc        1 996      0.130033
     34 H2          3.7250   -2.9010   -0.0310 hc        1 996      0.130033
     35 H3          4.2970   -2.9420   -1.7590 hc        1 996      0.130033
     36 H4          3.0130   -0.0340   -2.9180 hn        1 996      0.470800
     37 H5          0.7710    0.1140   -3.4100 hx        1 996      0.125700
     38 H6          0.1070   -1.8340   -1.0900 hc        1 996      0.092200
     39 H7         -0.9630   -1.1640   -2.3990 hc        1 996      0.092200
     40 H8          0.2620   -4.1310   -1.4150 ha        1 996      0.135500
     41 H9          0.6150   -6.1070   -2.8820 ha        1 996      0.167500
     42 H10         0.8790   -5.8080   -5.3510 ha        1 996      0.173000
     43 H11         0.7870   -3.5170   -6.3450 ha        1 996      0.167500
     44 H12         0.4090   -1.5400   -4.8900 ha        1 996      0.135500
     45 H13         1.0250    0.3180   -0.2950 h1        1 996      0.085700
     46 H14        -1.1190    0.4590   -0.9660 ho        1 996      0.459000
     47 H15         2.6940    1.8040   -1.3270 hx        1 996      0.109200
     48 H16         1.5270    2.2930   -2.6720 hx        1 996      0.109200
     49 H17         1.3020    2.9940    0.2130 hn        1 996      0.458300
     50 H19         3.0050    4.1810   -1.1890 hx        1 996      0.093700
     51 H20        -0.0590    7.3390   -1.9600 hc        1 996      0.090200
     52 H21         1.4050    8.3970   -1.8330 hc        1 996      0.090200
     53 H22         3.8110    6.0380   -3.4160 hc        1 996      0.052367
     54 H23         3.6590    6.4930   -1.6610 hc        1 996      0.052367
     55 H24         3.5080    7.7600   -2.9470 hc        1 996      0.052367
     56 H25         1.8270    6.2430   -4.9330 hc        1 996      0.052367
     57 H26         0.1870    6.6330   -4.2560 hc        1 996      0.052367
     58 H27         1.4630    7.9180   -4.3450 hc        1 996      0.052367
     59 H28         0.3400    4.8600   -2.6350 hc        1 996      0.056700
     60 H29         1.9540    4.3750   -3.3230 hc        1 996      0.056700
     61 H30         2.1740    4.6110    1.9710 h4        1 996      0.179000
     62 H31         1.2160    6.1620    3.7850 h1        1 996      0.085700
     63 H32         0.8460    7.9080    3.3540 h1        1 996      0.085700
     64 H33         4.3910    9.0860    3.4280 hc        1 996      0.047367
     65 H34         3.7600    8.3790    1.8870 hc        1 996      0.047367
     66 H35         2.7090    9.4790    2.8760 hc        1 996      0.047367
     67 H36         2.3520    7.0340    5.7620 hc        1 996      0.047367
     68 H37         2.0700    8.7540    5.2490 hc        1 996      0.047367
     69 H38         3.7490    8.1790    5.6110 hc        1 996      0.047367
     70 H39         4.9160    6.6360    4.0870 hc        1 996      0.047367
     71 H40         3.5540    5.4450    4.1910 hc        1 996      0.047367
     72 H41         4.1300    6.0360    2.5720 hc        1 996      0.047367
     73 H72         2.4670   -1.5980   -3.1790 hn        1 996      0.470800
     74 H112        0.1560    3.3210   -0.9430 hn        1 996      0.458300
@<TRIPOS>BOND
     1    1    2 2   
     2    2    3 1   
     3    2    4 1   
     4    3   33 1   
     5    3   34 1   
     6    3   35 1   
     7    4    5 1   
     8    4   36 1   
     9    4   73 1   
    10    5    6 1   
    11    5   13 1   
    12    5   37 1   
    13    6    7 1   
    14    6   38 1   
    15    6   39 1   
    16    7    8 ar  
    17    7   12 ar  
    18    8    9 ar  
    19    8   40 1   
    20    9   10 ar  
    21    9   41 1   
    22   10   11 ar  
    23   10   42 1   
    24   11   12 ar  
    25   11   43 1   
    26   12   44 1   
    27   13   14 1   
    28   13   15 1   
    29   13   45 1   
    30   14   46 1   
    31   15   16 1   
    32   15   47 1   
    33   15   48 1   
    34   16   17 1   
    35   16   49 1   
    36   16   74 1   
    37   17   18 1   
    38   17   24 1   
    39   17   50 1   
    40   18   19 1   
    41   18   27 2   
    42   19   20 1   
    43   19   25 2   
    44   20   21 1   
    45   20   51 1   
    46   20   52 1   
    47   21   22 1   
    48   21   23 1   
    49   21   24 1   
    50   22   53 1   
    51   22   54 1   
    52   22   55 1   
    53   23   56 1   
    54   23   57 1   
    55   23   58 1   
    56   24   59 1   
    57   24   60 1   
    58   25   26 1   
    59   26   27 1   
    60   26   28 1   
    61   27   61 1   
    62   28   29 1   
    63   28   62 1   
    64   28   63 1   
    65   29   30 1   
    66   29   31 1   
    67   29   32 1   
    68   30   64 1   
    69   30   65 1   
    70   30   66 1   
    71   31   67 1   
    72   31   68 1   
    73   31   69 1   
    74   32   70 1   
    75   32   71 1   
    76   32   72 1   
@<TRIPOS>SUBSTRUCTURE
     1 996         1 TEMP              0 ****  ****    0 ROOT
