@<TRIPOS>MOLECULE
996
   74    76     1     0     0
SMALL
bcc


@<TRIPOS>ATOM
      1 O21         3.3690   -0.3140   -0.4490 o         1 996     -0.448100
      2 C6          3.1490   -1.2200   -1.2400 c         1 996      0.577100
      3 C5          3.4860   -2.6620   -1.1270 c3        1 996     -0.197100
      4 N7          2.4660   -0.7890   -2.5330 n4        1 996     -0.691800
      5 C8          1.0350   -0.3520   -2.3890 c3        1 996      0.091500
      6 C13         0.1010   -1.5480   -2.1380 c3        1 996     -0.053100
      7 C22         0.3850   -2.7120   -3.0200 ca        1 996     -0.179300
      8 C23         0.4560   -3.9970   -2.4700 ca        1 996     -0.143000
      9 C24         0.6380   -5.1050   -3.2980 ca        1 996     -0.104000
     10 C25         0.7530   -4.9380   -4.6780 ca        1 996     -0.086000
     11 C26         0.6790   -3.6570   -5.2320 ca        1 996     -0.104000
     12 C27         0.4930   -2.5490   -4.4090 ca        1 996     -0.143000
     13 C9          0.7990    0.7250   -1.2940 c3        1 996      0.118100
     14 O1         -0.5600    1.1100   -1.3450 oh        1 996     -0.590800
     15 C10         1.6090    2.0110   -1.5800 c3        1 996      0.089800
     16 N11         1.1630    3.1710   -0.7720 n4        1 996     -0.774000
     17 C12         1.8860    4.4780   -1.1520 c3        1 996      0.274800
     18 C17         1.6620    5.4580   -0.0910 cc        1 996     -0.411600
     19 C16         1.2310    6.8210   -0.3530 cc        1 996      0.370600
     20 C14         0.9710    7.3300   -1.7160 c3        1 996     -0.115700
     21 C2          1.6880    6.4650   -2.7590 c3        1 996     -0.037000
     22 C3          3.1860    6.7180   -2.7240 c3        1 996     -0.100100
     23 C4          1.1540    6.8310   -4.1400 c3        1 996     -0.100100
     24 C15         1.3860    4.9820   -2.5150 c3        1 996     -0.093400
     25 N20         1.1720    7.5140    0.8150 nd        1 996     -0.458800
     26 N19         1.5340    6.6650    1.7950 na        1 996      0.150400
     27 C18         1.8690    5.4100    1.3060 cd        1 996     -0.111300
     28 C28         1.6210    7.0490    3.2020 c3        1 996      0.039300
     29 C29         3.0180    7.4930    3.6850 c3        1 996     -0.067000
     30 C30         3.5100    8.6900    2.8900 c3        1 996     -0.095433
     31 C31         2.8590    7.8890    5.1490 c3        1 996     -0.095433
     32 C32         4.0130    6.3510    3.5800 c3        1 996     -0.095433
     33 H1          2.6080   -3.3130   -1.3870 hc        1 996      0.130033
     34 H2          3.8040   -2.8770   -0.0700 hc        1 996      0.130033
     35 H3          4.3410   -2.9130   -1.8100 hc        1 996      0.130033
     36 H4          3.0030   -0.0180   -2.9440 hn        1 996      0.470800
     37 H5          0.7500    0.1050   -3.3900 hx        1 996      0.125700
     38 H6          0.1540   -1.8510   -1.0580 hc        1 996      0.092200
     39 H7         -0.9500   -1.1920   -2.3440 hc        1 996      0.092200
     40 H8          0.3280   -4.1460   -1.3850 ha        1 996      0.135500
     41 H9          0.6730   -6.1170   -2.8600 ha        1 996      0.167500
     42 H10         0.8840   -5.8160   -5.3330 ha        1 996      0.173000
     43 H11         0.7470   -3.5260   -6.3250 ha        1 996      0.167500
     44 H12         0.3770   -1.5530   -4.8620 ha        1 996      0.135500
     45 H13         1.0660    0.3120   -0.2800 h1        1 996      0.085700
     46 H14        -1.0940    0.4280   -0.9070 ho        1 996      0.459000
     47 H15         1.4940    2.2930   -2.6660 hx        1 996      0.109200
     48 H16         2.6960    1.8160   -1.3480 hx        1 996      0.109200
     49 H17         1.3260    2.9900    0.2240 hn        1 996      0.458300
     50 H19         2.9810    4.1970   -1.2200 hx        1 996      0.093700
     51 H20        -0.1370    7.3210   -1.9100 hc        1 996      0.090200
     52 H21         1.3180    8.3950   -1.8170 hc        1 996      0.090200
     53 H22         3.5970    6.5170   -1.7050 hc        1 996      0.052367
     54 H23         3.3990    7.7840   -2.9840 hc        1 996      0.052367
     55 H24         3.7100    6.0650   -3.4630 hc        1 996      0.052367
     56 H25         0.0600    6.6210   -4.2120 hc        1 996      0.052367
     57 H26         1.6870    6.2500   -4.9300 hc        1 996      0.052367
     58 H27         1.3190    7.9200   -4.3310 hc        1 996      0.052367
     59 H28         0.2730    4.8470   -2.5980 hc        1 996      0.056700
     60 H29         1.8750    4.3810   -3.3260 hc        1 996      0.056700
     61 H30         2.2250    4.6140    1.9610 h4        1 996      0.179000
     62 H31         0.8950    7.8950    3.3810 h1        1 996      0.085700
     63 H32         1.2940    6.1520    3.8000 h1        1 996      0.085700
     64 H33         4.4280    9.1110    3.3690 hc        1 996      0.047367
     65 H34         3.7650    8.4000    1.8430 hc        1 996      0.047367
     66 H35         2.7280    9.4870    2.8610 hc        1 996      0.047367
     67 H36         2.4700    7.0330    5.7500 hc        1 996      0.047367
     68 H37         2.1550    8.7510    5.2470 hc        1 996      0.047367
     69 H38         3.8500    8.1940    5.5660 hc        1 996      0.047367
     70 H39         4.1790    6.0600    2.5150 hc        1 996      0.047367
     71 H40         3.6490    5.4600    4.1460 hc        1 996      0.047367
     72 H41         4.9950    6.6650    4.0110 hc        1 996      0.047367
     73 H72         2.4690   -1.5890   -3.1930 hn        1 996      0.470800
     74 H112        0.1490    3.3030   -0.9060 hn        1 996      0.458300
@<TRIPOS>BOND
     1    1    2 2   
     2    2    3 1   
     3    2    4 1   
     4    3   33 1   
     5    3   34 1   
     6    3   35 1   
     7    4    5 1   
     8    4   36 1   
     9    4   73 1   
    10    5    6 1   
    11    5   13 1   
    12    5   37 1   
    13    6    7 1   
    14    6   38 1   
    15    6   39 1   
    16    7    8 ar  
    17    7   12 ar  
    18    8    9 ar  
    19    8   40 1   
    20    9   10 ar  
    21    9   41 1   
    22   10   11 ar  
    23   10   42 1   
    24   11   12 ar  
    25   11   43 1   
    26   12   44 1   
    27   13   14 1   
    28   13   15 1   
    29   13   45 1   
    30   14   46 1   
    31   15   16 1   
    32   15   47 1   
    33   15   48 1   
    34   16   17 1   
    35   16   49 1   
    36   16   74 1   
    37   17   18 1   
    38   17   24 1   
    39   17   50 1   
    40   18   19 1   
    41   18   27 2   
    42   19   20 1   
    43   19   25 2   
    44   20   21 1   
    45   20   51 1   
    46   20   52 1   
    47   21   22 1   
    48   21   23 1   
    49   21   24 1   
    50   22   53 1   
    51   22   54 1   
    52   22   55 1   
    53   23   56 1   
    54   23   57 1   
    55   23   58 1   
    56   24   59 1   
    57   24   60 1   
    58   25   26 1   
    59   26   27 1   
    60   26   28 1   
    61   27   61 1   
    62   28   29 1   
    63   28   62 1   
    64   28   63 1   
    65   29   30 1   
    66   29   31 1   
    67   29   32 1   
    68   30   64 1   
    69   30   65 1   
    70   30   66 1   
    71   31   67 1   
    72   31   68 1   
    73   31   69 1   
    74   32   70 1   
    75   32   71 1   
    76   32   72 1   
@<TRIPOS>SUBSTRUCTURE
     1 996         1 TEMP              0 ****  ****    0 ROOT
