@<TRIPOS>MOLECULE
996
   74    76     1     0     0
SMALL
bcc


@<TRIPOS>ATOM
      1 O21         3.3030   -0.3400   -0.3900 o         1 996     -0.448100
      2 C6          3.0940   -1.2450   -1.1850 c         1 996      0.577100
      3 C5          3.4060   -2.6920   -1.0580 c3        1 996     -0.197100
      4 N7          2.4600   -0.8080   -2.5000 ny        1 996     -0.691800
      5 C8          1.0320   -0.3480   -2.4020 c3        1 996      0.091500
      6 C13         0.0710   -1.5290   -2.1770 c3        1 996     -0.053100
      7 C22         0.3650   -2.6990   -3.0470 ca        1 996     -0.179300
      8 C23         0.3980   -3.9840   -2.4910 ca        1 996     -0.143000
      9 C24         0.5890   -5.0970   -3.3100 ca        1 996     -0.104000
     10 C25         0.7500   -4.9360   -4.6870 ca        1 996     -0.086000
     11 C26         0.7130   -3.6560   -5.2460 ca        1 996     -0.104000
     12 C27         0.5180   -2.5420   -4.4320 ca        1 996     -0.143000
     13 C9          0.7780    0.7360   -1.3190 c3        1 996      0.118100
     14 O1         -0.5730    1.1430   -1.4130 oh        1 996     -0.590800
     15 C10         1.6180    2.0080   -1.5820 c3        1 996      0.089800
     16 N11         1.1640    3.1780   -0.7930 ny        1 996     -0.774000
     17 C12         1.9210    4.4720   -1.1530 c3        1 996      0.274800
     18 C17         1.6760    5.4600   -0.1040 cc        1 996     -0.411600
     19 C16         1.2770    6.8290   -0.3860 cc        1 996      0.370600
     20 C14         1.0710    7.3370   -1.7590 c3        1 996     -0.115700
     21 C2          1.8100    6.4550   -2.7730 c3        1 996     -0.037000
     22 C3          3.3100    6.6840   -2.6880 c3        1 996     -0.100100
     23 C4          1.3290    6.8240   -4.1730 c3        1 996     -0.100100
     24 C15         1.4760    4.9780   -2.5340 c3        1 996     -0.093400
     25 N20         1.1890    7.5280    0.7770 nd        1 996     -0.458800
     26 N19         1.5040    6.6770    1.7720 na        1 996      0.150400
     27 C18         1.8350    5.4150    1.3000 cd        1 996     -0.111300
     28 C28         1.5490    7.0660    3.1800 c3        1 996      0.039300
     29 C29         2.9350    7.4900    3.7080 c3        1 996     -0.067000
     30 C30         3.4730    8.6750    2.9260 c3        1 996     -0.095433
     31 C31         2.7330    7.8960    5.1650 c3        1 996     -0.095433
     32 C32         3.9140    6.3310    3.6420 c3        1 996     -0.095433
     33 H1          3.6870   -2.9080    0.0090 hc        1 996      0.130033
     34 H2          2.5270   -3.3310   -1.3440 hc        1 996      0.130033
     35 H3          4.2790   -2.9580   -1.7130 hc        1 996      0.130033
     36 H4          2.4700   -1.6090   -3.1570 hn        1 996      0.470800
     37 H5          0.7860    0.1100   -3.4130 hx        1 996      0.125700
     38 H6          0.0860   -1.8280   -1.0950 hc        1 996      0.092200
     39 H7         -0.9660   -1.1570   -2.4170 hc        1 996      0.092200
     40 H8          0.2350   -4.1270   -1.4110 ha        1 996      0.135500
     41 H9          0.5950   -6.1080   -2.8690 ha        1 996      0.167500
     42 H10         0.8870   -5.8180   -5.3350 ha        1 996      0.173000
     43 H11         0.8160   -3.5290   -6.3370 ha        1 996      0.167500
     44 H12         0.4310   -1.5460   -4.8910 ha        1 996      0.135500
     45 H13         1.0060    0.3230   -0.2950 h1        1 996      0.085700
     46 H14        -1.1310    0.4710   -0.9910 ho        1 996      0.459000
     47 H15         2.6930    1.7980   -1.3140 hx        1 996      0.109200
     48 H16         1.5430    2.2880   -2.6730 hx        1 996      0.109200
     49 H17         1.2910    2.9990    0.2080 hn        1 996      0.458300
     50 H19         3.0130    4.1730   -1.1820 hx        1 996      0.093700
     51 H20         1.4390    8.3950   -1.8510 hc        1 996      0.090200
     52 H21        -0.0290    7.3440   -1.9900 hc        1 996      0.090200
     53 H22         3.8480    6.0200   -3.4060 hc        1 996      0.052367
     54 H23         3.6820    6.4810   -1.6550 hc        1 996      0.052367
     55 H24         3.5490    7.7450   -2.9450 hc        1 996      0.052367
     56 H25         1.8790    6.2310   -4.9420 hc        1 996      0.052367
     57 H26         0.2350    6.6310   -4.2810 hc        1 996      0.052367
     58 H27         1.5180    7.9090   -4.3620 hc        1 996      0.052367
     59 H28         1.9820    4.3660   -3.3260 hc        1 996      0.056700
     60 H29         0.3640    4.8610   -2.6550 hc        1 996      0.056700
     61 H30         2.1550    4.6160    1.9690 h4        1 996      0.179000
     62 H31         0.8300    7.9230    3.3310 h1        1 996      0.085700
     63 H32         1.1870    6.1760    3.7700 h1        1 996      0.085700
     64 H33         2.7050    9.4840    2.8660 hc        1 996      0.047367
     65 H34         4.3800    9.0840    3.4350 hc        1 996      0.047367
     66 H35         3.7600    8.3760    1.8900 hc        1 996      0.047367
     67 H36         2.0400    8.7680    5.2350 hc        1 996      0.047367
     68 H37         2.3090    7.0480    5.7550 hc        1 996      0.047367
     69 H38         3.7130    8.1860    5.6140 hc        1 996      0.047367
     70 H39         4.1120    6.0330    2.5850 hc        1 996      0.047367
     71 H40         4.8860    6.6330    4.1050 hc        1 996      0.047367
     72 H41         3.5170    5.4490    4.2000 hc        1 996      0.047367
     73 H72         3.0210   -0.0460   -2.8950 hn        1 996      0.470800
     74 H112        0.1580    3.3270   -0.9610 hn        1 996      0.458300
@<TRIPOS>BOND
     1    1    2 2   
     2    2    3 1   
     3    2    4 1   
     4    3   33 1   
     5    3   34 1   
     6    3   35 1   
     7    4    5 1   
     8    4   36 1   
     9    4   73 1   
    10    5    6 1   
    11    5   13 1   
    12    5   37 1   
    13    6    7 1   
    14    6   38 1   
    15    6   39 1   
    16    7    8 ar  
    17    7   12 ar  
    18    8    9 ar  
    19    8   40 1   
    20    9   10 ar  
    21    9   41 1   
    22   10   11 ar  
    23   10   42 1   
    24   11   12 ar  
    25   11   43 1   
    26   12   44 1   
    27   13   14 1   
    28   13   15 1   
    29   13   45 1   
    30   14   46 1   
    31   15   16 1   
    32   15   47 1   
    33   15   48 1   
    34   16   17 1   
    35   16   49 1   
    36   16   74 1   
    37   17   18 1   
    38   17   24 1   
    39   17   50 1   
    40   18   19 1   
    41   18   27 2   
    42   19   20 1   
    43   19   25 2   
    44   20   21 1   
    45   20   51 1   
    46   20   52 1   
    47   21   22 1   
    48   21   23 1   
    49   21   24 1   
    50   22   53 1   
    51   22   54 1   
    52   22   55 1   
    53   23   56 1   
    54   23   57 1   
    55   23   58 1   
    56   24   59 1   
    57   24   60 1   
    58   25   26 1   
    59   26   27 1   
    60   26   28 1   
    61   27   61 1   
    62   28   29 1   
    63   28   62 1   
    64   28   63 1   
    65   29   30 1   
    66   29   31 1   
    67   29   32 1   
    68   30   64 1   
    69   30   65 1   
    70   30   66 1   
    71   31   67 1   
    72   31   68 1   
    73   31   69 1   
    74   32   70 1   
    75   32   71 1   
    76   32   72 1   
@<TRIPOS>SUBSTRUCTURE
     1 996         1 TEMP              0 ****  ****    0 ROOT
