@<TRIPOS>MOLECULE
996
   72    74     1     0     0
SMALL
bcc


@<TRIPOS>ATOM
      1 O21        -3.4150    2.2750    0.0170 o         1 996     -0.602100
      2 C6         -3.6680    1.6580    1.0700 c         1 996      0.651100
      3 C5         -4.0900    2.3890    2.3230 c3        1 996     -0.177100
      4 N7         -3.5260    0.2800    1.1660 n         1 996     -0.557900
      5 C8         -3.3000   -0.5730    0.0220 c3        1 996      0.086700
      6 C13        -4.4400   -0.5410   -1.0160 c3        1 996     -0.074100
      7 C22        -5.7130   -1.0830   -0.4730 ca        1 996     -0.081300
      8 C23        -6.8240   -0.2480   -0.3040 ca        1 996     -0.132000
      9 C24        -8.0230   -0.7620    0.1890 ca        1 996     -0.128500
     10 C25        -8.1240   -2.1140    0.5160 ca        1 996     -0.133000
     11 C26        -7.0230   -2.9530    0.3450 ca        1 996     -0.128500
     12 C27        -5.8250   -2.4410   -0.1480 ca        1 996     -0.132000
     13 C9         -1.9650   -0.2650   -0.7150 c3        1 996      0.120100
     14 O1         -1.8150   -1.1490   -1.8120 oh        1 996     -0.591800
     15 C10        -0.7700   -0.3920    0.2480 c3        1 996      0.142800
     16 N11         0.4950   -0.1310   -0.4020 n3        1 996     -0.822200
     17 C12         1.6630   -0.5550    0.3610 c3        1 996      0.266800
     18 C17         2.9100    0.0080   -0.2120 cc        1 996     -0.260600
     19 C16         4.1860   -0.6870   -0.2030 cc        1 996      0.309600
     20 C14         4.3540   -2.0610    0.3150 c3        1 996     -0.093700
     21 C2          3.1530   -2.4850    1.1700 c3        1 996     -0.044000
     22 C3          3.2610   -1.8660    2.5560 c3        1 996     -0.089100
     23 C4          3.1770   -4.0040    1.3090 c3        1 996     -0.089100
     24 C15         1.8390   -2.0840    0.4990 c3        1 996     -0.100400
     25 N20         5.1460    0.0980   -0.7650 nd        1 996     -0.509800
     26 N19         4.5370    1.2360   -1.1460 na        1 996      0.082400
     27 C18         3.1720    1.2400   -0.8160 cd        1 996     -0.110300
     28 C28         5.2280    2.3620   -1.7400 c3        1 996      0.061300
     29 C29         5.7380    3.4390   -0.7570 c3        1 996     -0.072000
     30 C30         6.6960    2.8350    0.2550 c3        1 996     -0.089767
     31 C31         6.4760    4.4810   -1.5890 c3        1 996     -0.089767
     32 C32         4.5750    4.1030   -0.0400 c3        1 996     -0.089767
     33 H1         -4.1280    3.4840    2.1030 hc        1 996      0.066700
     34 H2         -5.1000    2.0490    2.6540 hc        1 996      0.066700
     35 H3         -3.3560    2.2100    3.1450 hc        1 996      0.066700
     36 H4         -3.9590   -0.1630    1.9430 hn        1 996      0.305500
     37 H5         -3.2270   -1.6310    0.4220 h1        1 996      0.044700
     38 H6         -4.5750    0.5150   -1.3750 hc        1 996      0.080200
     39 H7         -4.1190   -1.1570   -1.9000 hc        1 996      0.080200
     40 H8         -6.7520    0.8180   -0.5680 ha        1 996      0.132500
     41 H9         -8.8920   -0.0990    0.3160 ha        1 996      0.131500
     42 H10        -9.0700   -2.5180    0.9040 ha        1 996      0.132000
     43 H11        -7.1010   -4.0210    0.5950 ha        1 996      0.131500
     44 H12        -4.9620   -3.1080   -0.2940 ha        1 996      0.132500
     45 H13        -2.0100    0.7610   -1.1800 h1        1 996      0.125700
     46 H14        -1.7370   -2.0440   -1.4580 ho        1 996      0.391000
     47 H15        -0.8810    0.3680    1.0720 h1        1 996      0.033700
     48 H16        -0.8150   -1.4180    0.7220 h1        1 996      0.033700
     49 H17         0.5100   -0.5180   -1.3280 hn        1 996      0.373800
     50 H19         1.5360   -0.1320    1.4070 h1        1 996      0.060700
     51 H20         4.4560   -2.7650   -0.5560 hc        1 996      0.057700
     52 H21         5.2920   -2.1430    0.9260 hc        1 996      0.057700
     53 H22         3.4070   -0.7610    2.4770 hc        1 996      0.035867
     54 H23         2.3340   -2.0660    3.1430 hc        1 996      0.035867
     55 H24         4.1310   -2.2990    3.1050 hc        1 996      0.035867
     56 H25         4.1570   -4.3370    1.7270 hc        1 996      0.035867
     57 H26         2.3640   -4.3410    1.9950 hc        1 996      0.035867
     58 H27         3.0300   -4.4900    0.3150 hc        1 996      0.035867
     59 H28         0.9900   -2.4980    1.1040 hc        1 996      0.040700
     60 H29         1.8000   -2.5570   -0.5170 hc        1 996      0.040700
     61 H30         2.5170    2.0800   -1.0440 h4        1 996      0.185000
     62 H31         6.1110    1.9750   -2.3260 h1        1 996      0.065700
     63 H32         4.5040    2.8490   -2.4550 h1        1 996      0.065700
     64 H33         7.4790    2.2310   -0.2630 hc        1 996      0.039811
     65 H34         7.1960    3.6460    0.8380 hc        1 996      0.039811
     66 H35         6.1520    2.1730    0.9710 hc        1 996      0.039811
     67 H36         7.3580    4.0230   -2.0960 hc        1 996      0.039811
     68 H37         5.7990    4.9140   -2.3650 hc        1 996      0.039811
     69 H38         6.8350    5.3080   -0.9300 hc        1 996      0.039811
     70 H39         4.9520    4.9110    0.6310 hc        1 996      0.039811
     71 H40         3.8690    4.5540   -0.7780 hc        1 996      0.039811
     72 H41         4.0160    3.3610    0.5800 hc        1 996      0.039811
@<TRIPOS>BOND
     1    1    2 2   
     2    2    3 1   
     3    2    4 1   
     4    3   33 1   
     5    3   34 1   
     6    3   35 1   
     7    4    5 1   
     8    4   36 1   
     9    5    6 1   
    10    5   13 1   
    11    5   37 1   
    12    6    7 1   
    13    6   38 1   
    14    6   39 1   
    15    7    8 ar  
    16    7   12 ar  
    17    8    9 ar  
    18    8   40 1   
    19    9   10 ar  
    20    9   41 1   
    21   10   11 ar  
    22   10   42 1   
    23   11   12 ar  
    24   11   43 1   
    25   12   44 1   
    26   13   14 1   
    27   13   15 1   
    28   13   45 1   
    29   14   46 1   
    30   15   16 1   
    31   15   47 1   
    32   15   48 1   
    33   16   17 1   
    34   16   49 1   
    35   17   18 1   
    36   17   24 1   
    37   17   50 1   
    38   18   19 1   
    39   18   27 2   
    40   19   20 1   
    41   19   25 2   
    42   20   21 1   
    43   20   51 1   
    44   20   52 1   
    45   21   22 1   
    46   21   23 1   
    47   21   24 1   
    48   22   53 1   
    49   22   54 1   
    50   22   55 1   
    51   23   56 1   
    52   23   57 1   
    53   23   58 1   
    54   24   59 1   
    55   24   60 1   
    56   25   26 1   
    57   26   27 1   
    58   26   28 1   
    59   27   61 1   
    60   28   29 1   
    61   28   62 1   
    62   28   63 1   
    63   29   30 1   
    64   29   31 1   
    65   29   32 1   
    66   30   64 1   
    67   30   65 1   
    68   30   66 1   
    69   31   67 1   
    70   31   68 1   
    71   31   69 1   
    72   32   70 1   
    73   32   71 1   
    74   32   72 1   
@<TRIPOS>SUBSTRUCTURE
     1 996         1 TEMP              0 ****  ****    0 ROOT
