@<TRIPOS>MOLECULE
997
   84    87     1     0     0
SMALL
bcc


@<TRIPOS>ATOM
      1 C1          0.5460   -1.0210    0.8120 ca        1 997     -0.192300
      2 C2          0.8600   -0.5330   -0.5680 c3        1 997      0.226800
      3 C3          0.2040   -0.1350    1.8450 ca        1 997     -0.011300
      4 C4          0.5340   -2.4070    1.0570 ca        1 997     -0.143000
      5 N5          2.2310   -1.0930   -0.9910 n4        1 997     -0.685800
      6 C6          0.8610    0.9920   -0.7240 c3        1 997     -0.099400
      7 C7          0.0800    1.3280    1.6070 c3        1 997     -0.060100
      8 C8         -0.0710   -0.6430    3.1240 ca        1 997     -0.113000
      9 C9          0.2570   -2.8990    2.3250 ca        1 997     -0.111000
     10 C10         2.3910   -1.1480   -2.4750 c         1 997      0.523100
     11 C11        -0.2020    1.6220    0.1490 c3        1 997     -0.074400
     12 C12        -0.0320   -2.0110    3.3690 ca        1 997     -0.063000
     13 C13         1.9960   -2.4690   -3.1600 c3        1 997      0.054700
     14 O14         2.8100   -0.1410   -3.0280 o         1 997     -0.414100
     15 N15         2.1490   -2.4080   -4.6130 n         1 997     -0.430800
     16 C16         2.9010   -3.6260   -2.6820 c3        1 997     -0.113400
     17 C17         1.3100   -1.6570   -5.3880 c         1 997      0.654100
     18 C18         3.2680   -3.2150   -5.0770 c3        1 997      0.044000
     19 C19         3.8940   -3.8940   -3.8270 c3        1 997      0.146100
     20 C20         1.5790   -1.5020   -6.9120 c3        1 997      0.071500
     21 O21         0.2830   -1.1220   -4.9170 o         1 997     -0.604100
     22 N22         0.2250   -1.5910   -7.6120 n4        1 997     -0.658800
     23 C23         2.2880   -0.1550   -7.2420 c3        1 997     -0.059000
     24 C24         0.2730   -2.1830   -8.9780 c         1 997      0.516100
     25 C25         1.4190    1.0430   -6.8930 c3        1 997     -0.117433
     26 C26         3.5880   -0.0830   -6.4500 c3        1 997     -0.117433
     27 C27         2.6350   -0.1300   -8.7250 c3        1 997     -0.117433
     28 C28        -0.7090   -1.6070  -10.0170 c3        1 997      0.062500
     29 O29         1.0620   -3.0910   -9.2050 o         1 997     -0.387100
     30 N30        -0.5580   -2.3150  -11.3400 n4        1 997     -0.760000
     31 C31        -2.1380   -1.6890   -9.4910 c3        1 997     -0.160100
     32 CNM        -0.9210   -1.4410  -12.4900 c3        1 997      0.074100
     33 OQ2         5.1020   -3.2140   -3.5140 os        1 997     -0.350900
     34 C           6.2700   -3.9700   -3.6710 ca        1 997      0.053100
     35 C5          6.5120   -4.7240   -4.8240 ca        1 997     -0.151500
     36 C14         7.7370   -5.3780   -4.9530 ca        1 997     -0.092500
     37 C15         8.7000   -5.2710   -3.9480 ca        1 997     -0.108000
     38 C21         8.4450   -4.5110   -2.8060 ca        1 997     -0.092500
     39 C22         7.2230   -3.8570   -2.6510 ca        1 997     -0.151500
     40 H43         0.1180   -0.9870   -1.2930 hx        1 997      0.090700
     41 H35         0.7110   -3.1210    0.2380 ha        1 997      0.105000
     42 HN5         2.9580   -0.4780   -0.5950 hn        1 997      0.469300
     43 HS1         0.6810    1.2480   -1.8010 hc        1 997      0.066700
     44 HS2         1.8550    1.4290   -0.4320 hc        1 997      0.066700
     45 HW1        -0.7500    1.7480    2.2380 hc        1 997      0.087700
     46 HW2         1.0280    1.8400    1.9300 hc        1 997      0.087700
     47 H36        -0.3300    0.0560    3.9380 ha        1 997      0.172000
     48 H34         0.2540   -3.9850    2.5120 ha        1 997      0.163000
     49 HV1        -0.2030    2.7320   -0.0200 hc        1 997      0.076700
     50 HV2        -1.2160    1.2360   -0.1340 hc        1 997      0.076700
     51 H33        -0.2450   -2.4010    4.3790 ha        1 997      0.175000
     52 HPA         0.9060   -2.6540   -2.9120 h1        1 997      0.120700
     53 HP1         3.4680   -3.3850   -1.7500 hc        1 997      0.098700
     54 HP2         2.2760   -4.5360   -2.4950 hc        1 997      0.098700
     55 HR1         4.0440   -2.5730   -5.5800 h1        1 997      0.081700
     56 HR2         2.8940   -3.9970   -5.7930 h1        1 997      0.081700
     57 HQ1         4.0530   -4.9900   -3.9970 h1        1 997      0.117700
     58 HTA         2.2160   -2.3560   -7.2970 hx        1 997      0.137700
     59 HN22       -0.1720   -0.6360   -7.6450 hn        1 997      0.489300
     60 HT11        2.0570    1.9640   -6.8390 hc        1 997      0.066700
     61 HT12        0.6410    1.2340   -7.6720 hc        1 997      0.066700
     62 HT13        0.9270    0.9140   -5.8970 hc        1 997      0.066700
     63 HT21        4.1220    0.8680   -6.7100 hc        1 997      0.066700
     64 HT22        3.3930   -0.0720   -5.3500 hc        1 997      0.066700
     65 HT23        4.2640   -0.9320   -6.7130 hc        1 997      0.066700
     66 HT31        3.2850   -0.9950   -9.0010 hc        1 997      0.066700
     67 HT32        1.7150   -0.1440   -9.3610 hc        1 997      0.066700
     68 HT33        3.1950    0.8130   -8.9570 hc        1 997      0.066700
     69 HAA        -0.4250   -0.5170  -10.1910 hx        1 997      0.158700
     70 H30         0.4160   -2.6390  -11.4560 hn        1 997      0.480300
     71 HB1        -2.8740   -1.3730  -10.2800 hc        1 997      0.109367
     72 HB2        -2.4040   -2.7260   -9.1650 hc        1 997      0.109367
     73 HB3        -2.2750   -0.9840   -8.6330 hc        1 997      0.109367
     74 HM1        -0.2090   -0.5730  -12.5540 hx        1 997      0.133033
     75 HM2        -0.8480   -2.0530  -13.4360 hx        1 997      0.133033
     76 HM3        -1.9740   -1.0670  -12.3710 hx        1 997      0.133033
     77 HD1         5.7540   -4.7990   -5.6140 ha        1 997      0.131000
     78 HE1         7.9450   -5.9800   -5.8510 ha        1 997      0.159000
     79 HZ          9.6670   -5.7900   -4.0570 ha        1 997      0.166000
     80 HE2         9.2110   -4.4270   -2.0170 ha        1 997      0.159000
     81 HD2         7.0140   -3.2510   -1.7590 ha        1 997      0.131000
     82 H52         2.3440   -2.0290   -0.5820 hn        1 997      0.469300
     83 H222       -0.4070   -2.1660   -7.0260 hn        1 997      0.489300
     84 H302       -1.1700   -3.1470  -11.3450 hn        1 997      0.480300
@<TRIPOS>BOND
     1    1    2 1   
     2    1    3 ar  
     3    1    4 ar  
     4    2    5 1   
     5    2    6 1   
     6    2   40 1   
     7    3    7 1   
     8    3    8 ar  
     9    4    9 ar  
    10    4   41 1   
    11    5   10 1   
    12    5   42 1   
    13    5   82 1   
    14    6   11 1   
    15    6   43 1   
    16    6   44 1   
    17    7   11 1   
    18    7   45 1   
    19    7   46 1   
    20    8   12 ar  
    21    8   47 1   
    22    9   12 ar  
    23    9   48 1   
    24   10   13 1   
    25   10   14 2   
    26   11   49 1   
    27   11   50 1   
    28   12   51 1   
    29   13   15 1   
    30   13   16 1   
    31   13   52 1   
    32   15   17 1   
    33   15   18 1   
    34   16   19 1   
    35   16   53 1   
    36   16   54 1   
    37   17   20 1   
    38   17   21 2   
    39   18   19 1   
    40   18   55 1   
    41   18   56 1   
    42   19   33 1   
    43   19   57 1   
    44   20   22 1   
    45   20   23 1   
    46   20   58 1   
    47   22   24 1   
    48   22   59 1   
    49   22   83 1   
    50   23   25 1   
    51   23   26 1   
    52   23   27 1   
    53   24   28 1   
    54   24   29 2   
    55   25   60 1   
    56   25   61 1   
    57   25   62 1   
    58   26   63 1   
    59   26   64 1   
    60   26   65 1   
    61   27   66 1   
    62   27   67 1   
    63   27   68 1   
    64   28   30 1   
    65   28   31 1   
    66   28   69 1   
    67   30   32 1   
    68   30   70 1   
    69   30   84 1   
    70   31   71 1   
    71   31   72 1   
    72   31   73 1   
    73   32   74 1   
    74   32   75 1   
    75   32   76 1   
    76   33   34 1   
    77   34   35 ar  
    78   34   39 ar  
    79   35   36 ar  
    80   35   77 1   
    81   36   37 ar  
    82   36   78 1   
    83   37   38 ar  
    84   37   79 1   
    85   38   39 ar  
    86   38   80 1   
    87   39   81 1   
@<TRIPOS>SUBSTRUCTURE
     1 997         1 TEMP              0 ****  ****    0 ROOT
