@<TRIPOS>MOLECULE
997
   81    84     1     0     0
SMALL
bcc


@<TRIPOS>ATOM
      1 C1         -4.6990    0.7250    0.4700 ca        1 997     -0.088300
      2 C2         -4.1260   -0.6070    0.0410 c3        1 997      0.157000
      3 C3         -6.0860    0.9480    0.4540 ca        1 997     -0.060300
      4 C4         -3.8530    1.7320    0.9550 ca        1 997     -0.123000
      5 N5         -2.8200   -0.4880   -0.5790 n         1 997     -0.564900
      6 C6         -5.1140   -1.3740   -0.8590 c3        1 997     -0.093400
      7 C7         -7.0590   -0.0560   -0.0580 c3        1 997     -0.039100
      8 C8         -6.5960    2.1700    0.9160 ca        1 997     -0.136000
      9 C9         -4.3700    2.9440    1.4070 ca        1 997     -0.136000
     10 C10        -1.9480   -1.5460   -0.6310 c         1 997      0.652100
     11 C11        -6.4660   -1.4410   -0.1920 c3        1 997     -0.075400
     12 C12        -5.7460    3.1650    1.3890 ca        1 997     -0.125000
     13 C13        -0.5730   -1.2710   -1.2900 c3        1 997      0.035700
     14 O14        -2.2520   -2.6770   -0.2040 o         1 997     -0.609100
     15 N15         0.3450   -0.5870   -0.3840 n         1 997     -0.449800
     16 C16         0.0940   -2.5930   -1.7190 c3        1 997     -0.093400
     17 C17         0.2710    0.7750   -0.1660 c         1 997      0.647100
     18 C18         1.5540   -1.3600   -0.1660 c3        1 997      0.046000
     19 C19         1.4910   -2.6030   -1.0860 c3        1 997      0.134100
     20 C20         1.3390    1.4560    0.7350 c3        1 997      0.052700
     21 O21        -0.6540    1.4480   -0.6710 o         1 997     -0.638100
     22 N22         1.9960    2.5030   -0.0030 n         1 997     -0.550900
     23 C23         0.6750    1.9390    2.0570 c3        1 997     -0.049000
     24 C24         3.1710    2.2870   -0.6890 c         1 997      0.668100
     25 C25        -0.2160    3.1510    1.8470 c3        1 997     -0.098767
     26 C26        -0.1500    0.7900    2.6200 c3        1 997     -0.098767
     27 C27         1.7760    2.2900    3.0500 c3        1 997     -0.098767
     28 C28         3.7510    3.4670   -1.5020 c3        1 997      0.119500
     29 O29         3.7550    1.1840   -0.6580 o         1 997     -0.628100
     30 N30         5.0540    3.8080   -0.9550 n3        1 997     -0.820200
     31 C31         3.7090    3.0430   -2.9700 c3        1 997     -0.133100
     32 CNM         5.7110    4.9060   -1.6100 c3        1 997      0.153100
     33 OQ2         1.5800   -3.8060   -0.3190 os        1 997     -0.317900
     34 C           2.8540   -4.2750   -0.0500 ca        1 997      0.114100
     35 C5          4.0150   -3.4940   -0.1030 ca        1 997     -0.175000
     36 C14         5.2390   -4.0760    0.2280 ca        1 997     -0.100000
     37 C15         5.3070   -5.4130    0.6130 ca        1 997     -0.161000
     38 C21         4.1420   -6.1820    0.6700 ca        1 997     -0.100000
     39 C22         2.9120   -5.6270    0.3380 ca        1 997     -0.175000
     40 H43        -3.9930   -1.2280    0.9850 h1        1 997      0.074700
     41 H35        -2.7600    1.5850    0.9880 ha        1 997      0.143000
     42 HN5        -2.5360    0.4060   -0.9120 hn        1 997      0.341500
     43 HS1        -5.2040   -0.8710   -1.8550 hc        1 997      0.056700
     44 HS2        -4.7150   -2.4090   -1.0270 hc        1 997      0.056700
     45 HW1        -7.4260    0.2920   -1.0620 hc        1 997      0.050700
     46 HW2        -7.9510   -0.0960    0.6240 hc        1 997      0.050700
     47 H36        -7.6830    2.3380    0.9020 ha        1 997      0.130000
     48 H34        -3.6890    3.7230    1.7790 ha        1 997      0.130000
     49 HV1        -7.1550   -2.0850   -0.7990 hc        1 997      0.046700
     50 HV2        -6.3680   -1.9150    0.8190 hc        1 997      0.046700
     51 H33        -6.1590    4.1190    1.7470 ha        1 997      0.130000
     52 HPA        -0.7470   -0.6200   -2.1990 h1        1 997      0.072700
     53 HP1         0.1670   -2.6430   -2.8320 hc        1 997      0.089700
     54 HP2        -0.4980   -3.4760   -1.3570 hc        1 997      0.089700
     55 HR1         2.4700   -0.7480   -0.4110 h1        1 997      0.078200
     56 HR2         1.6030   -1.6850    0.9110 h1        1 997      0.078200
     57 HQ1         2.3000   -2.5730   -1.8610 h1        1 997      0.066700
     58 HTA         2.1320    0.7030    1.0340 h1        1 997      0.098700
     59 HN22        1.4970    3.3520   -0.1230 hn        1 997      0.327500
     60 HT11       -0.8880    2.9990    0.9660 hc        1 997      0.045033
     61 HT12       -0.8500    3.3130    2.7520 hc        1 997      0.045033
     62 HT13        0.3920    4.0740    1.6850 hc        1 997      0.045033
     63 HT21        0.4600   -0.1430    2.6740 hc        1 997      0.045033
     64 HT22       -0.5020    1.0450    3.6490 hc        1 997      0.045033
     65 HT23       -1.0460    0.5990    1.9790 hc        1 997      0.045033
     66 HT31        2.4260    3.1060    2.6530 hc        1 997      0.045033
     67 HT32        1.3200    2.6360    4.0090 hc        1 997      0.045033
     68 HT33        2.4120    1.3970    3.2610 hc        1 997      0.045033
     69 HAA         3.1040    4.3880   -1.3860 h1        1 997      0.065700
     70 H30         5.6420    2.9940   -0.9290 hn        1 997      0.379800
     71 HB1         4.3160    2.1190   -3.1300 hc        1 997      0.051033
     72 HB2         2.6550    2.8330   -3.2710 hc        1 997      0.051033
     73 HB3         4.1090    3.8570   -3.6210 hc        1 997      0.051033
     74 HM1         5.9870    4.7020   -2.6820 h1        1 997      0.033700
     75 HM2         5.0450    5.8090   -1.5870 h1        1 997      0.033700
     76 HM3         6.6500    5.1360   -1.0400 h1        1 997      0.033700
     77 HD1         3.9720   -2.4340   -0.3910 ha        1 997      0.146500
     78 HE1         6.1540   -3.4670    0.1870 ha        1 997      0.134000
     79 HZ          6.2750   -5.8630    0.8730 ha        1 997      0.133000
     80 HE2         4.1960   -7.2370    0.9770 ha        1 997      0.134000
     81 HD2         1.9860   -6.2170    0.3800 ha        1 997      0.146500
@<TRIPOS>BOND
     1    1    2 1   
     2    1    3 ar  
     3    1    4 ar  
     4    2    5 1   
     5    2    6 1   
     6    2   40 1   
     7    3    7 1   
     8    3    8 ar  
     9    4    9 ar  
    10    4   41 1   
    11    5   10 1   
    12    5   42 1   
    13    6   11 1   
    14    6   43 1   
    15    6   44 1   
    16    7   11 1   
    17    7   45 1   
    18    7   46 1   
    19    8   12 ar  
    20    8   47 1   
    21    9   12 ar  
    22    9   48 1   
    23   10   13 1   
    24   10   14 2   
    25   11   49 1   
    26   11   50 1   
    27   12   51 1   
    28   13   15 1   
    29   13   16 1   
    30   13   52 1   
    31   15   17 1   
    32   15   18 1   
    33   16   19 1   
    34   16   53 1   
    35   16   54 1   
    36   17   20 1   
    37   17   21 2   
    38   18   19 1   
    39   18   55 1   
    40   18   56 1   
    41   19   33 1   
    42   19   57 1   
    43   20   22 1   
    44   20   23 1   
    45   20   58 1   
    46   22   24 1   
    47   22   59 1   
    48   23   25 1   
    49   23   26 1   
    50   23   27 1   
    51   24   28 1   
    52   24   29 2   
    53   25   60 1   
    54   25   61 1   
    55   25   62 1   
    56   26   63 1   
    57   26   64 1   
    58   26   65 1   
    59   27   66 1   
    60   27   67 1   
    61   27   68 1   
    62   28   30 1   
    63   28   31 1   
    64   28   69 1   
    65   30   32 1   
    66   30   70 1   
    67   31   71 1   
    68   31   72 1   
    69   31   73 1   
    70   32   74 1   
    71   32   75 1   
    72   32   76 1   
    73   33   34 1   
    74   34   35 ar  
    75   34   39 ar  
    76   35   36 ar  
    77   35   77 1   
    78   36   37 ar  
    79   36   78 1   
    80   37   38 ar  
    81   37   79 1   
    82   38   39 ar  
    83   38   80 1   
    84   39   81 1   
@<TRIPOS>SUBSTRUCTURE
     1 997         1 TEMP              0 ****  ****    0 ROOT
