@<TRIPOS>MOLECULE
997
   84    87     1     0     0
SMALL
bcc


@<TRIPOS>ATOM
      1 C1          0.6580   -1.0610    0.7640 ca        1 997     -0.192300
      2 C2          0.9040   -0.5680   -0.6280 c3        1 997      0.226800
      3 C3          0.2840   -0.1890    1.7970 ca        1 997     -0.011300
      4 C4          0.7460   -2.4420    1.0200 ca        1 997     -0.143000
      5 N5          2.2990   -1.0380   -1.0810 n4        1 997     -0.686800
      6 C6          0.7980    0.9520   -0.7980 c3        1 997     -0.099400
      7 C7          0.0560    1.2590    1.5490 c3        1 997     -0.060100
      8 C8          0.0750   -0.7020    3.0880 ca        1 997     -0.113000
      9 C9          0.5340   -2.9380    2.2990 ca        1 997     -0.111000
     10 C10         2.4280   -1.0930   -2.5680 c         1 997      0.523100
     11 C11        -0.2820    1.5190    0.0970 c3        1 997     -0.074400
     12 C12         0.2120   -2.0610    3.3420 ca        1 997     -0.063000
     13 C13         2.0950   -2.4390   -3.2360 c3        1 997      0.054700
     14 O14         2.7760   -0.0670   -3.1360 o         1 997     -0.414100
     15 N15         2.1960   -2.3780   -4.6930 n         1 997     -0.431800
     16 C16         3.0860   -3.5340   -2.7790 c3        1 997     -0.119400
     17 C17         1.3010   -1.6690   -5.4430 c         1 997      0.654100
     18 C18         3.3360   -3.1340   -5.1930 c3        1 997      0.051000
     19 C19         4.0410   -3.7700   -3.9640 c3        1 997      0.146100
     20 C20         1.5160   -1.5070   -6.9750 c3        1 997      0.071500
     21 O21         0.2650   -1.1810   -4.9410 o         1 997     -0.605100
     22 N22         0.1470   -1.6640   -7.6340 n4        1 997     -0.658800
     23 C23         2.1480   -0.1290   -7.3290 c3        1 997     -0.059000
     24 C24         0.1850   -2.2590   -8.9990 c         1 997      0.516100
     25 C25         1.2320    1.0270   -6.9590 c3        1 997     -0.117433
     26 C26         3.4650    0.0110   -6.5730 c3        1 997     -0.117433
     27 C27         2.4530   -0.0930   -8.8200 c3        1 997     -0.117433
     28 C28        -0.8490   -1.7290  -10.0130 c3        1 997      0.062500
     29 O29         1.0060   -3.1320   -9.2450 o         1 997     -0.387100
     30 N30        -0.7000   -2.4330  -11.3390 n4        1 997     -0.760000
     31 C31        -2.2590   -1.8760   -9.4500 c3        1 997     -0.160100
     32 CNM        -1.1320   -1.5780  -12.4800 c3        1 997      0.074100
     33 OQ2         5.2340   -3.0290   -3.7410 os        1 997     -0.351900
     34 C           6.3950   -3.7990   -3.5990 ca        1 997      0.048100
     35 C5          6.7850   -4.7220   -4.5760 ca        1 997     -0.147500
     36 C14         8.0060   -5.3800   -4.4270 ca        1 997     -0.095000
     37 C15         8.8210   -5.1110   -3.3260 ca        1 997     -0.105000
     38 C21         8.4200   -4.1830   -2.3630 ca        1 997     -0.095000
     39 C22         7.1980   -3.5220   -2.4860 ca        1 997     -0.147500
     40 H43         0.1770   -1.0780   -1.3300 hx        1 997      0.090700
     41 H35         0.9490   -3.1510    0.2040 ha        1 997      0.105000
     42 HN5         2.9920   -0.3740   -0.7050 hn        1 997      0.469300
     43 HS1         1.7680    1.4590   -0.5370 hc        1 997      0.066700
     44 HS2         0.5740    1.1850   -1.8720 hc        1 997      0.066700
     45 HW1         0.9760    1.8370    1.8440 hc        1 997      0.087700
     46 HW2        -0.7840    1.6300    2.1990 hc        1 997      0.087700
     47 H36        -0.2090   -0.0130    3.9020 ha        1 997      0.172000
     48 H34         0.6080   -4.0200    2.4950 ha        1 997      0.163000
     49 HV1        -1.2750    1.0630   -0.1550 hc        1 997      0.076700
     50 HV2        -0.3620    2.6250   -0.0820 hc        1 997      0.076700
     51 H33         0.0510   -2.4540    4.3610 ha        1 997      0.175000
     52 HPA         1.0280   -2.6900   -2.9520 h1        1 997      0.119700
     53 HP1         3.6790   -3.2400   -1.8800 hc        1 997      0.097200
     54 HP2         2.5210   -4.4720   -2.5450 hc        1 997      0.097200
     55 HR1         4.0600   -2.4600   -5.7300 h1        1 997      0.083200
     56 HR2         2.9730   -3.9410   -5.8860 h1        1 997      0.083200
     57 HQ1         4.2400   -4.8610   -4.1260 h1        1 997      0.115700
     58 HTA         2.1810   -2.3300   -7.3770 hx        1 997      0.137700
     59 HN22       -0.2960   -0.7310   -7.6570 hn        1 997      0.489300
     60 HT11        0.7740    0.8780   -5.9500 hc        1 997      0.066922
     61 HT12        0.4240    1.1770   -7.7170 hc        1 997      0.066922
     62 HT13        1.8250    1.9780   -6.9260 hc        1 997      0.066922
     63 HT21        4.1750   -0.8040   -6.8520 hc        1 997      0.066922
     64 HT22        3.3000    0.0170   -5.4680 hc        1 997      0.066922
     65 HT23        3.9430    0.9870   -6.8500 hc        1 997      0.066922
     66 HT31        3.1390   -0.9250   -9.1110 hc        1 997      0.066922
     67 HT32        1.5180   -0.1580   -9.4300 hc        1 997      0.066922
     68 HT33        2.9580    0.8750   -9.0710 hc        1 997      0.066922
     69 HAA        -0.6200   -0.6280  -10.1950 hx        1 997      0.158700
     70 H30         0.2840   -2.7120  -11.4800 hn        1 997      0.480300
     71 HB1        -2.4050   -1.1780   -8.5880 hc        1 997      0.109367
     72 HB2        -3.0280   -1.5950  -10.2190 hc        1 997      0.109367
     73 HB3        -2.4690   -2.9240   -9.1170 hc        1 997      0.109367
     74 HM1        -0.4630   -0.6790  -12.5620 hx        1 997      0.132700
     75 HM2        -1.0560   -2.1880  -13.4270 hx        1 997      0.132700
     76 HM3        -2.1980   -1.2520  -12.3340 hx        1 997      0.132700
     77 HD1         6.1480   -4.9210   -5.4480 ha        1 997      0.131500
     78 HE1         8.3300   -6.1100   -5.1860 ha        1 997      0.159500
     79 HZ          9.7860   -5.6330   -3.2170 ha        1 997      0.166000
     80 HE2         9.0700   -3.9700   -1.4990 ha        1 997      0.159500
     81 HD2         6.8800   -2.7810   -1.7410 ha        1 997      0.131500
     82 H52         2.4830   -1.9620   -0.6700 hn        1 997      0.469300
     83 H222       -0.4380   -2.2670   -7.0280 hn        1 997      0.489300
     84 H302       -1.2730   -3.2920  -11.3280 hn        1 997      0.480300
@<TRIPOS>BOND
     1    1    2 1   
     2    1    3 ar  
     3    1    4 ar  
     4    2    5 1   
     5    2    6 1   
     6    2   40 1   
     7    3    7 1   
     8    3    8 ar  
     9    4    9 ar  
    10    4   41 1   
    11    5   10 1   
    12    5   42 1   
    13    5   82 1   
    14    6   11 1   
    15    6   43 1   
    16    6   44 1   
    17    7   11 1   
    18    7   45 1   
    19    7   46 1   
    20    8   12 ar  
    21    8   47 1   
    22    9   12 ar  
    23    9   48 1   
    24   10   13 1   
    25   10   14 2   
    26   11   49 1   
    27   11   50 1   
    28   12   51 1   
    29   13   15 1   
    30   13   16 1   
    31   13   52 1   
    32   15   17 1   
    33   15   18 1   
    34   16   19 1   
    35   16   53 1   
    36   16   54 1   
    37   17   20 1   
    38   17   21 2   
    39   18   19 1   
    40   18   55 1   
    41   18   56 1   
    42   19   33 1   
    43   19   57 1   
    44   20   22 1   
    45   20   23 1   
    46   20   58 1   
    47   22   24 1   
    48   22   59 1   
    49   22   83 1   
    50   23   25 1   
    51   23   26 1   
    52   23   27 1   
    53   24   28 1   
    54   24   29 2   
    55   25   60 1   
    56   25   61 1   
    57   25   62 1   
    58   26   63 1   
    59   26   64 1   
    60   26   65 1   
    61   27   66 1   
    62   27   67 1   
    63   27   68 1   
    64   28   30 1   
    65   28   31 1   
    66   28   69 1   
    67   30   32 1   
    68   30   70 1   
    69   30   84 1   
    70   31   71 1   
    71   31   72 1   
    72   31   73 1   
    73   32   74 1   
    74   32   75 1   
    75   32   76 1   
    76   33   34 1   
    77   34   35 ar  
    78   34   39 ar  
    79   35   36 ar  
    80   35   77 1   
    81   36   37 ar  
    82   36   78 1   
    83   37   38 ar  
    84   37   79 1   
    85   38   39 ar  
    86   38   80 1   
    87   39   81 1   
@<TRIPOS>SUBSTRUCTURE
     1 997         1 TEMP              0 ****  ****    0 ROOT
