@<TRIPOS>MOLECULE
997
   84    87     1     0     0
SMALL
bcc


@<TRIPOS>ATOM
      1 C1          0.5620   -1.0720    0.8240 ca        1 997     -0.192300
      2 C2          0.8350   -0.5810   -0.5640 c3        1 997      0.226800
      3 C3          0.1850   -0.1960    1.8530 ca        1 997     -0.011300
      4 C4          0.6280   -2.4540    1.0800 ca        1 997     -0.143000
      5 N5          2.2300   -1.0700   -0.9970 ny        1 997     -0.685800
      6 C6          0.7510    0.9400   -0.7330 c3        1 997     -0.099400
      7 C7         -0.0200    1.2550    1.6030 c3        1 997     -0.060100
      8 C8         -0.0490   -0.7070    3.1400 ca        1 997     -0.113000
      9 C9          0.3920   -2.9490    2.3560 ca        1 997     -0.111000
     10 C10         2.3810   -1.1220   -2.4820 c         1 997      0.523100
     11 C11        -0.3340    1.5210    0.1470 c3        1 997     -0.074400
     12 C12         0.0660   -2.0690    3.3950 ca        1 997     -0.063000
     13 C13         2.0430   -2.4610   -3.1600 c3        1 997      0.054700
     14 O14         2.7480   -0.0980   -3.0410 o         1 997     -0.414100
     15 N15         2.1820   -2.3970   -4.6150 n         1 997     -0.430800
     16 C16         3.0050   -3.5740   -2.6860 c3        1 997     -0.113400
     17 C17         1.3040   -1.6880   -5.3850 c         1 997      0.654100
     18 C18         3.3350   -3.1530   -5.0850 c3        1 997      0.044000
     19 C19         4.0000   -3.7990   -3.8380 c3        1 997      0.146100
     20 C20         1.5540   -1.5250   -6.9120 c3        1 997      0.071500
     21 O21         0.2570   -1.2000   -4.9070 o         1 997     -0.604100
     22 N22         0.2010   -1.6790   -7.6010 ny        1 997     -0.658800
     23 C23         2.1970   -0.1470   -7.2500 c3        1 997     -0.059000
     24 C24         0.2670   -2.2720   -8.9660 c         1 997      0.516100
     25 C25         1.2760    1.0100   -6.8970 c3        1 997     -0.117433
     26 C26         3.4990   -0.0120   -6.4670 c3        1 997     -0.117433
     27 C27         2.5320   -0.1100   -8.7350 c3        1 997     -0.117433
     28 C28        -0.7480   -1.7430   -9.9990 c3        1 997      0.062500
     29 O29         1.0940   -3.1420   -9.1970 o         1 997     -0.387100
     30 N30        -0.5740   -2.4470  -11.3220 ny        1 997     -0.760000
     31 C31        -2.1680   -1.8900   -9.4640 c3        1 997     -0.160100
     32 CNM        -0.9840   -1.5930  -12.4710 c3        1 997      0.074100
     33 OQ2         5.1780   -3.0620   -3.5370 os        1 997     -0.350900
     34 C           6.3780   -3.7660   -3.6940 ca        1 997      0.053100
     35 C5          6.6490   -4.5150   -4.8440 ca        1 997     -0.151000
     36 C14         7.9020   -5.1140   -4.9750 ca        1 997     -0.092500
     37 C15         8.8640   -4.9580   -3.9750 ca        1 997     -0.108000
     38 C21         8.5790   -4.2040   -2.8360 ca        1 997     -0.092500
     39 C22         7.3290   -3.6050   -2.6790 ca        1 997     -0.151000
     40 H43         0.1110   -1.0810   -1.2770 hx        1 997      0.090700
     41 H35         0.8340   -3.1660    0.2660 ha        1 997      0.105000
     42 HN5         2.9270   -0.4160   -0.6090 hn        1 997      0.469300
     43 HS1         0.5460    1.1760   -1.8100 hc        1 997      0.066700
     44 HS2         1.7240    1.4340   -0.4580 hc        1 997      0.066700
     45 HW1        -0.8640    1.6370    2.2410 hc        1 997      0.087700
     46 HW2         0.9030    1.8200    1.9110 hc        1 997      0.087700
     47 H36        -0.3350   -0.0160    3.9510 ha        1 997      0.172000
     48 H34         0.4490   -4.0320    2.5520 ha        1 997      0.163000
     49 HV1        -0.3970    2.6270   -0.0320 hc        1 997      0.076700
     50 HV2        -1.3290    1.0780   -0.1200 hc        1 997      0.076700
     51 H33        -0.1140   -2.4600    4.4110 ha        1 997      0.175000
     52 HPA         0.9650   -2.6960   -2.9040 h1        1 997      0.120700
     53 HP1         3.5670   -3.3040   -1.7590 hc        1 997      0.098700
     54 HP2         2.4240   -4.5110   -2.4920 hc        1 997      0.098700
     55 HR1         4.0760   -2.4770   -5.5950 h1        1 997      0.081700
     56 HR2         2.9920   -3.9530   -5.7960 h1        1 997      0.081700
     57 HQ1         4.2090   -4.8870   -4.0060 h1        1 997      0.117700
     58 HTA         2.2270   -2.3490   -7.2990 hx        1 997      0.137700
     59 HN22       -0.2400   -0.7440   -7.6330 hn        1 997      0.489300
     60 HT11        0.7970    0.8610   -5.8980 hc        1 997      0.066811
     61 HT12        0.4840    1.1630   -7.6710 hc        1 997      0.066811
     62 HT13        1.8710    1.9590   -6.8490 hc        1 997      0.066811
     63 HT21        3.9860    0.9620   -6.7330 hc        1 997      0.066811
     64 HT22        4.2110   -0.8300   -6.7320 hc        1 997      0.066811
     65 HT23        3.3110   -0.0080   -5.3660 hc        1 997      0.066811
     66 HT31        3.2210   -0.9440   -9.0140 hc        1 997      0.066811
     67 HT32        1.6100   -0.1690   -9.3640 hc        1 997      0.066811
     68 HT33        3.0460    0.8580   -8.9730 hc        1 997      0.066811
     69 HAA        -0.5150   -0.6410  -10.1780 hx        1 997      0.158700
     70 H30         0.4130   -2.7260  -11.4440 hn        1 997      0.480300
     71 HB1        -2.3310   -1.1900   -8.6060 hc        1 997      0.109367
     72 HB2        -2.3850   -2.9360   -9.1330 hc        1 997      0.109367
     73 HB3        -2.9230   -1.6090  -10.2480 hc        1 997      0.109367
     74 HM1        -2.0530   -1.2670  -12.3460 hx        1 997      0.133033
     75 HM2        -0.3130   -0.6940  -12.5420 hx        1 997      0.133033
     76 HM3        -0.8890   -2.2030  -13.4170 hx        1 997      0.133033
     77 HD1         5.8920   -4.6280   -5.6310 ha        1 997      0.131000
     78 HE1         8.1330   -5.7100   -5.8720 ha        1 997      0.159000
     79 HZ          9.8520   -5.4330   -4.0860 ha        1 997      0.166000
     80 HE2         9.3430   -4.0810   -2.0500 ha        1 997      0.159000
     81 HD2         7.0970   -3.0040   -1.7890 ha        1 997      0.131000
     82 H52         2.3950   -1.9970   -0.5850 hn        1 997      0.469300
     83 H222       -0.4000   -2.2800   -7.0090 hn        1 997      0.489300
     84 H302       -1.1470   -3.3060  -11.3210 hn        1 997      0.480300
@<TRIPOS>BOND
     1    1    2 1   
     2    1    3 ar  
     3    1    4 ar  
     4    2    5 1   
     5    2    6 1   
     6    2   40 1   
     7    3    7 1   
     8    3    8 ar  
     9    4    9 ar  
    10    4   41 1   
    11    5   10 1   
    12    5   42 1   
    13    5   82 1   
    14    6   11 1   
    15    6   43 1   
    16    6   44 1   
    17    7   11 1   
    18    7   45 1   
    19    7   46 1   
    20    8   12 ar  
    21    8   47 1   
    22    9   12 ar  
    23    9   48 1   
    24   10   13 1   
    25   10   14 2   
    26   11   49 1   
    27   11   50 1   
    28   12   51 1   
    29   13   15 1   
    30   13   16 1   
    31   13   52 1   
    32   15   17 1   
    33   15   18 1   
    34   16   19 1   
    35   16   53 1   
    36   16   54 1   
    37   17   20 1   
    38   17   21 2   
    39   18   19 1   
    40   18   55 1   
    41   18   56 1   
    42   19   33 1   
    43   19   57 1   
    44   20   22 1   
    45   20   23 1   
    46   20   58 1   
    47   22   24 1   
    48   22   59 1   
    49   22   83 1   
    50   23   25 1   
    51   23   26 1   
    52   23   27 1   
    53   24   28 1   
    54   24   29 2   
    55   25   60 1   
    56   25   61 1   
    57   25   62 1   
    58   26   63 1   
    59   26   64 1   
    60   26   65 1   
    61   27   66 1   
    62   27   67 1   
    63   27   68 1   
    64   28   30 1   
    65   28   31 1   
    66   28   69 1   
    67   30   32 1   
    68   30   70 1   
    69   30   84 1   
    70   31   71 1   
    71   31   72 1   
    72   31   73 1   
    73   32   74 1   
    74   32   75 1   
    75   32   76 1   
    76   33   34 1   
    77   34   35 ar  
    78   34   39 ar  
    79   35   36 ar  
    80   35   77 1   
    81   36   37 ar  
    82   36   78 1   
    83   37   38 ar  
    84   37   79 1   
    85   38   39 ar  
    86   38   80 1   
    87   39   81 1   
@<TRIPOS>SUBSTRUCTURE
     1 997         1 TEMP              0 ****  ****    0 ROOT
