@<TRIPOS>MOLECULE
997
   81    79     1     0     0
SMALL
bcc


@<TRIPOS>ATOM
      1 C1         -2.0280    1.5440    5.1370 c1        1 997     -0.080000
      2 C2         -1.1010    1.9780    3.8970 c2        1 997      0.073000
      3 C3         -1.6990    2.0910    6.4530 c2        1 997     -0.053000
      4 C4         -3.0720    0.6320    5.0050 c1        1 997     -0.123000
      5 N5         -0.6900    0.7690    3.1890 n         1 997     -0.375000
      6 C6          0.0950    2.7330    4.2140 c3        1 997     -0.173000
      7 C7         -0.5170    3.2120    6.5340 c3        1 997     -0.125000
      8 C8         -2.4340    1.6950    7.5750 c1        1 997     -0.136000
      9 C9         -3.8190    0.2320    6.1540 c1        1 997     -0.130000
     10 C10        -0.4150    0.8260    1.7440 c2        1 997      0.297000
     11 C11        -0.0070    3.6930    5.2880 c3        1 997     -0.154000
     12 C12        -3.4970    0.7660    7.4380 c1        1 997     -0.130000
     13 C13        -0.0300   -0.2550    1.1050 c3        1 997      0.011000
     14 O14        -0.5300    1.8580    1.1540 o         1 997     -0.370000
     15 N15         0.1070    0.0470   -0.4240 n         1 997     -0.311000
     16 C16         1.4710   -0.6180    1.5090 c3        1 997     -0.197000
     17 C17        -0.9980    0.2080   -1.4000 c2        1 997      0.290000
     18 C18         1.3620    0.1310   -0.6600 c3        1 997     -0.044000
     19 C19         2.0960   -0.7690    0.4130 c3        1 997      0.024000
     20 C20        -0.6940    0.3460   -2.8630 c3        1 997      0.026000
     21 O21        -2.1350    0.1050   -1.0340 o         1 997     -0.399000
     22 N22        -1.3040   -0.7410   -3.5870 n         1 997     -0.359000
     23 C23        -1.2450    1.6730   -3.3750 c3        1 997     -0.049000
     24 C24        -0.4760   -1.5760   -4.5230 c2        1 997      0.311000
     25 C25        -2.8320    1.6550   -3.3210 c3        1 997     -0.216333
     26 C26        -0.7230    2.8110   -2.4990 c3        1 997     -0.216333
     27 C27        -0.7990    1.8800   -4.8000 c3        1 997     -0.216333
     28 C28        -1.1480   -2.4610   -5.5350 c3        1 997     -0.028000
     29 O29         0.7470   -1.5050   -4.4880 o         1 997     -0.386000
     30 N30        -0.5140   -2.3060   -6.7820 n3        1 997     -0.299000
     31 C31        -1.0450   -3.9440   -5.0790 c3        1 997     -0.251000
     32 CNM        -1.4390   -2.6140   -7.8390 c3        1 997     -0.123000
     33 OQ2         3.5360   -0.3230    0.5720 os        1 997     -0.205000
     34 C           4.3610   -1.4610    0.7750 c2        1 997      0.079000
     35 C5          5.4100   -1.7280   -0.1050 c2        1 997     -0.151000
     36 C14         6.2620   -2.7900    0.1390 c1        1 997     -0.100000
     37 C15         6.0720   -3.5900    1.2610 c1        1 997     -0.130000
     38 C21         5.0230   -3.3220    2.1390 c1        1 997     -0.130000
     39 C22         4.1730   -2.2630    1.8970 c1        1 997     -0.200000
     40 H43        -1.6440    2.5160    3.2900 h4        1 997      0.115000
     41 H35        -3.2940    0.2660    4.1270 ha        1 997      0.142000
     42 HN5        -0.6830   -0.0190    3.6150 hn        1 997      0.255000
     43 HS1         0.8130    2.0660    4.4710 hc        1 997      0.096000
     44 HS2         0.3440    3.2040    3.4410 hc        1 997      0.096000
     45 HW1        -0.8790    3.9910    7.0270 hc        1 997      0.090000
     46 HW2         0.2310    2.8110    7.0200 hc        1 997      0.090000
     47 H36        -2.2270    2.0400    8.4090 ha        1 997      0.130000
     48 H34        -4.5670   -0.4220    6.0600 ha        1 997      0.131000
     49 HV1        -0.6080    4.4180    4.9830 hc        1 997      0.086000
     50 HV2         0.8710    4.0320    5.4510 hc        1 997      0.086000
     51 H33        -4.0320    0.4780    8.2570 ha        1 997      0.131000
     52 HPA        -0.7380   -0.8940    1.3770 h1        1 997      0.112000
     53 HP1         1.8800    0.1330    2.0390 hc        1 997      0.125000
     54 HP2         1.4900   -1.4460    2.0270 hc        1 997      0.125000
     55 HR1         1.6590    1.0720   -0.5720 h1        1 997      0.121500
     56 HR2         1.5520   -0.1950   -1.5530 h1        1 997      0.121500
     57 HQ1         2.0660   -1.6880    0.1430 h1        1 997      0.106000
     58 HTA         0.2520    0.3230   -2.9960 h1        1 997      0.138000
     59 HN22       -2.2220   -0.8820   -3.5260 hn        1 997      0.240000
     60 HT11       -3.1860    2.5460   -3.6250 hc        1 997      0.084111
     61 HT12       -3.1920    0.9090   -3.9470 hc        1 997      0.084111
     62 HT13       -3.1250    1.4840   -2.4060 hc        1 997      0.084111
     63 HT21       -1.0300    2.6700   -1.5530 hc        1 997      0.084111
     64 HT22        0.2720    2.8240   -2.5260 hc        1 997      0.084111
     65 HT23       -1.0640    3.6560   -2.8270 hc        1 997      0.084111
     66 HT31        0.1860    1.5960   -4.8960 hc        1 997      0.084111
     67 HT32       -0.8940    2.8620   -5.0470 hc        1 997      0.084111
     68 HT33       -1.3590    1.3340   -5.3980 hc        1 997      0.084111
     69 HAA        -2.0550   -2.2190   -5.6120 h1        1 997      0.105000
     70 H30         0.2160   -2.8780   -6.8310 hn        1 997      0.175000
     71 HB1        -0.3320   -4.3870   -5.5770 hc        1 997      0.090000
     72 HB2        -0.8470   -3.9790   -4.1410 hc        1 997      0.090000
     73 HB3        -1.9050   -4.4030   -5.2510 hc        1 997      0.090000
     74 HM1        -1.0860   -2.2790   -8.6920 h1        1 997      0.073000
     75 HM2        -1.5620   -3.5960   -7.8960 h1        1 997      0.073000
     76 HM3        -2.3140   -2.1780   -7.6500 h1        1 997      0.073000
     77 HD1         5.5460   -1.1560   -0.9030 ha        1 997      0.149000
     78 HE1         6.9780   -2.9730   -0.4600 ha        1 997      0.134000
     79 HZ          6.6500   -4.3100    1.4270 ha        1 997      0.131000
     80 HE2         4.8930   -3.8740    2.9120 ha        1 997      0.131000
     81 HD2         3.4200   -2.0720    2.5300 ha        1 997      0.135000
@<TRIPOS>BOND
     1    1    3 1   
     2    1    4 1   
     3    2    5 1   
     4    2    6 1   
     5    2   40 1   
     6    3    7 1   
     7    3    8 1   
     8    4   41 1   
     9    5   10 1   
    10    5   42 1   
    11    6   11 1   
    12    6   43 1   
    13    6   44 1   
    14    7   11 1   
    15    7   45 1   
    16    7   46 1   
    17    8   47 1   
    18    9   12 1   
    19    9   48 1   
    20   10   13 1   
    21   10   14 1   
    22   11   49 1   
    23   11   50 1   
    24   12   51 1   
    25   13   15 1   
    26   13   16 1   
    27   13   52 1   
    28   15   17 1   
    29   15   18 1   
    30   16   19 1   
    31   16   53 1   
    32   16   54 1   
    33   17   20 1   
    34   17   21 1   
    35   18   19 1   
    36   18   55 1   
    37   18   56 1   
    38   19   33 1   
    39   19   57 1   
    40   20   22 1   
    41   20   23 1   
    42   20   58 1   
    43   22   24 1   
    44   22   59 1   
    45   23   25 1   
    46   23   26 1   
    47   23   27 1   
    48   24   28 1   
    49   24   29 1   
    50   25   60 1   
    51   25   61 1   
    52   25   62 1   
    53   26   63 1   
    54   26   64 1   
    55   26   65 1   
    56   27   66 1   
    57   27   67 1   
    58   27   68 1   
    59   28   30 1   
    60   28   31 1   
    61   28   69 1   
    62   30   32 1   
    63   30   70 1   
    64   31   71 1   
    65   31   72 1   
    66   31   73 1   
    67   32   74 1   
    68   32   75 1   
    69   32   76 1   
    70   33   34 1   
    71   34   35 1   
    72   34   39 1   
    73   35   36 1   
    74   35   77 1   
    75   36   78 1   
    76   37   38 1   
    77   37   79 1   
    78   38   80 1   
    79   39   81 1   
@<TRIPOS>SUBSTRUCTURE
     1 997         1 TEMP              0 ****  ****    0 ROOT
