@<TRIPOS>MOLECULE
998
   70    72     1     0     0
SMALL
bcc


@<TRIPOS>ATOM
      1 C1         -3.8570    0.8940    0.5490 ca        1 998     -0.088300
      2 C2         -3.7070   -0.5100    0.0080 c3        1 998      0.157000
      3 C3         -5.1140    1.5210    0.5790 ca        1 998     -0.060300
      4 C4         -2.7500    1.5630    1.0900 ca        1 998     -0.123000
      5 N5         -2.4230   -0.7390   -0.6260 n         1 998     -0.563900
      6 C6         -4.8750   -0.8740   -0.9280 c3        1 998     -0.092400
      7 C7         -6.3410    0.8950    0.0130 c3        1 998     -0.038100
      8 C8         -5.2370    2.7980    1.1440 ca        1 998     -0.136000
      9 C9         -2.8830    2.8340    1.6430 ca        1 998     -0.136000
     10 C10        -1.9010   -2.0000   -0.7660 c         1 998      0.652100
     11 C11        -6.1890   -0.5880   -0.2420 c3        1 998     -0.075400
     12 C12        -4.1310    3.4550    1.6720 ca        1 998     -0.125000
     13 C13        -0.4980   -2.0920   -1.4170 c3        1 998      0.033700
     14 O14        -2.5250   -3.0210   -0.4140 o         1 998     -0.618100
     15 N15         0.5620   -1.7920   -0.4600 n         1 998     -0.452800
     16 C16        -0.2410   -3.5140   -1.9580 c3        1 998     -0.085400
     17 C17         0.9080   -0.4970   -0.1400 c         1 998      0.646100
     18 C18         1.4410   -2.9350   -0.2670 c3        1 998      0.077000
     19 C19         0.9580   -4.0620   -1.1920 c3        1 998     -0.087400
     20 C20         2.1280   -0.2440    0.7880 c3        1 998      0.051700
     21 O21         0.2380    0.4640   -0.5810 o         1 998     -0.643100
     22 N22         3.0790    0.6010    0.1150 n         1 998     -0.550900
     23 C23         1.6380    0.3230    2.1520 c3        1 998     -0.050000
     24 C24         4.1510    0.0830   -0.5790 c         1 998      0.666100
     25 C25         1.1640    1.7630    2.0420 c3        1 998     -0.097767
     26 C26         0.4960   -0.5520    2.6490 c3        1 998     -0.097767
     27 C27         2.7880    0.2470    3.1490 c3        1 998     -0.097767
     28 C28         5.0570    1.0800   -1.3380 c3        1 998      0.118500
     29 O29         4.3910   -1.1410   -0.5960 o         1 998     -0.623100
     30 N30         6.4040    0.9870   -0.7980 n3        1 998     -0.819200
     31 C31         4.8880    0.7710   -2.8260 c3        1 998     -0.133100
     32 CNM         7.3620    1.8560   -1.4230 c3        1 998      0.153100
     33 H43        -3.7710   -1.2140    0.9000 h1        1 998      0.073700
     34 H35        -1.7510    1.0960    1.0880 ha        1 998      0.144000
     35 H44        -1.8800    0.0530   -0.8910 hn        1 998      0.341500
     36 HS1        -4.8070   -0.2880   -1.8810 hc        1 998      0.056700
     37 HS2        -4.8030   -1.9640   -1.1850 hc        1 998      0.056700
     38 HW1        -6.5850    1.4170   -0.9540 hc        1 998      0.050700
     39 HW2        -7.2060    1.0680    0.7080 hc        1 998      0.050700
     40 H36        -6.2250    3.2830    1.1650 ha        1 998      0.130000
     41 H34        -2.0020    3.3440    2.0580 ha        1 998      0.130000
     42 HV1        -7.0360   -0.9460   -0.8820 hc        1 998      0.046700
     43 HV2        -6.2410   -1.1490    0.7280 hc        1 998      0.046700
     44 H33        -4.2410    4.4580    2.1100 ha        1 998      0.130000
     45 HPA        -0.4540   -1.3450   -2.2640 h1        1 998      0.073700
     46 HP1        -0.0270   -3.4620   -3.0530 hc        1 998      0.071200
     47 HP2        -1.1410   -4.1620   -1.8060 hc        1 998      0.071200
     48 HR1         2.5080   -2.6590   -0.5080 h1        1 998      0.062700
     49 HR2         1.3890   -3.2570    0.8100 h1        1 998      0.062700
     50 HQ1         1.7760   -4.3660   -1.8900 hc        1 998      0.057700
     51 HQ2         0.6670   -4.9570   -0.5890 hc        1 998      0.057700
     52 HTA         2.6500   -1.2240    1.0190 h1        1 998      0.098700
     53 H53         2.8440    1.5620    0.0270 hn        1 998      0.326500
     54 HT11        0.4760    1.8850    1.1700 hc        1 998      0.044256
     55 HT12        0.6130    2.0490    2.9720 hc        1 998      0.044256
     56 HT13        2.0270    2.4610    1.9260 hc        1 998      0.044256
     57 HT21        0.7890   -1.6300    2.6280 hc        1 998      0.044256
     58 HT22        0.2340   -0.2750    3.6980 hc        1 998      0.044256
     59 HT23       -0.4110   -0.4140    2.0100 hc        1 998      0.044256
     60 HT31        3.6590    0.8520    2.7990 hc        1 998      0.044256
     61 HT32        2.4550    0.6460    4.1370 hc        1 998      0.044256
     62 HT33        3.1190   -0.8100    3.2850 hc        1 998      0.044256
     63 HAA         4.7160    2.1440   -1.1610 h1        1 998      0.065700
     64 H67         6.7150    0.0320   -0.8110 hn        1 998      0.379800
     65 HB1         3.8180    0.8990   -3.1160 hc        1 998      0.051033
     66 HB2         5.5090    1.4660   -3.4400 hc        1 998      0.051033
     67 HB3         5.1930   -0.2810   -3.0460 hc        1 998      0.051033
     68 HM1         7.5640    1.6160   -2.5030 h1        1 998      0.033700
     69 HM2         7.0010    2.9170   -1.3630 h1        1 998      0.033700
     70 HM3         8.3270    1.7720   -0.8550 h1        1 998      0.033700
@<TRIPOS>BOND
     1    1    2 1   
     2    1    3 ar  
     3    1    4 ar  
     4    2    5 1   
     5    2    6 1   
     6    2   33 1   
     7    3    7 1   
     8    3    8 ar  
     9    4    9 ar  
    10    4   34 1   
    11    5   10 1   
    12    5   35 1   
    13    6   11 1   
    14    6   36 1   
    15    6   37 1   
    16    7   11 1   
    17    7   38 1   
    18    7   39 1   
    19    8   12 ar  
    20    8   40 1   
    21    9   12 ar  
    22    9   41 1   
    23   10   13 1   
    24   10   14 2   
    25   11   42 1   
    26   11   43 1   
    27   12   44 1   
    28   13   15 1   
    29   13   16 1   
    30   13   45 1   
    31   15   17 1   
    32   15   18 1   
    33   16   19 1   
    34   16   46 1   
    35   16   47 1   
    36   17   20 1   
    37   17   21 2   
    38   18   19 1   
    39   18   48 1   
    40   18   49 1   
    41   19   50 1   
    42   19   51 1   
    43   20   22 1   
    44   20   23 1   
    45   20   52 1   
    46   22   24 1   
    47   22   53 1   
    48   23   25 1   
    49   23   26 1   
    50   23   27 1   
    51   24   28 1   
    52   24   29 2   
    53   25   54 1   
    54   25   55 1   
    55   25   56 1   
    56   26   57 1   
    57   26   58 1   
    58   26   59 1   
    59   27   60 1   
    60   27   61 1   
    61   27   62 1   
    62   28   30 1   
    63   28   31 1   
    64   28   63 1   
    65   30   32 1   
    66   30   64 1   
    67   31   65 1   
    68   31   66 1   
    69   31   67 1   
    70   32   68 1   
    71   32   69 1   
    72   32   70 1   
@<TRIPOS>SUBSTRUCTURE
     1 998         1 TEMP              0 ****  ****    0 ROOT
