@<TRIPOS>MOLECULE
998
   73    75     1     0     0
SMALL
bcc


@<TRIPOS>ATOM
      1 C1          0.0840   -0.8690    0.7990 ca        1 998     -0.191300
      2 C2          0.6180   -0.1320   -0.3900 c3        1 998      0.226800
      3 C3         -0.5430   -0.1970    1.8590 ca        1 998     -0.007300
      4 C4          0.1600   -2.2740    0.8190 ca        1 998     -0.150000
      5 N5          2.0810   -0.5530   -0.6290 n4        1 998     -0.688800
      6 C6          0.5380    1.3950   -0.2810 c3        1 998     -0.101400
      7 C7         -0.7530    1.2750    1.8350 c3        1 998     -0.062100
      8 C8         -1.0200   -0.9350    2.9540 ca        1 998     -0.111000
      9 C9         -0.3180   -2.9940    1.9050 ca        1 998     -0.111000
     10 C10         2.4010   -0.7120   -2.0800 c         1 998      0.520100
     11 C11        -0.7370    1.8120    0.4200 c3        1 998     -0.074400
     12 C12        -0.8980   -2.3190    2.9860 ca        1 998     -0.064000
     13 C13         2.0850   -2.0850   -2.6950 c3        1 998      0.044700
     14 O14         2.8840    0.2530   -2.6560 o         1 998     -0.412100
     15 N15         2.3530   -2.1290   -4.1300 n         1 998     -0.436800
     16 C16         2.9630   -3.1780   -2.0380 c3        1 998     -0.095400
     17 C17         1.5340   -1.4960   -5.0240 c         1 998      0.655100
     18 C18         3.4230   -3.0690   -4.4470 c3        1 998      0.078000
     19 C19         3.7370   -3.8530   -3.1650 c3        1 998     -0.091400
     20 C20         1.8920   -1.4710   -6.5360 c3        1 998      0.070500
     21 O21         0.4770   -0.9340   -4.6610 o         1 998     -0.604100
     22 N22         0.5830   -1.5790   -7.3150 n4        1 998     -0.659800
     23 C23         2.6620   -0.1730   -6.9260 c3        1 998     -0.058000
     24 C24         0.6660   -2.4040   -8.5530 c         1 998      0.515100
     25 C25         1.8060    1.0700   -6.7410 c3        1 998     -0.117767
     26 C26         3.9040   -0.0640   -6.0490 c3        1 998     -0.117767
     27 C27         3.1110   -0.2860   -8.3760 c3        1 998     -0.117767
     28 C28        -0.1950   -1.9500   -9.7470 c3        1 998      0.063500
     29 O29         1.3910   -3.3890   -8.5620 o         1 998     -0.387100
     30 N30        -0.0290   -2.8940  -10.9120 n4        1 998     -0.761000
     31 C31        -1.6550   -1.8240   -9.3260 c3        1 998     -0.160100
     32 CNM        -0.2380   -2.2150  -12.2210 c3        1 998      0.074100
     33 H43         0.0500   -0.4690   -1.3100 hx        1 998      0.091700
     34 H35         0.5730   -2.8220   -0.0430 ha        1 998      0.096000
     35 H44         2.6940    0.1710   -0.2260 hn        1 998      0.470800
     36 HS1         1.4060    1.8080    0.3050 hc        1 998      0.070200
     37 HS2         0.5780    1.8410   -1.3090 hc        1 998      0.070200
     38 HW1        -1.7370    1.5280    2.3170 hc        1 998      0.089700
     39 HW2         0.0480    1.7740    2.4490 hc        1 998      0.089700
     40 H36        -1.5030   -0.4030    3.7930 ha        1 998      0.174000
     41 H34        -0.2500   -4.0930    1.9180 ha        1 998      0.161000
     42 HV1        -0.7920    2.9340    0.4400 hc        1 998      0.077700
     43 HV2        -1.6300    1.4400   -0.1460 hc        1 998      0.077700
     44 H33        -1.2710   -2.8890    3.8550 ha        1 998      0.176000
     45 HPA         0.9810   -2.2780   -2.5180 h1        1 998      0.121700
     46 HP1         2.3060   -3.9130   -1.5040 hc        1 998      0.088200
     47 HP2         3.6770   -2.7440   -1.2940 hc        1 998      0.088200
     48 HR1         4.3310   -2.5010   -4.7950 h1        1 998      0.073200
     49 HR2         3.0920   -3.7670   -5.2640 h1        1 998      0.073200
     50 HQ1         4.8390   -3.8390   -2.9630 hc        1 998      0.101700
     51 HQ2         3.4270   -4.9240   -3.2740 hc        1 998      0.101700
     52 HTA         2.5260   -2.3670   -6.8110 hx        1 998      0.137700
     53 H53         0.2740   -0.6190   -7.5450 hn        1 998      0.490300
     54 HT11        2.4680    1.9740   -6.6880 hc        1 998      0.067033
     55 HT12        1.2200    1.0240   -5.7900 hc        1 998      0.067033
     56 HT13        1.1110    1.2300   -7.6010 hc        1 998      0.067033
     57 HT21        3.6290    0.1210   -4.9820 hc        1 998      0.067033
     58 HT22        4.5320   -0.9830   -6.1310 hc        1 998      0.067033
     59 HT23        4.5210    0.8050   -6.3970 hc        1 998      0.067033
     60 HT31        3.6700    0.6430   -8.6630 hc        1 998      0.067033
     61 HT32        2.2410   -0.3880   -9.0700 hc        1 998      0.067033
     62 HT33        3.7970   -1.1560   -8.5190 hc        1 998      0.067033
     63 HAA         0.1970   -0.9350  -10.0860 hx        1 998      0.158700
     64 H67        -0.7140   -3.6620  -10.8200 hn        1 998      0.480800
     65 HB1        -1.7800   -0.9660   -8.6180 hc        1 998      0.110033
     66 HB2        -2.3100   -1.6000  -10.2120 hc        1 998      0.110033
     67 HB3        -2.0340   -2.7590   -8.8440 hc        1 998      0.110033
     68 HM1        -0.1640   -2.9910  -13.0380 hx        1 998      0.133700
     69 HM2         0.5530   -1.4320  -12.3800 hx        1 998      0.133700
     70 HM3        -1.2580   -1.7420  -12.2510 hx        1 998      0.133700
     71 H52         2.2560   -1.4370   -0.1320 hn        1 998      0.470800
     72 H222       -0.1360   -1.9890   -6.6900 hn        1 998      0.490300
     73 H302        0.9160   -3.3100  -10.8950 hn        1 998      0.480800
@<TRIPOS>BOND
     1    1    2 1   
     2    1    3 ar  
     3    1    4 ar  
     4    2    5 1   
     5    2    6 1   
     6    2   33 1   
     7    3    7 1   
     8    3    8 ar  
     9    4    9 ar  
    10    4   34 1   
    11    5   10 1   
    12    5   35 1   
    13    5   71 1   
    14    6   11 1   
    15    6   36 1   
    16    6   37 1   
    17    7   11 1   
    18    7   38 1   
    19    7   39 1   
    20    8   12 ar  
    21    8   40 1   
    22    9   12 ar  
    23    9   41 1   
    24   10   13 1   
    25   10   14 2   
    26   11   42 1   
    27   11   43 1   
    28   12   44 1   
    29   13   15 1   
    30   13   16 1   
    31   13   45 1   
    32   15   17 1   
    33   15   18 1   
    34   16   19 1   
    35   16   46 1   
    36   16   47 1   
    37   17   20 1   
    38   17   21 2   
    39   18   19 1   
    40   18   48 1   
    41   18   49 1   
    42   19   50 1   
    43   19   51 1   
    44   20   22 1   
    45   20   23 1   
    46   20   52 1   
    47   22   24 1   
    48   22   53 1   
    49   22   72 1   
    50   23   25 1   
    51   23   26 1   
    52   23   27 1   
    53   24   28 1   
    54   24   29 2   
    55   25   54 1   
    56   25   55 1   
    57   25   56 1   
    58   26   57 1   
    59   26   58 1   
    60   26   59 1   
    61   27   60 1   
    62   27   61 1   
    63   27   62 1   
    64   28   30 1   
    65   28   31 1   
    66   28   63 1   
    67   30   32 1   
    68   30   64 1   
    69   30   73 1   
    70   31   65 1   
    71   31   66 1   
    72   31   67 1   
    73   32   68 1   
    74   32   69 1   
    75   32   70 1   
@<TRIPOS>SUBSTRUCTURE
     1 998         1 TEMP              0 ****  ****    0 ROOT
