@<TRIPOS>MOLECULE
998
   70    69     1     0     0
SMALL
bcc


@<TRIPOS>ATOM
      1 C1         -1.2750    1.2590    5.2890 c1        1 998     -0.081000
      2 C2         -0.5590    1.7280    3.9100 c2        1 998      0.073000
      3 C3         -0.8140    1.8590    6.5310 c2        1 998     -0.053000
      4 C4         -2.2310    0.2600    5.3230 c1        1 998     -0.123000
      5 N5         -0.1070    0.5180    3.1980 n         1 998     -0.373000
      6 C6          0.5630    2.6100    4.0360 c3        1 998     -0.171000
      7 C7          0.2360    3.0840    6.4350 c3        1 998     -0.124000
      8 C8         -1.3410    1.4210    7.7580 c1        1 998     -0.136000
      9 C9         -2.7620   -0.1790    6.5760 c1        1 998     -0.130500
     10 C10         0.1550    0.5730    1.7580 c2        1 998      0.296000
     11 C11         0.5090    3.5910    5.1110 c3        1 998     -0.154000
     12 C12        -2.3100    0.4070    7.7860 c1        1 998     -0.130500
     13 C13         0.5590   -0.5290    1.1070 c3        1 998      0.007000
     14 O14         0.0010    1.6150    1.1540 o         1 998     -0.379000
     15 N15         0.7110   -0.2220   -0.4000 n         1 998     -0.311000
     16 C16         2.0490   -0.8690    1.5260 c3        1 998     -0.164000
     17 C17        -0.3300   -0.0780   -1.3570 c2        1 998      0.290000
     18 C18         1.9620   -0.1210   -0.6170 c3        1 998     -0.039000
     19 C19         2.6860   -1.0020    0.4530 c3        1 998     -0.166000
     20 C20         0.0220    0.0410   -2.8540 c3        1 998      0.025000
     21 O21        -1.5180   -0.2010   -1.0070 o         1 998     -0.404000
     22 N22        -0.3280   -1.1100   -3.4980 n         1 998     -0.360000
     23 C23        -0.7530    1.2560   -3.4780 c3        1 998     -0.050000
     24 C24         0.7120   -1.9650   -4.0860 c2        1 998      0.310000
     25 C25        -2.2450    1.0800   -3.2380 c3        1 998     -0.215667
     26 C26        -0.2650    2.5840   -2.8070 c3        1 998     -0.215667
     27 C27        -0.4790    1.3250   -5.0170 c3        1 998     -0.215667
     28 C28         0.3140   -3.2170   -4.9070 c3        1 998     -0.029000
     29 O29         1.8900   -1.6350   -4.0080 o         1 998     -0.384000
     30 N30         1.1840   -3.3540   -6.0150 n3        1 998     -0.298000
     31 C31         0.4170   -4.4240   -4.0510 c3        1 998     -0.251000
     32 CNM         0.5740   -4.2190   -7.0150 c3        1 998     -0.123000
     33 H43        -1.2160    2.1620    3.3690 h4        1 998      0.113000
     34 H35        -2.5280   -0.1240    4.5340 ha        1 998      0.144000
     35 H44         0.0400   -0.2730    3.6700 hn        1 998      0.255000
     36 HS1         1.3310    2.0720    4.1840 hc        1 998      0.096000
     37 HS2         0.6440    3.0950    3.2080 hc        1 998      0.096000
     38 HW1         1.0670    2.7760    6.8010 hc        1 998      0.090000
     39 HW2        -0.1250    3.8280    6.9730 hc        1 998      0.090000
     40 H36        -1.0290    1.8260    8.6000 ha        1 998      0.130000
     41 H34        -3.4570   -0.9060    6.5990 ha        1 998      0.130000
     42 HV1        -0.2060    4.2370    4.8890 hc        1 998      0.086000
     43 HV2         1.4030    4.0500    5.1430 hc        1 998      0.086000
     44 H33        -2.6870    0.0950    8.6730 ha        1 998      0.130000
     45 HPA        -0.1420   -1.1720    1.3700 h1        1 998      0.113000
     46 HP1         2.4330   -0.1190    2.0640 hc        1 998      0.110500
     47 HP2         2.0720   -1.6750    2.0250 hc        1 998      0.110500
     48 HR1         2.2520    0.8540   -0.5220 h1        1 998      0.102000
     49 HR2         2.1820   -0.4550   -1.5380 h1        1 998      0.102000
     50 HQ1         2.6810   -1.9710    0.1640 hc        1 998      0.097000
     51 HQ2         3.6480   -0.6800    0.5770 hc        1 998      0.097000
     52 HTA         0.9870    0.1870   -2.9490 h1        1 998      0.138000
     53 H53        -1.2300   -1.3760   -3.5290 hn        1 998      0.240000
     54 HT11       -2.4210    1.1110   -2.3070 hc        1 998      0.083556
     55 HT12       -2.5500    0.1660   -3.6170 hc        1 998      0.083556
     56 HT13       -2.7260    1.7870   -3.6790 hc        1 998      0.083556
     57 HT21        0.7530    2.5810   -2.7540 hc        1 998      0.083556
     58 HT22       -0.6390    2.6520   -1.9040 hc        1 998      0.083556
     59 HT23       -0.5590    3.3430   -3.3370 hc        1 998      0.083556
     60 HT31       -1.0960    0.6800   -5.4990 hc        1 998      0.083556
     61 HT32       -0.6500    2.2650   -5.3450 hc        1 998      0.083556
     62 HT33        0.4710    1.0770   -5.1990 hc        1 998      0.083556
     63 HAA        -0.5820   -3.1240   -5.2170 h1        1 998      0.105000
     64 H67         1.9690   -3.7200   -5.7410 hn        1 998      0.175000
     65 HB1         1.2070   -4.9800   -4.3510 hc        1 998      0.090333
     66 HB2         0.5450   -4.1520   -3.1030 hc        1 998      0.090333
     67 HB3        -0.3870   -4.9410   -4.1290 hc        1 998      0.090333
     68 HM1         0.9690   -4.0210   -7.9050 h1        1 998      0.073000
     69 HM2         0.7490   -5.1860   -6.7750 h1        1 998      0.073000
     70 HM3        -0.3970   -4.0590   -7.0440 h1        1 998      0.073000
@<TRIPOS>BOND
     1    1    3 1   
     2    1    4 1   
     3    2    5 1   
     4    2    6 1   
     5    2   33 1   
     6    3    7 1   
     7    3    8 1   
     8    4   34 1   
     9    5   10 1   
    10    5   35 1   
    11    6   11 1   
    12    6   36 1   
    13    6   37 1   
    14    7   11 1   
    15    7   38 1   
    16    7   39 1   
    17    8   40 1   
    18    9   12 1   
    19    9   41 1   
    20   10   13 1   
    21   10   14 1   
    22   11   42 1   
    23   11   43 1   
    24   12   44 1   
    25   13   15 1   
    26   13   16 1   
    27   13   45 1   
    28   15   17 1   
    29   15   18 1   
    30   16   19 1   
    31   16   46 1   
    32   16   47 1   
    33   17   20 1   
    34   17   21 1   
    35   18   19 1   
    36   18   48 1   
    37   18   49 1   
    38   19   50 1   
    39   19   51 1   
    40   20   22 1   
    41   20   23 1   
    42   20   52 1   
    43   22   24 1   
    44   22   53 1   
    45   23   25 1   
    46   23   26 1   
    47   23   27 1   
    48   24   28 1   
    49   24   29 1   
    50   25   54 1   
    51   25   55 1   
    52   25   56 1   
    53   26   57 1   
    54   26   58 1   
    55   26   59 1   
    56   27   60 1   
    57   27   61 1   
    58   27   62 1   
    59   28   30 1   
    60   28   31 1   
    61   28   63 1   
    62   30   32 1   
    63   30   64 1   
    64   31   65 1   
    65   31   66 1   
    66   31   67 1   
    67   32   68 1   
    68   32   69 1   
    69   32   70 1   
@<TRIPOS>SUBSTRUCTURE
     1 998         1 TEMP              0 ****  ****    0 ROOT
