@<TRIPOS>MOLECULE
998
   73    75     1     0     0
SMALL
bcc


@<TRIPOS>ATOM
      1 C1         -0.0480   -1.0690    0.7720 ca        1 998     -0.195300
      2 C2          0.4660   -0.4870   -0.5080 c3        1 998      0.228800
      3 C3         -0.5770   -0.2590    1.7870 ca        1 998     -0.009300
      4 C4         -0.0510   -2.4680    0.9280 ca        1 998     -0.144000
      5 N5          1.9090   -0.9820   -0.7280 ny        1 998     -0.687800
      6 C6          0.4350    1.0440   -0.5760 c3        1 998     -0.100400
      7 C7         -0.7100    1.2120    1.6190 c3        1 998     -0.061100
      8 C8         -1.0330   -0.8550    2.9740 ca        1 998     -0.113000
      9 C9         -0.5070   -3.0460    2.1040 ca        1 998     -0.110000
     10 C10         2.3230   -0.9270   -2.1610 c         1 998      0.519100
     11 C11        -0.7710    1.5910    0.1540 c3        1 998     -0.074400
     12 C12        -0.9870   -2.2340    3.1400 ca        1 998     -0.061000
     13 C13         2.0570   -2.1930   -2.9930 c3        1 998      0.045700
     14 O14         2.8360    0.1100   -2.5580 o         1 998     -0.410100
     15 N15         2.4380   -2.0320   -4.3930 n         1 998     -0.433800
     16 C16         2.8810   -3.3800   -2.4360 c3        1 998     -0.096400
     17 C17         1.6840   -1.2900   -5.2590 c         1 998      0.660100
     18 C18         3.5440   -2.9130   -4.7540 c3        1 998      0.077000
     19 C19         3.7660   -3.8730   -3.5760 c3        1 998     -0.092400
     20 C20         2.1750   -1.0280   -6.7090 c3        1 998      0.072500
     21 O21         0.5800   -0.8040   -4.9200 o         1 998     -0.613100
     22 N22         0.9520   -0.9880   -7.6200 ny        1 998     -0.667800
     23 C23         2.9570    0.3200   -6.8220 c3        1 998     -0.056000
     24 C24         0.6720   -2.2400   -8.3720 c         1 998      0.512100
     25 C25         2.0510    1.5090   -6.5460 c3        1 998     -0.121767
     26 C26         4.0980    0.3080   -5.8130 c3        1 998     -0.121767
     27 C27         3.5580    0.4290   -8.2180 c3        1 998     -0.121767
     28 C28        -0.2950   -2.1130   -9.5660 c3        1 998      0.061500
     29 O29         1.2100   -3.2840   -8.0280 o         1 998     -0.393100
     30 N30        -0.4930   -3.4490  -10.2380 ny        1 998     -0.760000
     31 C31        -1.6170   -1.5060   -9.1080 c3        1 998     -0.160100
     32 CNM        -0.7990   -3.3080  -11.6890 c3        1 998      0.074100
     33 H43        -0.1270   -0.9170   -1.3710 hx        1 998      0.088700
     34 H35         0.2770   -3.1230    0.1070 ha        1 998      0.103000
     35 H44         1.9850   -1.9430   -0.3710 hn        1 998      0.469800
     36 HS1         0.4130    1.3610   -1.6520 hc        1 998      0.067200
     37 HS2         1.3560    1.4910   -0.1100 hc        1 998      0.067200
     38 HW1         0.1590    1.7250    2.1170 hc        1 998      0.088700
     39 HW2        -1.6410    1.5730    2.1360 hc        1 998      0.088700
     40 H36        -1.4400   -0.2150    3.7770 ha        1 998      0.173000
     41 H34        -0.5030   -4.1410    2.2240 ha        1 998      0.163000
     42 HV1        -1.7160    1.1990   -0.3060 hc        1 998      0.077200
     43 HV2        -0.7840    2.7100    0.0520 hc        1 998      0.077200
     44 H33        -1.3430   -2.6920    4.0790 ha        1 998      0.176000
     45 HPA         0.9430   -2.3950   -2.9330 h1        1 998      0.118700
     46 HP1         3.5180   -3.0730   -1.5690 hc        1 998      0.087200
     47 HP2         2.1860   -4.1870   -2.0900 hc        1 998      0.087200
     48 HR1         3.2880   -3.4860   -5.6870 h1        1 998      0.074200
     49 HR2         4.4690   -2.2990   -4.9420 h1        1 998      0.074200
     50 HQ1         4.8460   -3.8760   -3.2770 hc        1 998      0.101200
     51 HQ2         3.4940   -4.9200   -3.8660 hc        1 998      0.101200
     52 HTA         2.8460   -1.8660   -7.0660 hx        1 998      0.133700
     53 H53         1.0820   -0.2100   -8.2890 hn        1 998      0.497800
     54 HT11        1.3920    1.7440   -7.4160 hc        1 998      0.069478
     55 HT12        2.6790    2.4190   -6.3570 hc        1 998      0.069478
     56 HT13        1.4210    1.3350   -5.6390 hc        1 998      0.069478
     57 HT21        4.7600   -0.5760   -5.9720 hc        1 998      0.069478
     58 HT22        3.7140    0.3190   -4.7640 hc        1 998      0.069478
     59 HT23        4.7200    1.2300   -5.9550 hc        1 998      0.069478
     60 HT31        2.7830    0.5820   -9.0070 hc        1 998      0.069478
     61 HT32        4.2380    1.3210   -8.2540 hc        1 998      0.069478
     62 HT33        4.1680   -0.4730   -8.4660 hc        1 998      0.069478
     63 HAA         0.1940   -1.4290  -10.3350 hx        1 998      0.157700
     64 H67        -1.2750   -3.9410   -9.7770 hn        1 998      0.479800
     65 HB1        -1.4710   -0.4300   -8.8380 hc        1 998      0.109700
     66 HB2        -2.0460   -2.0530   -8.2310 hc        1 998      0.109700
     67 HB3        -2.3760   -1.5240   -9.9360 hc        1 998      0.109700
     68 HM1         0.0800   -2.8560  -12.2250 hx        1 998      0.134033
     69 HM2        -1.0020   -4.3370  -12.1090 hx        1 998      0.134033
     70 HM3        -1.7090   -2.6640  -11.8300 hx        1 998      0.134033
     71 H52         2.5340   -0.3790   -0.1700 hn        1 998      0.469800
     72 H222        0.1270   -0.7570   -7.0220 hn        1 998      0.497800
     73 H302        0.3550   -4.0280  -10.1260 hn        1 998      0.479800
@<TRIPOS>BOND
     1    1    2 1   
     2    1    3 ar  
     3    1    4 ar  
     4    2    5 1   
     5    2    6 1   
     6    2   33 1   
     7    3    7 1   
     8    3    8 ar  
     9    4    9 ar  
    10    4   34 1   
    11    5   10 1   
    12    5   35 1   
    13    5   71 1   
    14    6   11 1   
    15    6   36 1   
    16    6   37 1   
    17    7   11 1   
    18    7   38 1   
    19    7   39 1   
    20    8   12 ar  
    21    8   40 1   
    22    9   12 ar  
    23    9   41 1   
    24   10   13 1   
    25   10   14 2   
    26   11   42 1   
    27   11   43 1   
    28   12   44 1   
    29   13   15 1   
    30   13   16 1   
    31   13   45 1   
    32   15   17 1   
    33   15   18 1   
    34   16   19 1   
    35   16   46 1   
    36   16   47 1   
    37   17   20 1   
    38   17   21 2   
    39   18   19 1   
    40   18   48 1   
    41   18   49 1   
    42   19   50 1   
    43   19   51 1   
    44   20   22 1   
    45   20   23 1   
    46   20   52 1   
    47   22   24 1   
    48   22   53 1   
    49   22   72 1   
    50   23   25 1   
    51   23   26 1   
    52   23   27 1   
    53   24   28 1   
    54   24   29 2   
    55   25   54 1   
    56   25   55 1   
    57   25   56 1   
    58   26   57 1   
    59   26   58 1   
    60   26   59 1   
    61   27   60 1   
    62   27   61 1   
    63   27   62 1   
    64   28   30 1   
    65   28   31 1   
    66   28   63 1   
    67   30   32 1   
    68   30   64 1   
    69   30   73 1   
    70   31   65 1   
    71   31   66 1   
    72   31   67 1   
    73   32   68 1   
    74   32   69 1   
    75   32   70 1   
@<TRIPOS>SUBSTRUCTURE
     1 998         1 TEMP              0 ****  ****    0 ROOT
