@<TRIPOS>MOLECULE
998
   73    75     1     0     0
SMALL
bcc


@<TRIPOS>ATOM
      1 C1         -0.0650   -1.0580    0.7690 ca        1 998     -0.195300
      2 C2          0.4470   -0.4760   -0.5110 c3        1 998      0.228800
      3 C3         -0.6050   -0.2500    1.7800 ca        1 998     -0.009300
      4 C4         -0.0540   -2.4560    0.9300 ca        1 998     -0.144000
      5 N5          1.8960   -0.9560   -0.7250 n4        1 998     -0.687800
      6 C6          0.4010    1.0550   -0.5850 c3        1 998     -0.100400
      7 C7         -0.7520    1.2200    1.6060 c3        1 998     -0.061100
      8 C8         -1.0590   -0.8460    2.9680 ca        1 998     -0.113000
      9 C9         -0.5090   -3.0350    2.1070 ca        1 998     -0.110000
     10 C10         2.3130   -0.9030   -2.1570 c         1 998      0.519100
     11 C11        -0.8130    1.5930    0.1410 c3        1 998     -0.074400
     12 C12        -1.0000   -2.2240    3.1390 ca        1 998     -0.061000
     13 C13         2.0620   -2.1760   -2.9840 c3        1 998      0.045700
     14 O14         2.8160    0.1370   -2.5570 o         1 998     -0.410100
     15 N15         2.4460   -2.0170   -4.3840 n         1 998     -0.433800
     16 C16         2.8970   -3.3520   -2.4190 c3        1 998     -0.096400
     17 C17         1.6870   -1.2870   -5.2550 c         1 998      0.660100
     18 C18         3.5620   -2.8880   -4.7370 c3        1 998      0.077000
     19 C19         3.7910   -3.8400   -3.5550 c3        1 998     -0.092400
     20 C20         2.1790   -1.0260   -6.7050 c3        1 998      0.072500
     21 O21         0.5770   -0.8100   -4.9210 o         1 998     -0.613100
     22 N22         0.9590   -1.0020   -7.6200 n4        1 998     -0.667800
     23 C23         2.9480    0.3300   -6.8210 c3        1 998     -0.056000
     24 C24         0.6940   -2.2600   -8.3670 c         1 998      0.512100
     25 C25         2.0290    1.5110   -6.5530 c3        1 998     -0.121767
     26 C26         4.0860    0.3330   -5.8090 c3        1 998     -0.121767
     27 C27         3.5510    0.4390   -8.2160 c3        1 998     -0.121767
     28 C28        -0.2710   -2.1480   -9.5640 c3        1 998      0.061500
     29 O29         1.2420   -3.2960   -8.0180 o         1 998     -0.393100
     30 N30        -0.4530   -3.4890  -10.2310 n4        1 998     -0.760000
     31 C31        -1.6010   -1.5550   -9.1110 c3        1 998     -0.160100
     32 CNM        -0.7570   -3.3570  -11.6840 c3        1 998      0.074100
     33 H43        -0.1400   -0.9140   -1.3740 hx        1 998      0.088700
     34 H35         0.2830   -3.1110    0.1130 ha        1 998      0.103000
     35 H44         2.5130   -0.3450   -0.1680 hn        1 998      0.469800
     36 HS1         0.3790    1.3680   -1.6610 hc        1 998      0.067200
     37 HS2         1.3160    1.5130   -0.1170 hc        1 998      0.067200
     38 HW1         0.1100    1.7420    2.1050 hc        1 998      0.088700
     39 HW2        -1.6890    1.5730    2.1190 hc        1 998      0.088700
     40 H36        -1.4740   -0.2080    3.7670 ha        1 998      0.173000
     41 H34        -0.4940   -4.1300    2.2310 ha        1 998      0.163000
     42 HV1        -0.8370    2.7110    0.0350 hc        1 998      0.077200
     43 HV2        -1.7520    1.1900   -0.3210 hc        1 998      0.077200
     44 H33        -1.3530   -2.6830    4.0780 ha        1 998      0.176000
     45 HPA         0.9500   -2.3890   -2.9270 h1        1 998      0.118700
     46 HP1         3.5280   -3.0340   -1.5520 hc        1 998      0.087200
     47 HP2         2.2100   -4.1640   -2.0720 hc        1 998      0.087200
     48 HR1         4.4810   -2.2650   -4.9260 h1        1 998      0.074200
     49 HR2         3.3150   -3.4670   -5.6690 h1        1 998      0.074200
     50 HQ1         4.8700   -3.8310   -3.2530 hc        1 998      0.101200
     51 HQ2         3.5300   -4.8910   -3.8410 hc        1 998      0.101200
     52 HTA         2.8600   -1.8580   -7.0560 hx        1 998      0.133700
     53 H53         0.1290   -0.7780   -7.0250 hn        1 998      0.497800
     54 HT11        1.3980    1.3340   -5.6470 hc        1 998      0.069478
     55 HT12        1.3690    1.7340   -7.4260 hc        1 998      0.069478
     56 HT13        2.6480    2.4280   -6.3670 hc        1 998      0.069478
     57 HT21        4.6990    1.2610   -5.9540 hc        1 998      0.069478
     58 HT22        3.6990    0.3450   -4.7620 hc        1 998      0.069478
     59 HT23        4.7580   -0.5450   -5.9630 hc        1 998      0.069478
     60 HT31        2.7770    0.5810   -9.0080 hc        1 998      0.069478
     61 HT32        4.1710   -0.4580   -8.4590 hc        1 998      0.069478
     62 HT33        4.2230    1.3370   -8.2540 hc        1 998      0.069478
     63 HAA         0.2110   -1.4620  -10.3350 hx        1 998      0.156700
     64 H67        -1.2300   -3.9880   -9.7710 hn        1 998      0.479800
     65 HB1        -1.4670   -0.4750   -8.8450 hc        1 998      0.109700
     66 HB2        -2.3580   -1.5840   -9.9410 hc        1 998      0.109700
     67 HB3        -2.0260   -2.1030   -8.2330 hc        1 998      0.109700
     68 HM1         0.1170   -2.8960  -12.2200 hx        1 998      0.134033
     69 HM2        -0.9480   -4.3890  -12.1010 hx        1 998      0.134033
     70 HM3        -1.6740   -2.7230  -11.8290 hx        1 998      0.134033
     71 H52         1.9800   -1.9150   -0.3630 hn        1 998      0.469800
     72 H222        1.0830   -0.2260   -8.2910 hn        1 998      0.497800
     73 H302        0.4010   -4.0570  -10.1160 hn        1 998      0.479800
@<TRIPOS>BOND
     1    1    2 1   
     2    1    3 ar  
     3    1    4 ar  
     4    2    5 1   
     5    2    6 1   
     6    2   33 1   
     7    3    7 1   
     8    3    8 ar  
     9    4    9 ar  
    10    4   34 1   
    11    5   10 1   
    12    5   35 1   
    13    5   71 1   
    14    6   11 1   
    15    6   36 1   
    16    6   37 1   
    17    7   11 1   
    18    7   38 1   
    19    7   39 1   
    20    8   12 ar  
    21    8   40 1   
    22    9   12 ar  
    23    9   41 1   
    24   10   13 1   
    25   10   14 2   
    26   11   42 1   
    27   11   43 1   
    28   12   44 1   
    29   13   15 1   
    30   13   16 1   
    31   13   45 1   
    32   15   17 1   
    33   15   18 1   
    34   16   19 1   
    35   16   46 1   
    36   16   47 1   
    37   17   20 1   
    38   17   21 2   
    39   18   19 1   
    40   18   48 1   
    41   18   49 1   
    42   19   50 1   
    43   19   51 1   
    44   20   22 1   
    45   20   23 1   
    46   20   52 1   
    47   22   24 1   
    48   22   53 1   
    49   22   72 1   
    50   23   25 1   
    51   23   26 1   
    52   23   27 1   
    53   24   28 1   
    54   24   29 2   
    55   25   54 1   
    56   25   55 1   
    57   25   56 1   
    58   26   57 1   
    59   26   58 1   
    60   26   59 1   
    61   27   60 1   
    62   27   61 1   
    63   27   62 1   
    64   28   30 1   
    65   28   31 1   
    66   28   63 1   
    67   30   32 1   
    68   30   64 1   
    69   30   73 1   
    70   31   65 1   
    71   31   66 1   
    72   31   67 1   
    73   32   68 1   
    74   32   69 1   
    75   32   70 1   
@<TRIPOS>SUBSTRUCTURE
     1 998         1 TEMP              0 ****  ****    0 ROOT
