@<TRIPOS>MOLECULE
99A
   74    78     1     0     0
SMALL
bcc


@<TRIPOS>ATOM
      1 C15         0.8400    0.3560    0.5830 c3        1 99A     -0.093800
      2 C8          2.2650   -0.0190    0.7220 ca        1 99A      0.009700
      3 C9          2.6980   -0.7250    1.8530 ca        1 99A     -0.088000
      4 C10         4.0440   -1.0700    2.0070 ca        1 99A     -0.148600
      5 C14         4.4510   -1.8880    3.1680 c         1 99A      0.562700
      6 O2          4.9190   -3.0110    3.1880 o         1 99A     -0.345100
      7 N2          4.2550   -1.2440    4.5260 n4        1 99A     -0.759400
      8 C11         4.9990   -0.7230    1.0330 ca        1 99A      0.012700
      9 C13         6.4320   -1.0690    1.1720 c3        1 99A     -0.103800
     10 C12         4.5630   -0.0190   -0.0990 ca        1 99A     -0.096000
     11 C7          3.2190    0.3280   -0.2540 ca        1 99A     -0.145600
     12 C6          2.7970    1.1550   -1.4070 c         1 99A      0.560700
     13 O1          2.2070    2.2230   -1.3700 o         1 99A     -0.376100
     14 N1          3.1590    0.6310   -2.7780 n4        1 99A     -0.692800
     15 C5          1.9490    0.1140   -3.5490 c3        1 99A      0.158500
     16 C30         2.3790   -0.9200   -4.6060 c3        1 99A     -0.107400
     17 C4          1.1010    1.2650   -4.1170 c3        1 99A     -0.107400
     18 C1          1.3930    1.6060   -5.5900 c3        1 99A      0.183000
     19 C2          2.8640    2.0690   -5.7590 c3        1 99A     -0.121900
     20 C3          3.6370    0.7720   -6.0170 c3        1 99A     -0.121900
     21 C29         2.5430   -0.3330   -6.0180 c3        1 99A      0.183000
     22 N3          1.2740    0.3480   -6.3600 nh        1 99A     -0.713300
     23 C16         0.8690    0.3640   -7.7130 ca        1 99A      0.681200
     24 C17         0.8310   -0.8670   -8.4420 ca        1 99A     -0.275300
     25 C18         0.3170   -0.8790   -9.7290 ca        1 99A      0.026000
     26 N5          0.4160    1.5330   -8.2850 nb        1 99A     -0.706000
     27 C28        -0.0790    1.4920   -9.5230 ca        1 99A      0.490200
     28 C19        -0.1590    0.3180  -10.3060 ca        1 99A     -0.354900
     29 C20        -0.6790    0.2430  -11.6680 c         1 99A      0.568700
     30 O3         -0.6410   -0.7350  -12.4050 o         1 99A     -0.411100
     31 N4         -1.3340    1.4800  -12.2290 n4        1 99A     -0.676800
     32 C21        -1.9680    1.2600  -13.5830 c3        1 99A      0.184100
     33 C22        -2.5770    2.5220  -14.0790 ca        1 99A     -0.205300
     34 C23        -1.8280    3.3900  -14.8840 ca        1 99A     -0.099500
     35 C24        -2.4210    4.5400  -15.4020 ca        1 99A     -0.117000
     36 C25        -3.7590    4.8260  -15.1200 ca        1 99A     -0.068000
     37 C26        -4.5060    3.9600  -14.3180 ca        1 99A     -0.117000
     38 C27        -3.9190    2.8090  -13.7970 ca        1 99A     -0.099500
     39 H151        0.7190    1.4620    0.7350 hc        1 99A      0.084033
     40 H152        0.4590    0.1030   -0.4390 hc        1 99A      0.084033
     41 H153        0.1980   -0.1710    1.3330 hc        1 99A      0.084033
     42 H9          1.9480   -1.0210    2.6070 ha        1 99A      0.168000
     43 H21N        4.8810   -0.4360    4.6250 hn        1 99A      0.480467
     44 H22N        3.2870   -0.9240    4.6350 hn        1 99A      0.480467
     45 H131        6.5650   -2.0960    1.5980 hc        1 99A      0.088367
     46 H132        6.9460   -0.3320    1.8440 hc        1 99A      0.088367
     47 H133        6.9550   -1.0420    0.1820 hc        1 99A      0.088367
     48 H12         5.3160    0.2790   -0.8490 ha        1 99A      0.163000
     49 H1          3.8420   -0.1280   -2.6830 hn        1 99A      0.462300
     50 H301        1.5700   -1.7040   -4.6320 hc        1 99A      0.095950
     51 H302        3.3300   -1.4440   -4.3280 hc        1 99A      0.095950
     52 H41C        1.2090    2.2030   -3.5100 hc        1 99A      0.095950
     53 H42C        0.0250    0.9410   -4.0330 hc        1 99A      0.095950
     54 H29         2.7910   -1.1580   -6.7380 h1        1 99A      0.121200
     55 HA          0.6660    2.3940   -5.9270 h1        1 99A      0.121200
     56 H21C        3.2280    2.6320   -4.8690 hc        1 99A      0.068950
     57 H22C        2.9450    2.7600   -6.6370 hc        1 99A      0.068950
     58 H31C        4.4190    0.5700   -5.2500 hc        1 99A      0.068950
     59 H32C        4.1500    0.8050   -7.0110 hc        1 99A      0.068950
     60 H17         1.1810   -1.8070   -7.9890 ha        1 99A      0.173000
     61 H18         0.2760   -1.8220  -10.3060 ha        1 99A      0.190000
     62 H28        -0.4130    2.4800   -9.8960 h4        1 99A      0.029100
     63 H4         -2.0560    1.8040  -11.5760 hn        1 99A      0.456800
     64 H211       -1.1590    0.8890  -14.2780 hx        1 99A      0.119200
     65 H212       -2.7380    0.4450  -13.4640 hx        1 99A      0.119200
     66 H23        -0.7810    3.1560  -15.1320 ha        1 99A      0.138500
     67 H27        -4.5200    2.1160  -13.1890 ha        1 99A      0.138500
     68 H24        -1.8370    5.2170  -16.0460 ha        1 99A      0.165500
     69 H25        -4.2290    5.7310  -15.5400 ha        1 99A      0.168000
     70 H26        -5.5660    4.1800  -14.1080 ha        1 99A      0.165500
     71 H5          1.3280   -0.4270   -2.7690 hx        1 99A      0.096700
     72 H231        4.4720   -1.9230    5.2730 hn        1 99A      0.480467
     73 H121        3.5830    1.3920   -3.3280 hn        1 99A      0.462300
     74 H42        -0.6290    2.2220  -12.3150 hn        1 99A      0.456800
@<TRIPOS>BOND
     1    1    2 1   
     2    1   39 1   
     3    1   40 1   
     4    1   41 1   
     5    2    3 ar  
     6    2   11 ar  
     7    3    4 ar  
     8    3   42 1   
     9    4    5 1   
    10    4    8 ar  
    11    5    6 2   
    12    5    7 1   
    13    7   43 1   
    14    7   44 1   
    15    7   72 1   
    16    8    9 1   
    17    8   10 ar  
    18    9   45 1   
    19    9   46 1   
    20    9   47 1   
    21   10   11 ar  
    22   10   48 1   
    23   11   12 1   
    24   12   13 2   
    25   12   14 1   
    26   14   15 1   
    27   14   49 1   
    28   14   73 1   
    29   15   16 1   
    30   15   17 1   
    31   15   71 1   
    32   16   21 1   
    33   16   50 1   
    34   16   51 1   
    35   17   18 1   
    36   17   52 1   
    37   17   53 1   
    38   18   19 1   
    39   18   22 1   
    40   18   55 1   
    41   19   20 1   
    42   19   56 1   
    43   19   57 1   
    44   20   21 1   
    45   20   58 1   
    46   20   59 1   
    47   21   22 1   
    48   21   54 1   
    49   22   23 1   
    50   23   24 ar  
    51   23   26 ar  
    52   24   25 ar  
    53   24   60 1   
    54   25   28 ar  
    55   25   61 1   
    56   26   27 ar  
    57   27   28 ar  
    58   27   62 1   
    59   28   29 1   
    60   29   30 2   
    61   29   31 1   
    62   31   32 1   
    63   31   63 1   
    64   31   74 1   
    65   32   33 1   
    66   32   64 1   
    67   32   65 1   
    68   33   34 ar  
    69   33   38 ar  
    70   34   35 ar  
    71   34   66 1   
    72   35   36 ar  
    73   35   68 1   
    74   36   37 ar  
    75   36   69 1   
    76   37   38 ar  
    77   37   70 1   
    78   38   67 1   
@<TRIPOS>SUBSTRUCTURE
     1 99A         1 TEMP              0 ****  ****    0 ROOT
