@<TRIPOS>MOLECULE
99A
   71    69     1     0     0
SMALL
bcc


@<TRIPOS>ATOM
      1 C15        -0.5760    0.9190    4.5300 c3        1 99A     -0.196000
      2 C8          0.5980   -0.0210    4.6310 c2        1 99A     -0.029000
      3 C9          1.4730    0.0760    5.7090 c2        1 99A     -0.113000
      4 C10         2.6140   -0.7060    5.7470 c1        1 99A     -0.101000
      5 C14         3.6000   -0.5850    6.9430 c1        1 99A      0.346000
      6 O2          4.6040   -1.2720    6.9770 o         1 99A     -0.366000
      7 N2          3.3470    0.3800    7.9970 n3        1 99A     -0.433000
      8 C11         2.8890   -1.5930    4.7030 c2        1 99A     -0.029000
      9 C13         4.1880   -2.3570    4.6880 c3        1 99A     -0.196000
     10 C12         2.0150   -1.6900    3.6250 c1        1 99A     -0.114000
     11 C7          0.8730   -0.9090    3.5850 c1        1 99A     -0.102000
     12 C6          0.0180   -0.8690    2.3000 c2        1 99A      0.349000
     13 O1         -0.8900   -0.0670    2.2000 o         1 99A     -0.356000
     14 N1          0.3540   -1.7390    1.1680 n         1 99A     -0.380000
     15 C5         -0.4030   -1.6380   -0.0790 c3        1 99A      0.025000
     16 C30        -1.6130   -2.4320    0.0550 c3        1 99A     -0.196000
     17 C4          0.5680   -2.0540   -1.2940 c3        1 99A     -0.196000
     18 C1          0.0930   -3.2720   -2.1590 c3        1 99A     -0.002500
     19 C2          0.3770   -4.5190   -1.4180 c3        1 99A     -0.161000
     20 C3         -0.9670   -4.6830   -0.5110 c3        1 99A     -0.161000
     21 C29        -1.7980   -3.4520   -0.9560 c3        1 99A     -0.002500
     22 N3         -1.2380   -3.2170   -2.1460 n3        1 99A     -0.207000
     23 C16        -1.6790   -1.9120   -2.6450 c2        1 99A      0.136000
     24 C17        -3.0200   -1.5540   -2.5640 c2        1 99A     -0.229000
     25 C18        -3.4500   -0.3630   -3.1080 c1        1 99A     -0.011000
     26 N5         -0.7870   -1.0810   -3.2650 n1        1 99A     -0.200000
     27 C28        -1.2150    0.1110   -3.8090 c1        1 99A     -0.003000
     28 C19        -2.5530    0.4700   -3.7290 c1        1 99A     -0.218000
     29 C20        -2.9970    1.8800   -4.1690 c2        1 99A      0.352000
     30 O3         -4.1370    2.2500   -3.9640 o         1 99A     -0.373000
     31 N4         -2.0720    2.7450   -4.8480 n         1 99A     -0.361000
     32 C21        -2.2740    4.1810   -4.8220 c3        1 99A      0.005000
     33 C22        -1.0300    4.8610   -4.2400 c2        1 99A     -0.120000
     34 C23        -0.0020    5.2670   -5.0840 c2        1 99A     -0.122000
     35 C24         1.1120    5.9090   -4.5620 c1        1 99A     -0.135000
     36 C25         1.2000    6.1480   -3.1940 c1        1 99A     -0.128000
     37 C26         0.1730    5.7430   -2.3510 c1        1 99A     -0.128000
     38 C27        -0.9420    5.1000   -2.8730 c1        1 99A     -0.111000
     39 H151       -1.4060    0.4040    4.5080 hc        1 99A      0.097667
     40 H152       -0.5830    1.5210    5.3110 hc        1 99A      0.097667
     41 H153       -0.5000    1.4480    3.7130 hc        1 99A      0.097667
     42 H9          1.3180    0.7460    6.4030 ha        1 99A      0.143000
     43 H21N        3.9780    0.5190    8.6590 hn        1 99A      0.228000
     44 H22N        2.5730    0.8650    7.9960 hn        1 99A      0.228000
     45 H131        4.1830   -3.0260    5.4040 hc        1 99A      0.098333
     46 H132        4.2930   -2.8060    3.8200 hc        1 99A      0.098333
     47 H133        4.9320   -1.7370    4.8260 hc        1 99A      0.098333
     48 H12         2.2070   -2.3080    2.8970 ha        1 99A      0.143000
     49 H1          1.0970   -2.2760    1.2100 hn        1 99A      0.225000
     50 H301       -1.5980   -2.8690    0.9320 hc        1 99A      0.095000
     51 H302       -2.3790   -1.8290    0.0250 hc        1 99A      0.095000
     52 H41C        1.4470   -2.2680   -0.9220 hc        1 99A      0.095000
     53 H42C        0.6650   -1.2830   -1.8820 hc        1 99A      0.095000
     54 H29        -2.7410   -3.6860   -1.0520 h1        1 99A      0.123000
     55 HA          0.4630   -3.2700   -3.0570 h1        1 99A      0.123000
     56 H21C        0.4780   -5.2750   -2.0320 hc        1 99A      0.093000
     57 H22C        1.1650   -4.4180   -0.8560 hc        1 99A      0.093000
     58 H31C       -1.4370   -5.5200   -0.7260 hc        1 99A      0.093000
     59 H32C       -0.7550   -4.6340    0.4360 hc        1 99A      0.093000
     60 H17        -3.6600   -2.1500   -2.1200 ha        1 99A      0.147000
     61 H18        -4.4010   -0.1090   -3.0510 ha        1 99A      0.162000
     62 H28        -0.5760    0.7030   -4.2510 ha        1 99A      0.157000
     63 H4         -1.4090    2.3880   -5.3650 hn        1 99A      0.217000
     64 H211       -3.0490    4.3910   -4.2670 h1        1 99A      0.109500
     65 H212       -2.4270    4.5050   -5.7320 h1        1 99A      0.109500
     66 H23        -0.0640    5.0990   -6.0460 ha        1 99A      0.129000
     67 H27        -1.6630    4.8150   -2.2800 ha        1 99A      0.154000
     68 H24         1.8350    6.1940   -5.1560 ha        1 99A      0.130000
     69 H25         1.9890    6.6030   -2.8250 ha        1 99A      0.133000
     70 H26         0.2360    5.9120   -1.3860 ha        1 99A      0.133000
     71 H5         -0.6640   -0.7060   -0.2030 h1        1 99A      0.134000
@<TRIPOS>BOND
     1    1    2 1   
     2    1   39 1   
     3    1   40 1   
     4    1   41 1   
     5    2    3 1   
     6    2   11 1   
     7    3    4 1   
     8    3   42 1   
     9    4    8 1   
    10    5    6 1   
    11    5    7 1   
    12    7   43 1   
    13    7   44 1   
    14    8    9 1   
    15    8   10 1   
    16    9   45 1   
    17    9   46 1   
    18    9   47 1   
    19   10   48 1   
    20   11   12 1   
    21   12   13 1   
    22   12   14 1   
    23   14   15 1   
    24   14   49 1   
    25   15   16 1   
    26   15   17 1   
    27   15   71 1   
    28   16   21 1   
    29   16   50 1   
    30   16   51 1   
    31   17   18 1   
    32   17   52 1   
    33   17   53 1   
    34   18   19 1   
    35   18   22 1   
    36   18   55 1   
    37   19   20 1   
    38   19   56 1   
    39   19   57 1   
    40   20   21 1   
    41   20   58 1   
    42   20   59 1   
    43   21   22 1   
    44   21   54 1   
    45   22   23 1   
    46   23   24 1   
    47   23   26 1   
    48   24   25 1   
    49   24   60 1   
    50   25   61 1   
    51   27   28 1   
    52   27   62 1   
    53   28   29 1   
    54   29   30 1   
    55   29   31 1   
    56   31   32 1   
    57   31   63 1   
    58   32   33 1   
    59   32   64 1   
    60   32   65 1   
    61   33   34 1   
    62   33   38 1   
    63   34   35 1   
    64   34   66 1   
    65   35   68 1   
    66   36   37 1   
    67   36   69 1   
    68   37   70 1   
    69   38   67 1   
@<TRIPOS>SUBSTRUCTURE
     1 99A         1 TEMP              0 ****  ****    0 ROOT
