@<TRIPOS>MOLECULE
99A
   74    78     1     0     0
SMALL
bcc


@<TRIPOS>ATOM
      1 C15         0.7980    0.2990    0.5730 c3        1 99A     -0.093800
      2 C8          2.2300   -0.0430    0.7220 ca        1 99A      0.009700
      3 C9          2.6710   -0.7470    1.8520 ca        1 99A     -0.088000
      4 C10         4.0230   -1.0610    2.0160 ca        1 99A     -0.148600
      5 C14         4.4390   -1.8790    3.1740 c         1 99A      0.562700
      6 O2          4.9330   -2.9900    3.1900 o         1 99A     -0.345100
      7 N2          4.2160   -1.2500    4.5350 nz        1 99A     -0.759400
      8 C11         4.9780   -0.6850    1.0530 ca        1 99A      0.012700
      9 C13         6.4170   -0.9970    1.2030 c3        1 99A     -0.103800
     10 C12         4.5350    0.0180   -0.0780 ca        1 99A     -0.096000
     11 C7          3.1840    0.3340   -0.2430 ca        1 99A     -0.145600
     12 C6          2.7530    1.1590   -1.3930 c         1 99A      0.560700
     13 O1          2.1370    2.2120   -1.3530 o         1 99A     -0.376100
     14 N1          3.1400    0.6550   -2.7640 ny        1 99A     -0.692800
     15 C5          1.9510    0.1140   -3.5500 c3        1 99A      0.158500
     16 C30         2.4150   -0.9000   -4.6110 c3        1 99A     -0.107400
     17 C4          1.0800    1.2490   -4.1180 c3        1 99A     -0.107400
     18 C1          1.3760    1.6090   -5.5850 c3        1 99A      0.183000
     19 C2          2.8370    2.1080   -5.7370 c3        1 99A     -0.121900
     20 C3          3.6430    0.8340   -5.9980 c3        1 99A     -0.121900
     21 C29         2.5770   -0.2980   -6.0170 c3        1 99A      0.183000
     22 N3          1.2940    0.3540   -6.3650 nh        1 99A     -0.713300
     23 C16         0.9020    0.3710   -7.7220 ca        1 99A      0.681200
     24 C17         0.9010   -0.8540   -8.4610 ca        1 99A     -0.275300
     25 C18         0.3990   -0.8690   -9.7530 ca        1 99A      0.026000
     26 N5          0.4250    1.5330   -8.2880 nb        1 99A     -0.706000
     27 C28        -0.0580    1.4900   -9.5310 ca        1 99A      0.490200
     28 C19        -0.1020    0.3210  -10.3240 ca        1 99A     -0.354900
     29 C20        -0.6070    0.2440  -11.6920 c         1 99A      0.568700
     30 O3         -0.5340   -0.7250  -12.4380 o         1 99A     -0.411100
     31 N4         -1.2940    1.4670  -12.2470 ny        1 99A     -0.676800
     32 C21        -1.9160    1.2390  -13.6040 c3        1 99A      0.184100
     33 C22        -2.5580    2.4870  -14.0940 ca        1 99A     -0.205300
     34 C23        -1.8320    3.3810  -14.8910 ca        1 99A     -0.099000
     35 C24        -2.4540    4.5170  -15.4030 ca        1 99A     -0.117000
     36 C25        -3.8000    4.7650  -15.1220 ca        1 99A     -0.068000
     37 C26        -4.5250    3.8740  -14.3280 ca        1 99A     -0.117000
     38 C27        -3.9080    2.7360  -13.8130 ca        1 99A     -0.099000
     39 H151        0.4330    0.0430   -0.4530 hc        1 99A      0.084033
     40 H152        0.6500    1.4010    0.7310 hc        1 99A      0.084033
     41 H153        0.1620   -0.2480    1.3140 hc        1 99A      0.084033
     42 H9          1.9210   -1.0670    2.5960 ha        1 99A      0.168000
     43 H21N        4.4430   -1.9290    5.2790 hn        1 99A      0.480467
     44 H22N        4.8210   -0.4280    4.6450 hn        1 99A      0.480467
     45 H131        6.9480   -0.9520    0.2170 hc        1 99A      0.088367
     46 H132        6.9070   -0.2530    1.8840 hc        1 99A      0.088367
     47 H133        6.5700   -2.0240    1.6230 hc        1 99A      0.088367
     48 H12         5.2880    0.3390   -0.8180 ha        1 99A      0.163000
     49 H1          3.5510    1.4300   -3.3050 hn        1 99A      0.462300
     50 H301        1.6260   -1.7040   -4.6510 hc        1 99A      0.095950
     51 H302        3.3760   -1.4030   -4.3290 hc        1 99A      0.095950
     52 H41C        0.0120    0.8980   -4.0450 hc        1 99A      0.095950
     53 H42C        1.1590    2.1840   -3.5020 hc        1 99A      0.095950
     54 H29         2.8520   -1.1110   -6.7410 h1        1 99A      0.121200
     55 HA          0.6330    2.3810   -5.9220 h1        1 99A      0.121200
     56 H21C        3.1790    2.6730   -4.8390 hc        1 99A      0.068950
     57 H22C        2.9090    2.8090   -6.6080 hc        1 99A      0.068950
     58 H31C        4.1650    0.8860   -6.9870 hc        1 99A      0.068950
     59 H32C        4.4230    0.6440   -5.2250 hc        1 99A      0.068950
     60 H17         1.2710   -1.7890   -8.0120 ha        1 99A      0.173000
     61 H18         0.3860   -1.8080  -10.3380 ha        1 99A      0.190000
     62 H28        -0.4140    2.4720   -9.9000 h4        1 99A      0.029100
     63 H4         -2.0270    1.7660  -11.5950 hn        1 99A      0.456300
     64 H211       -2.6640    0.4020  -13.4950 hx        1 99A      0.119200
     65 H212       -1.0950    0.8950  -14.2990 hx        1 99A      0.119200
     66 H23        -0.7780    3.1760  -15.1390 ha        1 99A      0.138000
     67 H27        -4.4910    2.0230  -13.2100 ha        1 99A      0.138000
     68 H24        -1.8870    5.2140  -16.0420 ha        1 99A      0.165500
     69 H25        -4.2940    5.6600  -15.5380 ha        1 99A      0.168000
     70 H26        -5.5900    4.0640  -14.1180 ha        1 99A      0.165500
     71 H5          1.3360   -0.4480   -2.7800 hx        1 99A      0.096700
     72 H231        3.2400   -0.9540    4.6380 hn        1 99A      0.480467
     73 H121        3.8410   -0.0880   -2.6690 hn        1 99A      0.462300
     74 H42        -0.6090    2.2280  -12.3250 hn        1 99A      0.456300
@<TRIPOS>BOND
     1    1    2 1   
     2    1   39 1   
     3    1   40 1   
     4    1   41 1   
     5    2    3 ar  
     6    2   11 ar  
     7    3    4 ar  
     8    3   42 1   
     9    4    5 1   
    10    4    8 ar  
    11    5    6 2   
    12    5    7 1   
    13    7   43 1   
    14    7   44 1   
    15    7   72 1   
    16    8    9 1   
    17    8   10 ar  
    18    9   45 1   
    19    9   46 1   
    20    9   47 1   
    21   10   11 ar  
    22   10   48 1   
    23   11   12 1   
    24   12   13 2   
    25   12   14 1   
    26   14   15 1   
    27   14   49 1   
    28   14   73 1   
    29   15   16 1   
    30   15   17 1   
    31   15   71 1   
    32   16   21 1   
    33   16   50 1   
    34   16   51 1   
    35   17   18 1   
    36   17   52 1   
    37   17   53 1   
    38   18   19 1   
    39   18   22 1   
    40   18   55 1   
    41   19   20 1   
    42   19   56 1   
    43   19   57 1   
    44   20   21 1   
    45   20   58 1   
    46   20   59 1   
    47   21   22 1   
    48   21   54 1   
    49   22   23 1   
    50   23   24 ar  
    51   23   26 ar  
    52   24   25 ar  
    53   24   60 1   
    54   25   28 ar  
    55   25   61 1   
    56   26   27 ar  
    57   27   28 ar  
    58   27   62 1   
    59   28   29 1   
    60   29   30 2   
    61   29   31 1   
    62   31   32 1   
    63   31   63 1   
    64   31   74 1   
    65   32   33 1   
    66   32   64 1   
    67   32   65 1   
    68   33   34 ar  
    69   33   38 ar  
    70   34   35 ar  
    71   34   66 1   
    72   35   36 ar  
    73   35   68 1   
    74   36   37 ar  
    75   36   69 1   
    76   37   38 ar  
    77   37   70 1   
    78   38   67 1   
@<TRIPOS>SUBSTRUCTURE
     1 99A         1 TEMP              0 ****  ****    0 ROOT
