@<TRIPOS>MOLECULE
99A
   74    78     1     0     0
SMALL
bcc


@<TRIPOS>ATOM
      1 C15         0.7770    0.2540    0.5660 c3        1 99A     -0.093800
      2 C8          2.2090   -0.0870    0.7190 ca        1 99A      0.009700
      3 C9          2.6460   -0.7990    1.8450 ca        1 99A     -0.088000
      4 C10         3.9980   -1.1120    2.0120 ca        1 99A     -0.148600
      5 C14         4.4110   -1.9370    3.1650 c         1 99A      0.562700
      6 O2          4.9070   -3.0480    3.1760 o         1 99A     -0.345100
      7 N2          4.1810   -1.3190    4.5310 n4        1 99A     -0.759400
      8 C11         4.9570   -0.7270    1.0560 ca        1 99A      0.012700
      9 C13         6.3960   -1.0380    1.2090 c3        1 99A     -0.103800
     10 C12         4.5170   -0.0170   -0.0720 ca        1 99A     -0.096000
     11 C7          3.1670    0.2990   -0.2400 ca        1 99A     -0.145600
     12 C6          2.7390    1.1320   -1.3850 c         1 99A      0.560700
     13 O1          2.1210    2.1840   -1.3400 o         1 99A     -0.376100
     14 N1          3.1320    0.6380   -2.7590 n4        1 99A     -0.692800
     15 C5          1.9470    0.1010   -3.5530 c3        1 99A      0.158500
     16 C30         2.4170   -0.9040   -4.6200 c3        1 99A     -0.107400
     17 C4          1.0750    1.2370   -4.1150 c3        1 99A     -0.107400
     18 C1          1.3760    1.6090   -5.5780 c3        1 99A      0.183000
     19 C2          2.8360    2.1140   -5.7220 c3        1 99A     -0.121900
     20 C3          3.6470    0.8430   -5.9890 c3        1 99A     -0.121900
     21 C29         2.5830   -0.2910   -6.0210 c3        1 99A      0.183000
     22 N3          1.3000    0.3610   -6.3690 nh        1 99A     -0.713300
     23 C16         0.9130    0.3870   -7.7270 ca        1 99A      0.681200
     24 C17         0.9180   -0.8330   -8.4750 ca        1 99A     -0.275300
     25 C18         0.4210   -0.8390   -9.7690 ca        1 99A      0.026000
     26 N5          0.4350    1.5520   -8.2860 nb        1 99A     -0.706000
     27 C28        -0.0440    1.5160   -9.5310 ca        1 99A      0.490200
     28 C19        -0.0810    0.3530  -10.3330 ca        1 99A     -0.354900
     29 C20        -0.5820    0.2860  -11.7030 c         1 99A      0.568700
     30 O3         -0.5020   -0.6770  -12.4560 o         1 99A     -0.411100
     31 N4         -1.2710    1.5100  -12.2510 n4        1 99A     -0.676800
     32 C21        -1.8890    1.2910  -13.6110 c3        1 99A      0.184100
     33 C22        -2.5340    2.5400  -14.0930 ca        1 99A     -0.205300
     34 C23        -1.8090    3.4420  -14.8820 ca        1 99A     -0.099000
     35 C24        -2.4350    4.5800  -15.3870 ca        1 99A     -0.117000
     36 C25        -3.7820    4.8210  -15.1070 ca        1 99A     -0.068000
     37 C26        -4.5060    3.9210  -14.3210 ca        1 99A     -0.117000
     38 C27        -3.8860    2.7820  -13.8130 ca        1 99A     -0.099000
     39 H151        0.4160    0.0050   -0.4640 hc        1 99A      0.084033
     40 H152        0.1390   -0.3000    1.3000 hc        1 99A      0.084033
     41 H153        0.6260    1.3540    0.7330 hc        1 99A      0.084033
     42 H9          1.8940   -1.1260    2.5840 ha        1 99A      0.168000
     43 H21N        4.7850   -0.4970    4.6490 hn        1 99A      0.480467
     44 H22N        3.2040   -1.0260    4.6320 hn        1 99A      0.480467
     45 H131        6.5490   -2.0680    1.6220 hc        1 99A      0.088367
     46 H132        6.8820   -0.2980    1.8980 hc        1 99A      0.088367
     47 H133        6.9300   -0.9840    0.2260 hc        1 99A      0.088367
     48 H12         5.2720    0.3110   -0.8070 ha        1 99A      0.163000
     49 H1          3.5430    1.4190   -3.2920 hn        1 99A      0.462300
     50 H301        3.3790   -1.4070   -4.3380 hc        1 99A      0.095950
     51 H302        1.6310   -1.7100   -4.6690 hc        1 99A      0.095950
     52 H41C        0.0070    0.8830   -4.0500 hc        1 99A      0.095950
     53 H42C        1.1500    2.1680   -3.4930 hc        1 99A      0.095950
     54 H29         2.8620   -1.0980   -6.7500 h1        1 99A      0.121200
     55 HA          0.6320    2.3820   -5.9130 h1        1 99A      0.121200
     56 H21C        3.1730    2.6720   -4.8180 hc        1 99A      0.069200
     57 H22C        2.9090    2.8210   -6.5870 hc        1 99A      0.069200
     58 H31C        4.4240    0.6500   -5.2150 hc        1 99A      0.069200
     59 H32C        4.1720    0.9040   -6.9760 hc        1 99A      0.069200
     60 H17         1.2880   -1.7700   -8.0320 ha        1 99A      0.173000
     61 H18         0.4130   -1.7740  -10.3610 ha        1 99A      0.190000
     62 H28        -0.4010    2.5010   -9.8940 h4        1 99A      0.029100
     63 H4         -2.0070    1.8020  -11.5980 hn        1 99A      0.456300
     64 H211       -2.6350    0.4500  -13.5100 hx        1 99A      0.119200
     65 H212       -1.0650    0.9550  -14.3070 hx        1 99A      0.119200
     66 H23        -0.7550    3.2430  -15.1290 ha        1 99A      0.138000
     67 H27        -4.4680    2.0620  -13.2180 ha        1 99A      0.138000
     68 H24        -1.8690    5.2840  -16.0190 ha        1 99A      0.165500
     69 H25        -4.2780    5.7170  -15.5170 ha        1 99A      0.168000
     70 H26        -5.5720    4.1060  -14.1130 ha        1 99A      0.165500
     71 H5          1.3310   -0.4690   -2.7900 hx        1 99A      0.096700
     72 H231        4.4060   -2.0030    5.2700 hn        1 99A      0.480467
     73 H121        3.8340   -0.1040   -2.6670 hn        1 99A      0.462300
     74 H42        -0.5890    2.2740  -12.3210 hn        1 99A      0.456300
@<TRIPOS>BOND
     1    1    2 1   
     2    1   39 1   
     3    1   40 1   
     4    1   41 1   
     5    2    3 ar  
     6    2   11 ar  
     7    3    4 ar  
     8    3   42 1   
     9    4    5 1   
    10    4    8 ar  
    11    5    6 2   
    12    5    7 1   
    13    7   43 1   
    14    7   44 1   
    15    7   72 1   
    16    8    9 1   
    17    8   10 ar  
    18    9   45 1   
    19    9   46 1   
    20    9   47 1   
    21   10   11 ar  
    22   10   48 1   
    23   11   12 1   
    24   12   13 2   
    25   12   14 1   
    26   14   15 1   
    27   14   49 1   
    28   14   73 1   
    29   15   16 1   
    30   15   17 1   
    31   15   71 1   
    32   16   21 1   
    33   16   50 1   
    34   16   51 1   
    35   17   18 1   
    36   17   52 1   
    37   17   53 1   
    38   18   19 1   
    39   18   22 1   
    40   18   55 1   
    41   19   20 1   
    42   19   56 1   
    43   19   57 1   
    44   20   21 1   
    45   20   58 1   
    46   20   59 1   
    47   21   22 1   
    48   21   54 1   
    49   22   23 1   
    50   23   24 ar  
    51   23   26 ar  
    52   24   25 ar  
    53   24   60 1   
    54   25   28 ar  
    55   25   61 1   
    56   26   27 ar  
    57   27   28 ar  
    58   27   62 1   
    59   28   29 1   
    60   29   30 2   
    61   29   31 1   
    62   31   32 1   
    63   31   63 1   
    64   31   74 1   
    65   32   33 1   
    66   32   64 1   
    67   32   65 1   
    68   33   34 ar  
    69   33   38 ar  
    70   34   35 ar  
    71   34   66 1   
    72   35   36 ar  
    73   35   68 1   
    74   36   37 ar  
    75   36   69 1   
    76   37   38 ar  
    77   37   70 1   
    78   38   67 1   
@<TRIPOS>SUBSTRUCTURE
     1 99A         1 TEMP              0 ****  ****    0 ROOT
