@<TRIPOS>MOLECULE
99A
   71    75     1     0     0
SMALL
bcc


@<TRIPOS>ATOM
      1 C15         5.6310    0.5550    3.0050 c3        1 99A     -0.070800
      2 C8          6.0750    0.6680    1.5960 ca        1 99A     -0.037300
      3 C9          7.4340    0.5580    1.2800 ca        1 99A     -0.113000
      4 C10         7.8740    0.6560   -0.0410 ca        1 99A     -0.121600
      5 C14         9.3320    0.5030   -0.3310 c         1 99A      0.671700
      6 O2          9.7820   -0.3840   -1.0850 o         1 99A     -0.604100
      7 N2         10.1870    1.3820    0.2880 n         1 99A     -0.673000
      8 C11         6.9590    0.8710   -1.0830 ca        1 99A     -0.035300
      9 C13         7.4030    0.9860   -2.4920 c3        1 99A     -0.071800
     10 C12         5.6000    0.9810   -0.7670 ca        1 99A     -0.114000
     11 C7          5.1600    0.8810    0.5540 ca        1 99A     -0.122600
     12 C6          3.7000    1.0330    0.8450 c         1 99A      0.674700
     13 O1          3.2590    1.9340    1.5850 o         1 99A     -0.600100
     14 N1          2.8650    0.1230    0.2290 n         1 99A     -0.573900
     15 C5          1.4290    0.1230    0.4100 c3        1 99A      0.105700
     16 C30         0.9430   -1.0730    1.2640 c3        1 99A     -0.120400
     17 C4          0.6740    0.2570   -0.9340 c3        1 99A     -0.120400
     18 C1          0.1760   -1.0740   -1.5130 c3        1 99A      0.191000
     19 C2          1.3820   -2.0130   -1.7930 c3        1 99A     -0.083400
     20 C3          1.5590   -2.7970   -0.4880 c3        1 99A     -0.083400
     21 C29         0.4330   -2.2610    0.4380 c3        1 99A      0.191000
     22 N3         -0.6090   -1.8330   -0.5180 nh        1 99A     -0.716300
     23 C16        -1.8450   -1.3560   -0.0520 ca        1 99A      0.662200
     24 C17        -2.4160   -1.8940    1.1460 ca        1 99A     -0.303300
     25 C18        -3.7010   -1.5240    1.5130 ca        1 99A     -0.009000
     26 N5         -2.5500   -0.4630   -0.8280 nb        1 99A     -0.728000
     27 C28        -3.7860   -0.1290   -0.4420 ca        1 99A      0.462200
     28 C19        -4.4160   -0.6140    0.7200 ca        1 99A     -0.308900
     29 C20        -5.7930   -0.2380    1.1250 c         1 99A      0.678700
     30 O3         -6.5160   -1.0290    1.7680 o         1 99A     -0.612100
     31 N4         -6.2250    1.0470    0.8350 n         1 99A     -0.552900
     32 C21        -7.5870    1.4540    1.0550 c3        1 99A      0.129300
     33 C22        -8.5000    1.2670   -0.1250 ca        1 99A     -0.127300
     34 C23        -8.8960   -0.0230   -0.4950 ca        1 99A     -0.116500
     35 C24        -9.7630   -0.2050   -1.5710 ca        1 99A     -0.133500
     36 C25       -10.2390    0.8980   -2.2810 ca        1 99A     -0.124000
     37 C26        -9.8460    2.1850   -1.9130 ca        1 99A     -0.133500
     38 C27        -8.9760    2.3700   -0.8380 ca        1 99A     -0.116500
     39 H151        4.8770    1.3490    3.2410 hc        1 99A      0.058367
     40 H152        5.1560   -0.4430    3.1780 hc        1 99A      0.058367
     41 H153        6.4930    0.6590    3.7090 hc        1 99A      0.058367
     42 H9          8.1620    0.3830    2.0880 ha        1 99A      0.143000
     43 H21N        9.8430    2.1060    0.8630 hn        1 99A      0.314500
     44 H22N       11.1590    1.3230    0.1140 hn        1 99A      0.314500
     45 H131        8.1560    0.1910   -2.7300 hc        1 99A      0.059367
     46 H132        6.5420    0.8860   -3.1960 hc        1 99A      0.059367
     47 H133        7.8810    1.9840   -2.6620 hc        1 99A      0.059367
     48 H12         4.8720    1.1580   -1.5750 ha        1 99A      0.142000
     49 H1          3.2580   -0.5930   -0.3330 hn        1 99A      0.313500
     50 H301        1.7570   -1.4320    1.9430 hc        1 99A      0.063200
     51 H302        0.1050   -0.7050    1.9140 hc        1 99A      0.063200
     52 H41C       -0.2050    0.9310   -0.7590 hc        1 99A      0.063200
     53 H42C        1.3190    0.7560   -1.7020 hc        1 99A      0.063200
     54 H29         0.0440   -3.0690    1.1110 h1        1 99A      0.085700
     55 HA         -0.4350   -0.8940   -2.4360 h1        1 99A      0.085700
     56 H21C        1.1440   -2.7000   -2.6400 hc        1 99A      0.053700
     57 H22C        2.2880   -1.4270   -2.0690 hc        1 99A      0.053700
     58 H31C        1.4230   -3.8920   -0.6610 hc        1 99A      0.053700
     59 H32C        2.5610   -2.6420   -0.0250 hc        1 99A      0.053700
     60 H17        -1.8560   -2.6050    1.7680 ha        1 99A      0.147000
     61 H18        -4.1720   -1.9390    2.4200 ha        1 99A      0.162000
     62 H28        -4.2990    0.5700   -1.1300 h4        1 99A      0.020100
     63 H4         -5.7030    1.5820    0.1820 hn        1 99A      0.303500
     64 H211       -7.9980    0.8610    1.9250 h1        1 99A      0.070700
     65 H212       -7.5690    2.5450    1.3460 h1        1 99A      0.070700
     66 H23        -8.5180   -0.8880    0.0750 ha        1 99A      0.141500
     67 H27        -8.6710    3.3870   -0.5490 ha        1 99A      0.141500
     68 H24       -10.0730   -1.2200   -1.8590 ha        1 99A      0.132500
     69 H25       -10.9240    0.7540   -3.1280 ha        1 99A      0.131000
     70 H26       -10.2210    3.0560   -2.4700 ha        1 99A      0.132500
     71 H5          1.1880    1.0590    1.0100 h1        1 99A      0.089700
@<TRIPOS>BOND
     1    1    2 1   
     2    1   39 1   
     3    1   40 1   
     4    1   41 1   
     5    2    3 ar  
     6    2   11 ar  
     7    3    4 ar  
     8    3   42 1   
     9    4    5 1   
    10    4    8 ar  
    11    5    6 2   
    12    5    7 1   
    13    7   43 1   
    14    7   44 1   
    15    8    9 1   
    16    8   10 ar  
    17    9   45 1   
    18    9   46 1   
    19    9   47 1   
    20   10   11 ar  
    21   10   48 1   
    22   11   12 1   
    23   12   13 2   
    24   12   14 1   
    25   14   15 1   
    26   14   49 1   
    27   15   16 1   
    28   15   17 1   
    29   15   71 1   
    30   16   21 1   
    31   16   50 1   
    32   16   51 1   
    33   17   18 1   
    34   17   52 1   
    35   17   53 1   
    36   18   19 1   
    37   18   22 1   
    38   18   55 1   
    39   19   20 1   
    40   19   56 1   
    41   19   57 1   
    42   20   21 1   
    43   20   58 1   
    44   20   59 1   
    45   21   22 1   
    46   21   54 1   
    47   22   23 1   
    48   23   24 ar  
    49   23   26 ar  
    50   24   25 ar  
    51   24   60 1   
    52   25   28 ar  
    53   25   61 1   
    54   26   27 ar  
    55   27   28 ar  
    56   27   62 1   
    57   28   29 1   
    58   29   30 2   
    59   29   31 1   
    60   31   32 1   
    61   31   63 1   
    62   32   33 1   
    63   32   64 1   
    64   32   65 1   
    65   33   34 ar  
    66   33   38 ar  
    67   34   35 ar  
    68   34   66 1   
    69   35   36 ar  
    70   35   68 1   
    71   36   37 ar  
    72   36   69 1   
    73   37   38 ar  
    74   37   70 1   
    75   38   67 1   
@<TRIPOS>SUBSTRUCTURE
     1 99A         1 TEMP              0 ****  ****    0 ROOT
