@<TRIPOS>MOLECULE
99B
   74    78     1     0     0
SMALL
bcc


@<TRIPOS>ATOM
      1 C1          4.9460    1.9270   -1.7780 c3        1 99B      0.207500
      2 N1          5.6630    0.7340   -1.3490 nh        1 99B     -0.736600
      3 O1          1.1030   -2.7620   -0.5640 o         1 99B     -0.597100
      4 C2          5.7970    3.2020   -1.6410 c3        1 99B     -0.095400
      5 N2          0.7370   -0.6460    0.2510 n         1 99B     -0.575900
      6 O2         -8.5550   -1.4700    0.5660 o         1 99B     -0.544100
      7 C3          6.1670    3.5020   -0.2120 c3        1 99B     -0.108100
      8 N3         -2.7600    1.2080    1.1330 nh        1 99B     -0.717300
      9 O3          7.7180    0.3420    0.6910 o         1 99B     -0.636100
     10 C4          4.4740    1.8130   -3.2300 c3        1 99B     -0.101100
     11 N4         -4.5420    0.9280   -0.4450 nb        1 99B     -0.732000
     12 C5          5.0320   -0.2100   -0.5470 ca        1 99B      0.214600
     13 N5          8.0600   -1.8970    0.5660 n         1 99B     -0.666000
     14 C6          3.6390   -0.4570   -0.6570 ca        1 99B     -0.181000
     15 C7          3.0280   -1.4660    0.0760 ca        1 99B     -0.079600
     16 C8          1.5590   -1.6960   -0.1060 c         1 99B      0.673700
     17 C9         -0.7060   -0.7080    0.1580 c3        1 99B      0.105700
     18 C10        -1.2810    0.4350   -0.7110 c3        1 99B     -0.120400
     19 C11        -1.8050    1.6350    0.0890 c3        1 99B      0.191000
     20 C12        -1.8770    0.5270    2.1020 c3        1 99B      0.191000
     21 C13        -1.3820   -0.8140    1.5460 c3        1 99B     -0.120400
     22 C14        -0.6920    1.5200    2.2530 c3        1 99B     -0.083400
     23 C15        -0.6500    2.2660    0.9150 c3        1 99B     -0.083400
     24 C16        -4.0040    0.6530    0.7940 ca        1 99B      0.666200
     25 C17        -5.7940    0.5300   -0.6910 ca        1 99B      0.475200
     26 C18        -6.6060   -0.1740    0.2220 ca        1 99B     -0.335900
     27 C19        -7.9770   -0.5980   -0.0990 c         1 99B      0.619700
     28 C20        -8.6370    0.0820   -1.2440 cx        1 99B     -0.247700
     29 C21       -10.0630   -0.2720   -1.5910 cx        1 99B     -0.105900
     30 C22        -8.9510   -0.7140   -2.4890 cx        1 99B     -0.105900
     31 C23        -4.7520   -0.0820    1.7690 ca        1 99B     -0.309300
     32 C24        -6.0450   -0.4850    1.4700 ca        1 99B     -0.009000
     33 C25         5.7730   -1.0340    0.3460 ca        1 99B     -0.203600
     34 C26         7.2320   -0.8030    0.5430 c         1 99B      0.679700
     35 C27         5.1370   -2.0410    1.0710 ca        1 99B     -0.073000
     36 C28         3.7650   -2.2750    0.9550 ca        1 99B     -0.091300
     37 C29         3.1210   -3.3480    1.7460 c3        1 99B     -0.059800
     38 H1          4.0280    2.0670   -1.1270 h1        1 99B      0.042700
     39 HN1         6.6220    0.9110   -1.1150 hn        1 99B      0.434800
     40 H2          6.7240    3.1080   -2.2650 hc        1 99B      0.049700
     41 H2A         5.1980    4.0520   -2.0620 hc        1 99B      0.049700
     42 HN2         1.1400    0.1730    0.6380 hn        1 99B      0.312500
     43 H3          5.2540    3.5620    0.4280 hc        1 99B      0.044033
     44 H3A         6.8410    2.7160    0.2110 hc        1 99B      0.044033
     45 H3B         6.7010    4.4820   -0.1560 hc        1 99B      0.044033
     46 H4          5.3430    1.7440   -3.9260 hc        1 99B      0.042367
     47 H4A         3.8350    0.9080   -3.3720 hc        1 99B      0.042367
     48 H4B         3.8760    2.7190   -3.4900 hc        1 99B      0.042367
     49 HN5         9.0340   -1.7700    0.6850 hn        1 99B      0.315500
     50 HN5A        7.7090   -2.8040    0.3950 hn        1 99B      0.315500
     51 H6          3.0330    0.1420   -1.3560 ha        1 99B      0.146000
     52 H9         -0.9440   -1.6770   -0.3850 h1        1 99B      0.090700
     53 H10        -0.5120    0.8050   -1.4380 hc        1 99B      0.063450
     54 H10A       -2.1220    0.0060   -1.3170 hc        1 99B      0.063450
     55 H11        -2.2840    2.3830   -0.5960 h1        1 99B      0.085200
     56 H12        -2.4050    0.3770    3.0790 h1        1 99B      0.085200
     57 H13        -2.2620   -1.5030    1.4420 hc        1 99B      0.063450
     58 H13A       -0.6860   -1.2760    2.2920 hc        1 99B      0.063450
     59 H14        -0.8890    2.2260    3.0950 hc        1 99B      0.053450
     60 H14A        0.2560    0.9760    2.4730 hc        1 99B      0.053450
     61 H15         0.3250    2.1500    0.3880 hc        1 99B      0.053450
     62 H15A       -0.8350    3.3570    1.0620 hc        1 99B      0.053450
     63 H17        -6.1650    0.7790   -1.7040 h4        1 99B      0.025100
     64 H20        -8.3200    1.1370   -1.3590 hc        1 99B      0.094700
     65 H21       -10.5770   -1.0260   -0.9650 hc        1 99B      0.080450
     66 H21A      -10.7400    0.5350   -1.9200 hc        1 99B      0.080450
     67 H22        -8.8170   -0.2250   -3.4700 hc        1 99B      0.080450
     68 H22A       -8.6800   -1.7850   -2.5170 hc        1 99B      0.080450
     69 H23        -4.3180   -0.3240    2.7470 ha        1 99B      0.146000
     70 H24        -6.6410   -1.0540    2.2030 ha        1 99B      0.159000
     71 H27         5.7210   -2.6620    1.7700 ha        1 99B      0.137000
     72 H29         2.3940   -3.9180    1.1130 hc        1 99B      0.053033
     73 H29A        3.8800   -4.0640    2.1470 hc        1 99B      0.053033
     74 H29B        2.5650   -2.9080    2.6120 hc        1 99B      0.053033
@<TRIPOS>BOND
     1    1    2 1   
     2    1    4 1   
     3    1   10 1   
     4    1   38 1   
     5    2   12 1   
     6    2   39 1   
     7    3   16 2   
     8    4    7 1   
     9    4   40 1   
    10    4   41 1   
    11    5   16 1   
    12    5   17 1   
    13    5   42 1   
    14    6   27 2   
    15    7   43 1   
    16    7   44 1   
    17    7   45 1   
    18    8   19 1   
    19    8   20 1   
    20    8   24 1   
    21    9   34 2   
    22   10   46 1   
    23   10   47 1   
    24   10   48 1   
    25   11   24 ar  
    26   11   25 ar  
    27   12   14 ar  
    28   12   33 ar  
    29   13   34 1   
    30   13   49 1   
    31   13   50 1   
    32   14   15 ar  
    33   14   51 1   
    34   15   16 1   
    35   15   36 ar  
    36   17   18 1   
    37   17   21 1   
    38   17   52 1   
    39   18   19 1   
    40   18   53 1   
    41   18   54 1   
    42   19   23 1   
    43   19   55 1   
    44   20   21 1   
    45   20   22 1   
    46   20   56 1   
    47   21   57 1   
    48   21   58 1   
    49   22   23 1   
    50   22   59 1   
    51   22   60 1   
    52   23   61 1   
    53   23   62 1   
    54   24   31 ar  
    55   25   26 ar  
    56   25   63 1   
    57   26   27 1   
    58   26   32 ar  
    59   27   28 1   
    60   28   29 1   
    61   28   30 1   
    62   28   64 1   
    63   29   30 1   
    64   29   65 1   
    65   29   66 1   
    66   30   67 1   
    67   30   68 1   
    68   31   32 ar  
    69   31   69 1   
    70   32   70 1   
    71   33   34 1   
    72   33   35 ar  
    73   35   36 ar  
    74   35   71 1   
    75   36   37 1   
    76   37   72 1   
    77   37   73 1   
    78   37   74 1   
@<TRIPOS>SUBSTRUCTURE
     1 99B         1 TEMP              0 ****  ****    0 ROOT
