@<TRIPOS>MOLECULE
99B
   74    73     1     0     0
SMALL
bcc


@<TRIPOS>ATOM
      1 C1          6.1290   -1.1350   -0.9710 c3        1 99B      0.215500
      2 N1          6.1000   -0.9890    0.4530 nh        1 99B     -0.752000
      3 O1          1.1190   -1.5650    3.2860 o         1 99B     -0.593500
      4 C2          7.0460   -2.2900   -1.3450 c3        1 99B     -0.098400
      5 N2          0.4570   -0.1050    1.6270 n3        1 99B     -0.415400
      6 O2         -7.7630    2.1840   -3.6980 o         1 99B     -0.540100
      7 C3          7.4690   -2.1540   -2.8170 c3        1 99B     -0.092100
      8 N3         -3.3200   -0.1320    0.3340 n3        1 99B     -0.560200
      9 O3          7.5380    0.9540    0.7970 o         1 99B     -0.630500
     10 C4          4.7370   -1.4130   -1.4770 c3        1 99B     -0.102100
     11 N4         -4.3930    1.3070   -1.3230 n1        1 99B     -0.522800
     12 C5          5.0000   -0.2720    1.0900 ce        1 99B      0.162900
     13 N5          7.5470    1.9640    2.8570 n3        1 99B     -0.526400
     14 C6          3.6790   -0.7040    1.2240 ce        1 99B     -0.253100
     15 C7          2.9290   -0.3210    2.3360 c1        1 99B      0.072200
     16 C8          1.4550   -0.7430    2.4510 c1        1 99B      0.579500
     17 C9         -0.9020   -0.4320    1.7880 c3        1 99B      0.051000
     18 C10        -1.3160   -1.4310    0.6320 c3        1 99B     -0.084400
     19 C11        -2.4410   -0.9480   -0.2450 c3        1 99B      0.176500
     20 C12        -2.7930    1.0110    0.7620 c3        1 99B      0.176500
     21 C13        -1.7240    0.8890    1.8340 c3        1 99B     -0.084400
     22 C14        -2.0680    1.4580   -0.5190 c3        1 99B     -0.108900
     23 C15        -1.8110    0.0240   -1.2550 c3        1 99B     -0.108900
     24 C16        -4.4040    0.1500   -0.5920 c1        1 99B      0.175800
     25 C17        -5.4670    1.6340   -2.1080 c1        1 99B      0.397300
     26 C18        -6.5730    0.7880   -2.1640 cg        1 99B     -0.206200
     27 C19        -7.7940    1.1760   -3.0110 c         1 99B      0.566300
     28 C20        -8.9500    0.2910   -3.0700 cx        1 99B     -0.247700
     29 C21       -10.0490    1.2890   -3.3720 cx        1 99B     -0.105400
     30 C22        -9.8230    0.9020   -1.9930 cx        1 99B     -0.105400
     31 C23        -5.5100   -0.6980   -0.6470 c1        1 99B     -0.163500
     32 C24        -6.5850   -0.3720   -1.4330 c1        1 99B      0.025500
     33 C25         5.5700    0.5420    2.0680 c1        1 99B     -0.060800
     34 C26         6.9620    1.1280    1.8530 c1        1 99B      0.587500
     35 C27         4.8180    0.9260    3.1810 ce        1 99B     -0.132100
     36 C28         3.4990    0.4940    3.3150 ce        1 99B     -0.156300
     37 C29         2.7280    0.7880    4.6070 c3        1 99B     -0.062900
     38 H1          6.4660   -0.3050   -1.3780 h1        1 99B      0.041700
     39 HN1         6.7970   -1.3080    0.9620 hn        1 99B      0.442800
     40 H2          6.5680   -3.1430   -1.2180 hc        1 99B      0.053700
     41 H2A         7.8460   -2.2740   -0.7710 hc        1 99B      0.053700
     42 HN2         0.7090    0.5050    0.9910 hn        1 99B      0.275700
     43 H3          7.7040   -3.0400   -3.1740 hc        1 99B      0.036700
     44 H3A         8.2480   -1.5580   -2.8800 hc        1 99B      0.036700
     45 H3B         6.7250   -1.7770   -3.3380 hc        1 99B      0.036700
     46 H4          4.1100   -0.7720   -1.0790 hc        1 99B      0.042700
     47 H4A         4.4730   -2.3280   -1.2270 hc        1 99B      0.042700
     48 H4B         4.7200   -1.3230   -2.4550 hc        1 99B      0.042700
     49 HN5         8.4590    1.9840    2.9630 hn        1 99B      0.278200
     50 HN5A        7.0090    2.4410    3.4260 hn        1 99B      0.278200
     51 H6          3.2900   -1.3090    0.5550 ha        1 99B      0.145000
     52 H9         -1.0110   -0.8950    2.6510 h1        1 99B      0.089700
     53 H10        -1.5870   -2.2860    1.0430 hc        1 99B      0.059450
     54 H10A       -0.5290   -1.5940    0.0670 hc        1 99B      0.059450
     55 H11        -2.8890   -1.6950   -0.7040 h1        1 99B      0.083200
     56 H12        -3.4900    1.6540    1.0180 h1        1 99B      0.083200
     57 H13        -2.1590    0.9530    2.7160 hc        1 99B      0.059450
     58 H13A       -1.1020    1.6430    1.7390 hc        1 99B      0.059450
     59 H14        -1.2170    1.9030   -0.3050 hc        1 99B      0.053950
     60 H14A       -2.6440    2.0360   -1.0660 hc        1 99B      0.053950
     61 H15        -2.2770   -0.0160   -2.1220 hc        1 99B      0.053950
     62 H15A       -0.8490   -0.1500   -1.3600 hc        1 99B      0.053950
     63 H17        -5.4580    2.4620   -2.6300 ha        1 99B      0.123500
     64 H20        -8.5420   -0.5490   -3.3720 hc        1 99B      0.092700
     65 H21        -9.7490    2.1920   -3.6140 hc        1 99B      0.080950
     66 H21A      -10.8560    0.9190   -3.7890 hc        1 99B      0.080950
     67 H22       -10.5000    0.3020   -1.6020 hc        1 99B      0.080950
     68 H22A       -9.3900    1.5770   -1.4290 hc        1 99B      0.080950
     69 H23        -5.5180   -1.5300   -0.1220 ha        1 99B      0.091500
     70 H24        -7.3640   -0.9690   -1.4720 ha        1 99B      0.084500
     71 H27         5.2190    1.5000    3.8710 ha        1 99B      0.137000
     72 H29         3.1060    1.5870    5.0400 hc        1 99B      0.052367
     73 H29A        2.8040    0.0210    5.2140 hc        1 99B      0.052367
     74 H29B        1.7830    0.9460    4.3950 hc        1 99B      0.052367
@<TRIPOS>BOND
     1    1    2 1   
     2    1    4 1   
     3    1   10 1   
     4    1   38 1   
     5    2   12 1   
     6    2   39 1   
     7    3   16 2   
     8    4    7 1   
     9    4   40 1   
    10    4   41 1   
    11    5   16 2   
    12    5   17 1   
    13    5   42 1   
    14    6   27 2   
    15    7   43 1   
    16    7   44 1   
    17    7   45 1   
    18    8   19 1   
    19    8   20 1   
    20    8   24 1   
    21    9   34 2   
    22   10   46 1   
    23   10   47 1   
    24   10   48 1   
    25   11   25 3   
    26   12   14 1   
    27   12   33 2   
    28   13   34 2   
    29   13   49 1   
    30   13   50 1   
    31   14   15 2   
    32   14   51 1   
    33   15   36 2   
    34   17   18 1   
    35   17   21 1   
    36   17   52 1   
    37   18   19 1   
    38   18   53 1   
    39   18   54 1   
    40   19   23 1   
    41   19   55 1   
    42   20   21 1   
    43   20   22 1   
    44   20   56 1   
    45   21   57 1   
    46   21   58 1   
    47   22   23 1   
    48   22   59 1   
    49   22   60 1   
    50   23   61 1   
    51   23   62 1   
    52   24   31 3   
    53   25   63 1   
    54   26   27 1   
    55   26   32 3   
    56   27   28 1   
    57   28   29 1   
    58   28   30 1   
    59   28   64 1   
    60   29   30 1   
    61   29   65 1   
    62   29   66 1   
    63   30   67 1   
    64   30   68 1   
    65   31   69 1   
    66   32   70 1   
    67   33   35 2   
    68   35   36 1   
    69   35   71 1   
    70   36   37 1   
    71   37   72 1   
    72   37   73 1   
    73   37   74 1   
@<TRIPOS>SUBSTRUCTURE
     1 99B         1 TEMP              0 ****  ****    0 ROOT
