@<TRIPOS>MOLECULE
99B
   77    81     1     0     0
SMALL
bcc


@<TRIPOS>ATOM
      1 C1          0.1540   -2.1920    0.3200 c3        1 99B      0.144500
      2 N1         -0.5670   -0.8600    0.5730 n4        1 99B     -0.674400
      3 O1          2.7220    1.0360   -2.9500 o         1 99B     -0.355100
      4 C2          0.6220   -2.7850    1.6530 c3        1 99B     -0.121400
      5 N2          2.0090    3.2630   -3.0300 n4        1 99B     -0.688800
      6 O2          5.5130    6.3200  -11.3020 o         1 99B     -0.493100
      7 C3          1.6040   -1.9140    2.3880 c3        1 99B     -0.131100
      8 N3          4.5040    5.8310   -5.0100 nh        1 99B     -0.704300
      9 O3         -3.4060   -0.7020    0.4010 o         1 99B     -0.398100
     10 C4         -0.7410   -3.1740   -0.4120 c3        1 99B     -0.142100
     11 N4          4.4630    4.5390   -7.0900 nb        1 99B     -0.758000
     12 C5         -0.6980   -0.0180   -0.6170 ca        1 99B      0.044600
     13 N5         -4.4330   -0.2690   -1.6020 n4        1 99B     -0.746400
     14 C6          0.4800    0.5420   -1.1390 ca        1 99B     -0.049000
     15 C7          0.4590    1.3720   -2.2720 ca        1 99B     -0.116600
     16 C8          1.7940    1.8150   -2.7770 c         1 99B      0.530700
     17 C9          2.6970    3.5560   -4.3870 c3        1 99B      0.185500
     18 C10         4.2230    3.4500   -4.2480 c3        1 99B     -0.143400
     19 C11         4.9240    4.8030   -4.0460 c3        1 99B      0.185500
     20 C12         3.1120    6.0820   -4.6080 c3        1 99B      0.185500
     21 C13         2.1860    4.8970   -4.9330 c3        1 99B     -0.143400
     22 C14         3.2290    6.2510   -3.0660 c3        1 99B     -0.094900
     23 C15         4.4660    5.4220   -2.6920 c3        1 99B     -0.094900
     24 C16         4.7990    5.6780   -6.4050 ca        1 99B      0.553200
     25 C17         4.7950    4.4660   -8.3840 ca        1 99B      0.435200
     26 C18         5.4480    5.5010   -9.0890 ca        1 99B     -0.239900
     27 C19         5.7540    5.3810  -10.5380 c         1 99B      0.602700
     28 C20         6.3640    4.1060  -10.9700 cx        1 99B     -0.273700
     29 C21         7.3890    4.1380  -12.0860 cx        1 99B     -0.086900
     30 C22         6.0370    3.5660  -12.3480 cx        1 99B     -0.086900
     31 C23         5.4630    6.7630   -7.0320 ca        1 99B     -0.188300
     32 C24         5.7750    6.6660   -8.3910 ca        1 99B     -0.041000
     33 C25        -1.9380    0.2690   -1.2600 ca        1 99B     -0.115600
     34 C26        -3.2140   -0.2570   -0.7250 c         1 99B      0.559700
     35 C27        -1.9330    1.0940   -2.3850 ca        1 99B     -0.080000
     36 C28        -0.7500    1.6490   -2.9190 ca        1 99B      0.035700
     37 C29        -0.8450    2.4770   -4.1420 c3        1 99B     -0.117800
     38 H1          1.0540   -1.9370   -0.3170 hx        1 99B      0.105700
     39 HN1        -0.0110   -0.3420    1.2770 hn        1 99B      0.479300
     40 H2          1.1160   -3.7680    1.3970 hc        1 99B      0.109200
     41 H2A        -0.2570   -3.0300    2.3080 hc        1 99B      0.109200
     42 HN2         1.1160    3.7660   -2.9930 hn        1 99B      0.469300
     43 H3          1.1080   -1.0480    2.8920 hc        1 99B      0.066033
     44 H3A         2.1000   -2.5180    3.1950 hc        1 99B      0.066033
     45 H3B         2.4060   -1.5370    1.7100 hc        1 99B      0.066033
     46 H4         -0.1370   -4.0960   -0.6340 hc        1 99B      0.084700
     47 H4A        -1.6130   -3.4870    0.2140 hc        1 99B      0.084700
     48 H4B        -1.1020   -2.7620   -1.3840 hc        1 99B      0.084700
     49 HN5        -4.2290   -0.6960   -2.5150 hn        1 99B      0.498133
     50 HN5A       -4.7840    0.6890   -1.7470 hn        1 99B      0.498133
     51 H6          1.4630    0.3230   -0.6690 ha        1 99B      0.201000
     52 H9          2.3410    2.7260   -5.0690 hx        1 99B      0.090700
     53 H10         4.5140    2.7560   -3.4170 hc        1 99B      0.094450
     54 H10A        4.6010    2.9740   -5.1980 hc        1 99B      0.094450
     55 H11         6.0370    4.6600   -4.0970 h1        1 99B      0.121700
     56 H12         2.7260    7.0090   -5.1110 h1        1 99B      0.121700
     57 H13         2.1190    4.7830   -6.0530 hc        1 99B      0.094450
     58 H13A        1.1480    5.1330   -4.5780 hc        1 99B      0.094450
     59 H14         3.3860    7.3300   -2.8150 hc        1 99B      0.055700
     60 H14A        2.3030    5.9140   -2.5450 hc        1 99B      0.055700
     61 H15         5.2740    6.0830   -2.2880 hc        1 99B      0.055700
     62 H15A        4.2630    4.6400   -1.9250 hc        1 99B      0.055700
     63 H17         4.5160    3.5270   -8.9000 h4        1 99B      0.034100
     64 H20         6.5180    3.3840  -10.1460 hc        1 99B      0.085700
     65 H21         8.2630    3.4660  -12.0090 hc        1 99B      0.091700
     66 H21A        7.6490    5.1180  -12.5300 hc        1 99B      0.091700
     67 H22         5.3310    4.1390  -12.9790 hc        1 99B      0.091700
     68 H22A        5.9180    2.4740  -12.4650 hc        1 99B      0.091700
     69 H23         5.7280    7.6690   -6.4650 ha        1 99B      0.175000
     70 H24         6.2710    7.5030   -8.9130 ha        1 99B      0.184000
     71 H27        -2.8700    1.3590   -2.9090 ha        1 99B      0.172000
     72 H29        -0.9810    3.5590   -3.8750 hc        1 99B      0.099700
     73 H29A       -1.7270    2.1790   -4.7690 hc        1 99B      0.099700
     74 H29B        0.0650    2.3700   -4.7870 hc        1 99B      0.099700
     75 H121       -1.4810   -1.0690    0.9980 hn        1 99B      0.479300
     76 H221        2.6290    3.6450   -2.2940 hn        1 99B      0.469300
     77 H53        -5.1840   -0.8160   -1.1370 hn        1 99B      0.498133
@<TRIPOS>BOND
     1    1    2 1   
     2    1    4 1   
     3    1   10 1   
     4    1   38 1   
     5    2   12 1   
     6    2   39 1   
     7    2   75 1   
     8    3   16 2   
     9    4    7 1   
    10    4   40 1   
    11    4   41 1   
    12    5   16 1   
    13    5   17 1   
    14    5   42 1   
    15    5   76 1   
    16    6   27 2   
    17    7   43 1   
    18    7   44 1   
    19    7   45 1   
    20    8   19 1   
    21    8   20 1   
    22    8   24 1   
    23    9   34 2   
    24   10   46 1   
    25   10   47 1   
    26   10   48 1   
    27   11   24 ar  
    28   11   25 ar  
    29   12   14 ar  
    30   12   33 ar  
    31   13   34 1   
    32   13   49 1   
    33   13   50 1   
    34   13   77 1   
    35   14   15 ar  
    36   14   51 1   
    37   15   16 1   
    38   15   36 ar  
    39   17   18 1   
    40   17   21 1   
    41   17   52 1   
    42   18   19 1   
    43   18   53 1   
    44   18   54 1   
    45   19   23 1   
    46   19   55 1   
    47   20   21 1   
    48   20   22 1   
    49   20   56 1   
    50   21   57 1   
    51   21   58 1   
    52   22   23 1   
    53   22   59 1   
    54   22   60 1   
    55   23   61 1   
    56   23   62 1   
    57   24   31 ar  
    58   25   26 ar  
    59   25   63 1   
    60   26   27 1   
    61   26   32 ar  
    62   27   28 1   
    63   28   29 1   
    64   28   30 1   
    65   28   64 1   
    66   29   30 1   
    67   29   65 1   
    68   29   66 1   
    69   30   67 1   
    70   30   68 1   
    71   31   32 ar  
    72   31   69 1   
    73   32   70 1   
    74   33   34 1   
    75   33   35 ar  
    76   35   36 ar  
    77   35   71 1   
    78   36   37 1   
    79   37   72 1   
    80   37   73 1   
    81   37   74 1   
@<TRIPOS>SUBSTRUCTURE
     1 99B         1 TEMP              0 ****  ****    0 ROOT
