@<TRIPOS>MOLECULE
99B
   76    80     1     0     0
SMALL
bcc


@<TRIPOS>ATOM
      1 C1          1.5100   -1.6960   -1.6320 c3        1 99B      0.201500
      2 N1          0.5080   -1.0230   -0.8050 nu        1 99B     -0.692600
      3 O1         -0.9130    1.4190   -5.3690 o         1 99B     -0.374100
      4 C2          2.4980   -2.4920   -0.7610 c3        1 99B     -0.097400
      5 N2         -0.2610    3.5020   -4.5440 ny        1 99B     -0.683800
      6 O2          6.8960    5.1900  -10.2680 o         1 99B     -0.511100
      7 C3          3.3150   -1.6170    0.1500 c3        1 99B     -0.107100
      8 N3          3.3900    5.2950   -4.9160 nh        1 99B     -0.708300
      9 O3         -0.8650   -0.6930    1.6410 o         1 99B     -0.452100
     10 C4          0.8900   -2.6400   -2.6620 c3        1 99B     -0.126100
     11 N4          4.7890    3.8460   -6.2530 nb        1 99B     -0.742000
     12 C5         -0.2810   -0.0080   -1.2110 ca        1 99B      0.310600
     13 N5         -2.8850    0.3710    1.5930 nz        1 99B     -0.755400
     14 C6         -0.1370    0.5460   -2.5440 ca        1 99B     -0.138000
     15 C7         -0.8810    1.6200   -2.9590 ca        1 99B     -0.075600
     16 C8         -0.7160    2.0790   -4.3610 c         1 99B      0.551700
     17 C9          1.0000    3.6060   -5.3940 c3        1 99B      0.150500
     18 C10         2.2270    3.0960   -4.6220 c3        1 99B     -0.139400
     19 C11         3.0670    4.2120   -3.9770 c3        1 99B      0.191500
     20 C12         2.0780    5.9290   -5.1270 c3        1 99B      0.191500
     21 C13         1.1500    5.0290   -5.9590 c3        1 99B     -0.139400
     22 C14         1.5300    6.0790   -3.6800 c3        1 99B     -0.095400
     23 C15         2.2140    4.9460   -2.9020 c3        1 99B     -0.095400
     24 C16         4.2370    5.0820   -6.0390 ca        1 99B      0.599200
     25 C17         5.6850    3.7220   -7.2430 ca        1 99B      0.457200
     26 C18         6.0690    4.7740   -8.0970 ca        1 99B     -0.275900
     27 C19         7.0380    4.5800   -9.2010 c         1 99B      0.609700
     28 C20         8.1590    3.6510   -8.9410 cx        1 99B     -0.267700
     29 C21         9.4510    3.8410   -9.7080 cx        1 99B     -0.091400
     30 C22         8.5710    2.6780  -10.0260 cx        1 99B     -0.091400
     31 C23         4.5660    6.2000   -6.8580 ca        1 99B     -0.259300
     32 C24         5.4820    6.0290   -7.8920 ca        1 99B     -0.021000
     33 C25        -1.2970    0.5840   -0.3800 ca        1 99B     -0.301600
     34 C26        -1.5520    0.0410    0.9360 c         1 99B      0.578700
     35 C27        -2.0270    1.7000   -0.8560 ca        1 99B     -0.032000
     36 C28        -1.8400    2.2380   -2.1110 ca        1 99B     -0.125300
     37 C29        -2.6390    3.4000   -2.5640 c3        1 99B     -0.074800
     38 H1          2.0990   -0.8920   -2.1710 h1        1 99B      0.064700
     39 HN1         0.4130   -1.3890    0.1240 hn        1 99B      0.474800
     40 H2          1.9500   -3.2690   -0.1660 hc        1 99B      0.077200
     41 H2A         3.1810   -3.0390   -1.4660 hc        1 99B      0.077200
     42 HN2        -1.0110    4.0270   -5.0140 hn        1 99B      0.463800
     43 H3          2.6860   -1.1460    0.9430 hc        1 99B      0.049700
     44 H3A         4.1010   -2.2320    0.6570 hc        1 99B      0.049700
     45 H3B         3.8270   -0.8070   -0.4240 hc        1 99B      0.049700
     46 H4          0.1360   -2.1190   -3.2990 hc        1 99B      0.064033
     47 H4A         0.3980   -3.5100   -2.1630 hc        1 99B      0.064033
     48 H4B         1.7040   -3.0300   -3.3230 hc        1 99B      0.064033
     49 HN5        -3.0100   -0.2310    2.4210 hn        1 99B      0.473133
     50 HN5A       -3.6540    0.2100    0.9370 hn        1 99B      0.473133
     51 H6          0.5820    0.0750   -3.2400 ha        1 99B      0.183000
     52 H9          0.8100    2.9050   -6.2680 hx        1 99B      0.114700
     53 H10         2.8650    2.5330   -5.3580 hc        1 99B      0.087950
     54 H10A        1.9290    2.3620   -3.8280 hc        1 99B      0.087950
     55 H11         4.0100    3.7760   -3.5520 h1        1 99B      0.116700
     56 H12         2.1960    6.9220   -5.6370 h1        1 99B      0.116700
     57 H13         0.1600    5.5380   -6.0880 hc        1 99B      0.087950
     58 H13A        1.5910    4.9170   -6.9900 hc        1 99B      0.087950
     59 H14         0.4180    6.0210   -3.6570 hc        1 99B      0.055200
     60 H14A        1.8250    7.0760   -3.2660 hc        1 99B      0.055200
     61 H15         1.4950    4.2560   -2.4050 hc        1 99B      0.055200
     62 H15A        2.8850    5.3630   -2.1100 hc        1 99B      0.055200
     63 H17         6.1110    2.7070   -7.3670 h4        1 99B      0.038100
     64 H20         8.2290    3.3210   -7.8860 hc        1 99B      0.089700
     65 H21        10.4030    3.6780   -9.1740 hc        1 99B      0.088950
     66 H21A        9.5090    4.6780  -10.4300 hc        1 99B      0.088950
     67 H22         8.0060    2.6830  -10.9770 hc        1 99B      0.088950
     68 H22A        8.8800    1.6610   -9.7240 hc        1 99B      0.088950
     69 H23         4.1280    7.1910   -6.6700 ha        1 99B      0.156000
     70 H24         5.7490    6.8730   -8.5520 ha        1 99B      0.177000
     71 H27        -2.7710    2.1930   -0.2070 ha        1 99B      0.135000
     72 H29        -2.9490    3.2850   -3.6340 hc        1 99B      0.064367
     73 H29A       -2.0600    4.3510   -2.4470 hc        1 99B      0.064367
     74 H29B       -3.5760    3.5050   -1.9590 hc        1 99B      0.064367
     75 H221       -0.0860    3.9330   -3.6280 hn        1 99B      0.463800
     76 H53        -2.8980    1.3490    1.8960 hn        1 99B      0.473133
@<TRIPOS>BOND
     1    1    2 1   
     2    1    4 1   
     3    1   10 1   
     4    1   38 1   
     5    2   12 1   
     6    2   39 1   
     7    3   16 2   
     8    4    7 1   
     9    4   40 1   
    10    4   41 1   
    11    5   16 1   
    12    5   17 1   
    13    5   42 1   
    14    5   75 1   
    15    6   27 2   
    16    7   43 1   
    17    7   44 1   
    18    7   45 1   
    19    8   19 1   
    20    8   20 1   
    21    8   24 1   
    22    9   34 2   
    23   10   46 1   
    24   10   47 1   
    25   10   48 1   
    26   11   24 ar  
    27   11   25 ar  
    28   12   14 ar  
    29   12   33 ar  
    30   13   34 1   
    31   13   49 1   
    32   13   50 1   
    33   13   76 1   
    34   14   15 ar  
    35   14   51 1   
    36   15   16 1   
    37   15   36 ar  
    38   17   18 1   
    39   17   21 1   
    40   17   52 1   
    41   18   19 1   
    42   18   53 1   
    43   18   54 1   
    44   19   23 1   
    45   19   55 1   
    46   20   21 1   
    47   20   22 1   
    48   20   56 1   
    49   21   57 1   
    50   21   58 1   
    51   22   23 1   
    52   22   59 1   
    53   22   60 1   
    54   23   61 1   
    55   23   62 1   
    56   24   31 ar  
    57   25   26 ar  
    58   25   63 1   
    59   26   27 1   
    60   26   32 ar  
    61   27   28 1   
    62   28   29 1   
    63   28   30 1   
    64   28   64 1   
    65   29   30 1   
    66   29   65 1   
    67   29   66 1   
    68   30   67 1   
    69   30   68 1   
    70   31   32 ar  
    71   31   69 1   
    72   32   70 1   
    73   33   34 1   
    74   33   35 ar  
    75   35   36 ar  
    76   35   71 1   
    77   36   37 1   
    78   37   72 1   
    79   37   73 1   
    80   37   74 1   
@<TRIPOS>SUBSTRUCTURE
     1 99B         1 TEMP              0 ****  ****    0 ROOT
