@<TRIPOS>MOLECULE
99B
   76    80     1     0     0
SMALL
bcc


@<TRIPOS>ATOM
      1 C1          1.5200   -1.6880   -1.6080 c3        1 99B      0.201500
      2 N1          0.5200   -1.0110   -0.7800 nh        1 99B     -0.692600
      3 O1         -0.9130    1.4140   -5.3500 o         1 99B     -0.374100
      4 C2          2.5100   -2.4800   -0.7370 c3        1 99B     -0.097400
      5 N2         -0.2580    3.4990   -4.5350 n4        1 99B     -0.683800
      6 O2          6.8690    5.1680  -10.3010 o         1 99B     -0.511100
      7 C3          3.3300   -1.6010    0.1690 c3        1 99B     -0.107100
      8 N3          3.3920    5.2890   -4.9300 nh        1 99B     -0.708300
      9 O3         -0.8460   -0.6720    1.6670 o         1 99B     -0.452100
     10 C4          0.8980   -2.6360   -2.6330 c3        1 99B     -0.126100
     11 N4          4.7820    3.8360   -6.2720 nb        1 99B     -0.742000
     12 C5         -0.2700    0.0020   -1.1890 ca        1 99B      0.310600
     13 N5         -2.8660    0.3920    1.6200 n4        1 99B     -0.755400
     14 C6         -0.1290    0.5510   -2.5240 ca        1 99B     -0.138000
     15 C7         -0.8740    1.6240   -2.9410 ca        1 99B     -0.075600
     16 C8         -0.7130    2.0780   -4.3450 c         1 99B      0.551700
     17 C9          0.9980    3.6010   -5.3920 c3        1 99B      0.150500
     18 C10         2.2290    3.0920   -4.6250 c3        1 99B     -0.139400
     19 C11         3.0740    4.2080   -3.9870 c3        1 99B      0.191500
     20 C12         2.0790    5.9240   -5.1350 c3        1 99B      0.191500
     21 C13         1.1460    5.0220   -5.9600 c3        1 99B     -0.139400
     22 C14         1.5400    6.0770   -3.6860 c3        1 99B     -0.095400
     23 C15         2.2270    4.9460   -2.9090 c3        1 99B     -0.095400
     24 C16         4.2320    5.0730   -6.0580 ca        1 99B      0.599200
     25 C17         5.6730    3.7080   -7.2660 ca        1 99B      0.457200
     26 C18         6.0530    4.7590   -8.1250 ca        1 99B     -0.275900
     27 C19         7.0160    4.5610   -9.2340 c         1 99B      0.609700
     28 C20         8.1370    3.6310   -8.9780 cx        1 99B     -0.267700
     29 C21         9.4250    3.8180   -9.7540 cx        1 99B     -0.091400
     30 C22         8.5420    2.6550  -10.0630 cx        1 99B     -0.091400
     31 C23         4.5580    6.1890   -6.8800 ca        1 99B     -0.259300
     32 C24         5.4680    6.0140   -7.9200 ca        1 99B     -0.021000
     33 C25        -1.2840    0.5980   -0.3580 ca        1 99B     -0.301600
     34 C26        -1.5360    0.0590    0.9620 c         1 99B      0.578700
     35 C27        -2.0150    1.7110   -0.8350 ca        1 99B     -0.032000
     36 C28        -1.8310    2.2450   -2.0940 ca        1 99B     -0.125300
     37 C29        -2.6320    3.4050   -2.5490 c3        1 99B     -0.074800
     38 H1          2.1070   -0.8860   -2.1520 h1        1 99B      0.064700
     39 HN1         0.4270   -1.3740    0.1490 hn        1 99B      0.474800
     40 H2          3.1910   -3.0300   -1.4420 hc        1 99B      0.077200
     41 H2A         1.9640   -3.2550   -0.1370 hc        1 99B      0.077200
     42 HN2        -0.0780    3.9330   -3.6210 hn        1 99B      0.463800
     43 H3          3.8390   -0.7930   -0.4100 hc        1 99B      0.049700
     44 H3A         2.7030   -1.1280    0.9620 hc        1 99B      0.049700
     45 H3B         4.1170   -2.2150    0.6760 hc        1 99B      0.049700
     46 H4          0.1410   -2.1170   -3.2690 hc        1 99B      0.064033
     47 H4A         0.4070   -3.5030   -2.1290 hc        1 99B      0.064033
     48 H4B         1.7090   -3.0270   -3.2950 hc        1 99B      0.064033
     49 HN5        -2.9900   -0.2070    2.4500 hn        1 99B      0.473133
     50 HN5A       -2.8790    1.3710    1.9200 hn        1 99B      0.473133
     51 H6          0.5870    0.0770   -3.2210 ha        1 99B      0.183000
     52 H9          0.8030    2.8980   -6.2630 hx        1 99B      0.114700
     53 H10         2.8630    2.5260   -5.3630 hc        1 99B      0.087950
     54 H10A        1.9350    2.3600   -3.8280 hc        1 99B      0.087950
     55 H11         4.0190    3.7720   -3.5670 h1        1 99B      0.116700
     56 H12         2.1960    6.9150   -5.6480 h1        1 99B      0.116700
     57 H13         0.1560    5.5320   -6.0860 hc        1 99B      0.087950
     58 H13A        1.5820    4.9080   -6.9940 hc        1 99B      0.087950
     59 H14         0.4280    6.0190   -3.6560 hc        1 99B      0.055200
     60 H14A        1.8380    7.0750   -3.2760 hc        1 99B      0.055200
     61 H15         1.5100    4.2570   -2.4070 hc        1 99B      0.055200
     62 H15A        2.9020    5.3640   -2.1210 hc        1 99B      0.055200
     63 H17         6.0970    2.6930   -7.3900 h4        1 99B      0.038100
     64 H20         8.2130    3.3040   -7.9230 hc        1 99B      0.089700
     65 H21        10.3800    3.6550   -9.2240 hc        1 99B      0.088950
     66 H21A        9.4800    4.6530  -10.4780 hc        1 99B      0.088950
     67 H22         7.9710    2.6580  -11.0110 hc        1 99B      0.088950
     68 H22A        8.8510    1.6390   -9.7610 hc        1 99B      0.088950
     69 H23         4.1220    7.1800   -6.6930 ha        1 99B      0.156000
     70 H24         5.7320    6.8560   -8.5830 ha        1 99B      0.177000
     71 H27        -2.7570    2.2070   -0.1860 ha        1 99B      0.135000
     72 H29        -2.9450    3.2860   -3.6170 hc        1 99B      0.064367
     73 H29A       -3.5670    3.5120   -1.9410 hc        1 99B      0.064367
     74 H29B       -2.0510    4.3560   -2.4370 hc        1 99B      0.064367
     75 H221       -1.0100    4.0230   -5.0020 hn        1 99B      0.463800
     76 H53        -3.6380    0.2290    0.9670 hn        1 99B      0.473133
@<TRIPOS>BOND
     1    1    2 1   
     2    1    4 1   
     3    1   10 1   
     4    1   38 1   
     5    2   12 1   
     6    2   39 1   
     7    3   16 2   
     8    4    7 1   
     9    4   40 1   
    10    4   41 1   
    11    5   16 1   
    12    5   17 1   
    13    5   42 1   
    14    5   75 1   
    15    6   27 2   
    16    7   43 1   
    17    7   44 1   
    18    7   45 1   
    19    8   19 1   
    20    8   20 1   
    21    8   24 1   
    22    9   34 2   
    23   10   46 1   
    24   10   47 1   
    25   10   48 1   
    26   11   24 ar  
    27   11   25 ar  
    28   12   14 ar  
    29   12   33 ar  
    30   13   34 1   
    31   13   49 1   
    32   13   50 1   
    33   13   76 1   
    34   14   15 ar  
    35   14   51 1   
    36   15   16 1   
    37   15   36 ar  
    38   17   18 1   
    39   17   21 1   
    40   17   52 1   
    41   18   19 1   
    42   18   53 1   
    43   18   54 1   
    44   19   23 1   
    45   19   55 1   
    46   20   21 1   
    47   20   22 1   
    48   20   56 1   
    49   21   57 1   
    50   21   58 1   
    51   22   23 1   
    52   22   59 1   
    53   22   60 1   
    54   23   61 1   
    55   23   62 1   
    56   24   31 ar  
    57   25   26 ar  
    58   25   63 1   
    59   26   27 1   
    60   26   32 ar  
    61   27   28 1   
    62   28   29 1   
    63   28   30 1   
    64   28   64 1   
    65   29   30 1   
    66   29   65 1   
    67   29   66 1   
    68   30   67 1   
    69   30   68 1   
    70   31   32 ar  
    71   31   69 1   
    72   32   70 1   
    73   33   34 1   
    74   33   35 ar  
    75   35   36 ar  
    76   35   71 1   
    77   36   37 1   
    78   37   72 1   
    79   37   73 1   
    80   37   74 1   
@<TRIPOS>SUBSTRUCTURE
     1 99B         1 TEMP              0 ****  ****    0 ROOT
