@<TRIPOS>MOLECULE
99P
   50    46     1     0     0
SMALL
bcc


@<TRIPOS>ATOM
      1 N4          1.9840    0.9590   -0.6640 n3        1 99P     -0.341000
      2 C3          1.2200    1.9160    0.0070 c3        1 99P     -0.044000
      3 C5          1.5980    1.9210    1.4770 c1        1 99P      0.323000
      4 O7          1.8930    2.9680    2.0220 o         1 99P     -0.370000
      5 C2          1.4890    3.3100   -0.6020 c3        1 99P     -0.157000
      6 C1          0.2260    3.7820   -1.4120 c2        1 99P     -0.088000
      7 C8         -0.7950    2.8800   -1.6940 c1        1 99P     -0.125000
      8 C12         0.1690    5.0810   -1.9190 c2        1 99P     -0.131000
      9 C9         -1.8740    3.2740   -2.4830 c1        1 99P     -0.126250
     10 C11        -0.9090    5.4730   -2.7080 c1        1 99P     -0.131000
     11 C10        -1.9310    4.5700   -2.9890 c1        1 99P     -0.126250
     12 N6          1.7820    0.6550    2.1850 n2        1 99P     -0.314000
     13 C13         1.4520   -0.8050    1.6330 c3        1 99P      0.021000
     14 C14        -0.0740   -1.0940    1.4480 c1        1 99P      0.280000
     15 O15        -0.8980   -0.2650    1.7980 o         1 99P     -0.356000
     16 C19         2.0550   -1.5870    2.5450 c3        1 99P     -0.164000
     17 C20         2.0900   -0.7570    3.9220 c3        1 99P     -0.172000
     18 C21         2.3340    0.4690    3.6110 c3        1 99P     -0.023000
     19 N16        -0.5130   -2.3940    0.9570 n2        1 99P     -0.377000
     20 C17        -1.8840   -2.5800    0.5250 c3        1 99P      0.014000
     21 C18        -1.9260   -3.6080   -0.6230 c2        1 99P     -0.168000
     22 C22        -1.2110   -3.3710   -1.7910 c2        1 99P     -0.055000
     23 N23        -1.3500   -4.2170   -2.8650 n1        1 99P     -0.142000
     24 C24        -2.1880   -5.2870   -2.7870 c1        1 99P     -0.126250
     25 C25        -2.9050   -5.5270   -1.6170 c1        1 99P     -0.126250
     26 C26        -2.7680   -4.6840   -0.5440 c1        1 99P     -0.084000
     27 H4          1.7120    0.1230   -0.4150 hn        1 99P      0.155000
     28 H5          1.8750    1.0590   -1.5650 hn        1 99P      0.155000
     29 H3          0.2740    1.6980   -0.0840 h1        1 99P      0.121000
     30 H1          2.2630    3.2600   -1.2030 hc        1 99P      0.113500
     31 H2          1.6740    3.9510    0.1170 hc        1 99P      0.113500
     32 H7         -0.7560    1.9750   -1.3410 ha        1 99P      0.139000
     33 H11         0.8840    5.7130   -1.7220 ha        1 99P      0.132000
     34 H8         -2.5940    2.6370   -2.6820 ha        1 99P      0.144250
     35 H10        -0.9490    6.3770   -3.0610 ha        1 99P      0.130000
     36 H9         -2.6950    4.8480   -3.5480 ha        1 99P      0.144250
     37 H12         1.7970   -0.9490    0.7320 h1        1 99P      0.129000
     38 H16         2.9660   -1.7950    2.2580 hc        1 99P      0.098000
     39 H17         1.5420   -2.4170    2.6670 hc        1 99P      0.098000
     40 H18         2.7970   -1.1030    4.5030 hc        1 99P      0.095000
     41 H19         1.2180   -0.8220    4.3760 hc        1 99P      0.095000
     42 H20         1.8780    1.0730    4.2320 h1        1 99P      0.101500
     43 H21         3.2980    0.6340    3.6230 h1        1 99P      0.101500
     44 H13         0.0850   -3.0770    0.8800 hn        1 99P      0.220000
     45 H14        -2.4180   -2.9040    1.2700 h1        1 99P      0.110500
     46 H15        -2.2450   -1.7270    0.2110 h1        1 99P      0.110500
     47 H22        -0.6080   -2.6010   -1.8480 h4        1 99P      0.178000
     48 H23        -2.2850   -5.8850   -3.5480 ha        1 99P      0.144250
     49 H24        -3.5080   -6.2980   -1.5610 ha        1 99P      0.144250
     50 H25        -3.2690   -4.8520    0.2750 ha        1 99P      0.137000
@<TRIPOS>BOND
     1    1    2 1   
     2    1   27 1   
     3    1   28 1   
     4    2    3 1   
     5    2    5 1   
     6    2   29 1   
     7    3    4 1   
     8    5    6 1   
     9    5   30 1   
    10    5   31 1   
    11    6    7 1   
    12    6    8 1   
    13    7   32 1   
    14    8   10 1   
    15    8   33 1   
    16    9   11 1   
    17    9   34 1   
    18   10   35 1   
    19   11   36 1   
    20   12   13 1   
    21   12   18 1   
    22   13   14 1   
    23   13   16 1   
    24   13   37 1   
    25   14   15 1   
    26   16   17 1   
    27   16   38 1   
    28   16   39 1   
    29   17   18 1   
    30   17   40 1   
    31   17   41 1   
    32   18   42 1   
    33   18   43 1   
    34   19   20 1   
    35   19   44 1   
    36   20   21 1   
    37   20   45 1   
    38   20   46 1   
    39   21   22 1   
    40   21   26 1   
    41   22   23 1   
    42   22   47 1   
    43   24   25 1   
    44   24   48 1   
    45   25   49 1   
    46   26   50 1   
@<TRIPOS>SUBSTRUCTURE
     1 99P         1 TEMP              0 ****  ****    0 ROOT
