@<TRIPOS>MOLECULE
99P
   50    52     1     0     0
SMALL
bcc


@<TRIPOS>ATOM
      1 N4          2.2360    1.7150    0.6810 n3        1 99P     -0.898800
      2 C3          2.2400    0.3450    0.2120 c3        1 99P      0.118500
      3 C5          0.8180   -0.0850   -0.2030 c         1 99P      0.667100
      4 O7          0.1180    0.6620   -0.9220 o         1 99P     -0.632100
      5 C2          3.1450    0.0500   -1.0040 c3        1 99P     -0.078100
      6 C1          4.5700    0.3520   -0.7060 ca        1 99P     -0.089300
      7 C8          5.1110    1.6030   -1.0250 ca        1 99P     -0.128500
      8 C12         5.3860   -0.6160   -0.1070 ca        1 99P     -0.128500
      9 C9          6.4490    1.8810   -0.7480 ca        1 99P     -0.124000
     10 C11         6.7220   -0.3350    0.1690 ca        1 99P     -0.124000
     11 C10         7.2560    0.9140   -0.1500 ca        1 99P     -0.126000
     12 N6          0.3200   -1.2920    0.2420 n         1 99P     -0.456800
     13 C13        -0.9500   -1.8270   -0.2380 c3        1 99P      0.033700
     14 C14        -2.1700   -1.3110    0.5630 c         1 99P      0.651100
     15 O15        -2.9920   -2.1060    1.0630 o         1 99P     -0.626100
     16 C19        -0.8480   -3.3650   -0.1500 c3        1 99P     -0.088400
     17 C20         0.4090   -3.6690    0.6570 c3        1 99P     -0.091400
     18 C21         1.1340   -2.3280    0.8530 c3        1 99P      0.089000
     19 N16        -2.3120    0.0510    0.6870 n         1 99P     -0.550900
     20 C17        -3.4470    0.6430    1.3410 c3        1 99P      0.139300
     21 C18        -4.6220    0.9130    0.4490 ca        1 99P     -0.235600
     22 C22        -4.9700    2.2290    0.0840 ca        1 99P      0.403200
     23 N23        -6.0310    2.5290   -0.6900 nb        1 99P     -0.669000
     24 C24        -6.7850    1.5040   -1.1310 ca        1 99P      0.395200
     25 C25        -6.5190    0.1570   -0.8250 ca        1 99P     -0.250300
     26 C26        -5.4180   -0.1390   -0.0220 ca        1 99P     -0.077000
     27 H4          3.1740    2.0690    0.6990 hn        1 99P      0.365300
     28 H5          1.6710    2.2950    0.0890 hn        1 99P      0.365300
     29 H3          2.6080   -0.2760    1.0830 h1        1 99P      0.078700
     30 H1          3.0350   -1.0340   -1.2750 hc        1 99P      0.063200
     31 H2          2.7930    0.6550   -1.8820 hc        1 99P      0.063200
     32 H7          4.4800    2.3660   -1.5050 ha        1 99P      0.131000
     33 H11         4.9670   -1.6020    0.1450 ha        1 99P      0.131000
     34 H8          6.8670    2.8660   -1.0040 ha        1 99P      0.134500
     35 H10         7.3570   -1.1000    0.6400 ha        1 99P      0.134500
     36 H9          8.3110    1.1340    0.0680 ha        1 99P      0.135000
     37 H12        -1.1140   -1.5000   -1.3080 h1        1 99P      0.085700
     38 H16        -1.7570   -3.7990    0.3370 hc        1 99P      0.075700
     39 H17        -0.7700   -3.7890   -1.1820 hc        1 99P      0.075700
     40 H18         0.1450   -4.1100    1.6500 hc        1 99P      0.058200
     41 H19         1.0670   -4.3940    0.1210 hc        1 99P      0.058200
     42 H20         2.1540   -2.3590    0.3770 h1        1 99P      0.049200
     43 H21         1.2630   -2.0990    1.9470 h1        1 99P      0.049200
     44 H13        -1.7420    0.6510    0.1300 hn        1 99P      0.339500
     45 H14        -3.7830   -0.0500    2.1680 h1        1 99P      0.068700
     46 H15        -3.1030    1.6120    1.8060 h1        1 99P      0.068700
     47 H22        -4.3710    3.0900    0.4300 h4        1 99P      0.020100
     48 H23        -7.6470    1.7820   -1.7640 h4        1 99P      0.020100
     49 H24        -7.1680   -0.6400   -1.2120 ha        1 99P      0.143000
     50 H25        -5.1660   -1.1780    0.2480 ha        1 99P      0.162000
@<TRIPOS>BOND
     1    1    2 1   
     2    1   27 1   
     3    1   28 1   
     4    2    3 1   
     5    2    5 1   
     6    2   29 1   
     7    3    4 2   
     8    3   12 1   
     9    5    6 1   
    10    5   30 1   
    11    5   31 1   
    12    6    7 ar  
    13    6    8 ar  
    14    7    9 ar  
    15    7   32 1   
    16    8   10 ar  
    17    8   33 1   
    18    9   11 ar  
    19    9   34 1   
    20   10   11 ar  
    21   10   35 1   
    22   11   36 1   
    23   12   13 1   
    24   12   18 1   
    25   13   14 1   
    26   13   16 1   
    27   13   37 1   
    28   14   15 2   
    29   14   19 1   
    30   16   17 1   
    31   16   38 1   
    32   16   39 1   
    33   17   18 1   
    34   17   40 1   
    35   17   41 1   
    36   18   42 1   
    37   18   43 1   
    38   19   20 1   
    39   19   44 1   
    40   20   21 1   
    41   20   45 1   
    42   20   46 1   
    43   21   22 ar  
    44   21   26 ar  
    45   22   23 ar  
    46   22   47 1   
    47   23   24 ar  
    48   24   25 ar  
    49   24   48 1   
    50   25   26 ar  
    51   25   49 1   
    52   26   50 1   
@<TRIPOS>SUBSTRUCTURE
     1 99P         1 TEMP              0 ****  ****    0 ROOT
