@<TRIPOS>MOLECULE
99S
   55    58     1     0     0
SMALL
bcc


@<TRIPOS>ATOM
      1 O31         0.1630    0.1120    0.2590 o         1 99S     -0.510000
      2 C30         1.3120   -0.2210   -0.0340 c         1 99S      0.669700
      3 O32         2.0680   -0.8460    0.9270 os        1 99S     -0.452900
      4 C33         1.4210   -1.0910    2.1790 c3        1 99S      0.128700
      5 C28         2.0000   -0.0280   -1.3000 cc        1 99S     -0.166700
      6 C27         1.3990    0.6080   -2.3810 cd        1 99S     -0.081000
      7 C26         2.2720    0.6740   -3.5000 cd        1 99S     -0.140000
      8 S29         3.5570   -0.5220   -1.6660 ss        1 99S      0.113200
      9 C25         3.5030    0.0880   -3.2260 cc        1 99S     -0.099100
     10 C21         4.6090   -0.0070   -4.1500 ca        1 99S      0.011000
     11 C20         4.3720   -0.1600   -5.5250 ca        1 99S     -0.060000
     12 C19         5.4520   -0.2580   -6.4060 ca        1 99S      0.008000
     13 C23         5.2190   -0.4250   -7.7990 cg        1 99S      0.205800
     14 N24         5.0280   -0.5620   -8.9380 n1        1 99S     -0.309800
     15 C18         6.7720   -0.1950   -5.9330 ca        1 99S     -0.086000
     16 C22         5.9290    0.0530   -3.6860 ca        1 99S     -0.115000
     17 C17         7.0160   -0.0260   -4.5680 ca        1 99S     -0.104300
     18 C4          8.4150    0.0330   -3.9860 c3        1 99S      0.165800
     19 C14         9.5270    0.1760   -5.0570 c3        1 99S     -0.060700
     20 C16         9.4480    1.4720   -5.8370 c3        1 99S     -0.102100
     21 C15        10.9110    0.0390   -4.4520 c3        1 99S     -0.102100
     22 C3          8.4780    1.2280   -3.0370 ce        1 99S      0.092100
     23 C8          7.9530    2.4690   -3.4960 cg        1 99S      0.123500
     24 N9          7.5050    3.4720   -3.8810 n1        1 99S     -0.245800
     25 C2          8.9860    1.1370   -1.7810 c2        1 99S      0.114100
     26 N7          9.0990    2.2440   -0.8290 nz        1 99S     -0.711400
     27 C5          8.6610   -1.1950   -3.1850 cc        1 99S     -0.299600
     28 C10         8.5040   -2.5750   -3.4380 cd        1 99S     -0.004600
     29 C13         8.0510   -3.2800   -4.6470 c3        1 99S     -0.058800
     30 N11         8.9000   -3.2240   -2.2570 na        1 99S     -0.003600
     31 N12         9.2900   -2.4010   -1.2850 nd        1 99S     -0.447800
     32 C6          9.1610   -1.1540   -1.8310 cc        1 99S      0.467600
     33 O1          9.5160    0.0130   -1.1560 os        1 99S     -0.312400
     34 H1          2.2040   -1.6170    2.7780 h1        1 99S      0.057700
     35 H2          1.1250   -0.1220    2.6480 h1        1 99S      0.057700
     36 H3          0.5220   -1.7340    2.0230 h1        1 99S      0.057700
     37 H4          0.3790    1.0070   -2.3690 ha        1 99S      0.188000
     38 H5          1.9970    1.1400   -4.4500 ha        1 99S      0.170000
     39 H6          3.3370   -0.2090   -5.9030 ha        1 99S      0.168000
     40 H7          7.5970   -0.2780   -6.6600 ha        1 99S      0.159000
     41 H8          6.1120    0.1550   -2.6040 ha        1 99S      0.128000
     42 H9          9.3820   -0.6900   -5.7670 hc        1 99S      0.075700
     43 H10         9.8720    2.3190   -5.2440 hc        1 99S      0.047700
     44 H11        10.0470    1.3780   -6.7770 hc        1 99S      0.047700
     45 H12         8.3960    1.7250   -6.1150 hc        1 99S      0.047700
     46 H13        11.0510   -0.9710   -3.9980 hc        1 99S      0.047700
     47 H14        11.6830    0.1790   -5.2490 hc        1 99S      0.047700
     48 H15        11.0780    0.8090   -3.6610 hc        1 99S      0.047700
     49 H16         8.5060    3.0290   -1.1240 hn        1 99S      0.481467
     50 H17         8.8100    1.9150    0.1050 hn        1 99S      0.481467
     51 H18         8.8980   -3.8450   -5.1140 hc        1 99S      0.077367
     52 H19         7.2300   -4.0040   -4.4090 hc        1 99S      0.077367
     53 H20         7.6650   -2.5340   -5.3880 hc        1 99S      0.077367
     54 H21         8.9210   -4.2100   -2.1010 hn        1 99S      0.350700
     55 H73        10.0820    2.5460   -0.7810 hn        1 99S      0.481467
@<TRIPOS>BOND
     1    1    2 2   
     2    2    3 1   
     3    2    5 1   
     4    3    4 1   
     5    4   34 1   
     6    4   35 1   
     7    4   36 1   
     8    5    6 2   
     9    5    8 1   
    10    6    7 1   
    11    6   37 1   
    12    7    9 2   
    13    7   38 1   
    14    8    9 1   
    15    9   10 1   
    16   10   11 ar  
    17   10   16 ar  
    18   11   12 ar  
    19   11   39 1   
    20   12   13 1   
    21   12   15 ar  
    22   13   14 3   
    23   15   17 ar  
    24   15   40 1   
    25   16   17 ar  
    26   16   41 1   
    27   17   18 1   
    28   18   19 1   
    29   18   22 1   
    30   18   27 1   
    31   19   20 1   
    32   19   21 1   
    33   19   42 1   
    34   20   43 1   
    35   20   44 1   
    36   20   45 1   
    37   21   46 1   
    38   21   47 1   
    39   21   48 1   
    40   22   23 1   
    41   22   25 2   
    42   23   24 3   
    43   25   26 1   
    44   25   33 1   
    45   26   49 1   
    46   26   50 1   
    47   26   55 1   
    48   27   28 2   
    49   27   32 1   
    50   28   29 1   
    51   28   30 1   
    52   29   51 1   
    53   29   52 1   
    54   29   53 1   
    55   30   31 1   
    56   30   54 1   
    57   31   32 2   
    58   32   33 1   
@<TRIPOS>SUBSTRUCTURE
     1 99S         1 TEMP              0 ****  ****    0 ROOT
