@<TRIPOS>MOLECULE
99S
   55    58     1     0     0
SMALL
bcc


@<TRIPOS>ATOM
      1 O31         0.1690    0.3260    0.1960 o         1 99S     -0.510000
      2 C30         1.3130   -0.0300   -0.0880 c         1 99S      0.669700
      3 O32         2.0570   -0.6520    0.8840 os        1 99S     -0.452900
      4 C33         1.4040   -0.8660    2.1390 c3        1 99S      0.128700
      5 C28         2.0070    0.1310   -1.3560 cc        1 99S     -0.166700
      6 C27         1.4180    0.7580   -2.4490 cd        1 99S     -0.081000
      7 C26         2.2940    0.7910   -3.5670 cd        1 99S     -0.140000
      8 S29         3.5560   -0.3930   -1.7100 ss        1 99S      0.113200
      9 C25         3.5160    0.1920   -3.2800 cc        1 99S     -0.099100
     10 C21         4.6220    0.0640   -4.1990 ca        1 99S      0.011000
     11 C20         4.3850   -0.1100   -5.5720 ca        1 99S     -0.060000
     12 C19         5.4660   -0.2390   -6.4490 ca        1 99S      0.008000
     13 C23         5.2320   -0.4280   -7.8390 cg        1 99S      0.205800
     14 N24         5.0420   -0.5820   -8.9760 n1        1 99S     -0.309800
     15 C18         6.7860   -0.1870   -5.9740 ca        1 99S     -0.086000
     16 C22         5.9420    0.1140   -3.7330 ca        1 99S     -0.115000
     17 C17         7.0290    0.0030   -4.6120 ca        1 99S     -0.104300
     18 C4          8.4270    0.0520   -4.0280 c3        1 99S      0.165800
     19 C14         9.5440    0.1600   -5.0990 c3        1 99S     -0.060700
     20 C16         9.4850    1.4420   -5.9020 c3        1 99S     -0.102100
     21 C15        10.9250    0.0140   -4.4890 c3        1 99S     -0.102100
     22 C3          8.5060    1.2640   -3.1010 ce        1 99S      0.092100
     23 C8          8.0000    2.5030   -3.5830 cg        1 99S      0.123500
     24 N9          7.5670    3.5060   -3.9880 n1        1 99S     -0.245800
     25 C2          9.0100    1.1890   -1.8420 c2        1 99S      0.114100
     26 N7          9.1370    2.3110   -0.9100 n4        1 99S     -0.711400
     27 C5          8.6540   -1.1640   -3.2040 cc        1 99S     -0.299600
     28 C10         8.4780   -2.5460   -3.4320 cd        1 99S     -0.004600
     29 C13         8.0170   -3.2660   -4.6280 c3        1 99S     -0.058800
     30 N11         8.8620   -3.1790   -2.2380 na        1 99S     -0.003600
     31 N12         9.2620   -2.3440   -1.2810 nd        1 99S     -0.447800
     32 C6          9.1520   -1.1050   -1.8490 cc        1 99S      0.467600
     33 O1          9.5230    0.0680   -1.1950 os        1 99S     -0.312400
     34 H1          2.1770   -1.3950    2.7480 h1        1 99S      0.057700
     35 H2          1.1220    0.1150    2.5910 h1        1 99S      0.057700
     36 H3          0.4940   -1.4960    1.9920 h1        1 99S      0.057700
     37 H4          0.4040    1.1730   -2.4460 ha        1 99S      0.188000
     38 H5          2.0280    1.2460   -4.5250 ha        1 99S      0.170000
     39 H6          3.3500   -0.1510   -5.9510 ha        1 99S      0.168000
     40 H7          7.6100   -0.2940   -6.6970 ha        1 99S      0.159000
     41 H8          6.1230    0.2320   -2.6530 ha        1 99S      0.128000
     42 H9          9.3870   -0.7170   -5.7930 hc        1 99S      0.075700
     43 H10        10.0840    1.3230   -6.8390 hc        1 99S      0.047700
     44 H11         9.9200    2.2940   -5.3240 hc        1 99S      0.047700
     45 H12         8.4380    1.7060   -6.1870 hc        1 99S      0.047700
     46 H13        11.0490   -0.9900   -4.0150 hc        1 99S      0.047700
     47 H14        11.7000    0.1280   -5.2860 hc        1 99S      0.047700
     48 H15        11.1010    0.7960   -3.7110 hc        1 99S      0.047700
     49 H16         8.5570    3.0990   -1.2210 hn        1 99S      0.481467
     50 H17         8.8420    2.0040    0.0290 hn        1 99S      0.481467
     51 H18         7.6440   -2.5280   -5.3850 hc        1 99S      0.077367
     52 H19         7.1850   -3.9730   -4.3800 hc        1 99S      0.077367
     53 H20         8.8570   -3.8520   -5.0830 hc        1 99S      0.077367
     54 H21         8.8680   -4.1630   -2.0640 hn        1 99S      0.350700
     55 H73        10.1240    2.5990   -0.8660 hn        1 99S      0.481467
@<TRIPOS>BOND
     1    1    2 2   
     2    2    3 1   
     3    2    5 1   
     4    3    4 1   
     5    4   34 1   
     6    4   35 1   
     7    4   36 1   
     8    5    6 2   
     9    5    8 1   
    10    6    7 1   
    11    6   37 1   
    12    7    9 2   
    13    7   38 1   
    14    8    9 1   
    15    9   10 1   
    16   10   11 ar  
    17   10   16 ar  
    18   11   12 ar  
    19   11   39 1   
    20   12   13 1   
    21   12   15 ar  
    22   13   14 3   
    23   15   17 ar  
    24   15   40 1   
    25   16   17 ar  
    26   16   41 1   
    27   17   18 1   
    28   18   19 1   
    29   18   22 1   
    30   18   27 1   
    31   19   20 1   
    32   19   21 1   
    33   19   42 1   
    34   20   43 1   
    35   20   44 1   
    36   20   45 1   
    37   21   46 1   
    38   21   47 1   
    39   21   48 1   
    40   22   23 1   
    41   22   25 2   
    42   23   24 3   
    43   25   26 1   
    44   25   33 1   
    45   26   49 1   
    46   26   50 1   
    47   26   55 1   
    48   27   28 2   
    49   27   32 1   
    50   28   29 1   
    51   28   30 1   
    52   29   51 1   
    53   29   52 1   
    54   29   53 1   
    55   30   31 1   
    56   30   54 1   
    57   31   32 2   
    58   32   33 1   
@<TRIPOS>SUBSTRUCTURE
     1 99S         1 TEMP              0 ****  ****    0 ROOT
