@<TRIPOS>MOLECULE
99T
   46    43     1     0     0
SMALL
bcc


@<TRIPOS>ATOM
      1 O32         2.1440    2.2810   -4.2210 o         1 99T     -0.792800
      2 C3          1.7420    2.1440   -3.0240 c         1 99T      0.929600
      3 O31         0.9610    2.8730   -2.3950 o         1 99T     -0.792800
      4 CA3         2.2840    0.8800   -2.2570 c3        1 99T     -0.058200
      5 N3          3.0770   -0.0100   -3.1480 n4        1 99T     -0.660800
      6 C2          2.2600   -1.1010   -3.7600 c         1 99T      0.547100
      7 O2          2.5280   -2.2470   -3.4270 o         1 99T     -0.451100
      8 CA2         1.1570   -0.6550   -4.7420 c3        1 99T      0.057700
      9 CB2        -0.1000   -1.4580   -4.3980 c3        1 99T     -0.120300
     10 SG2        -1.4140   -1.2440   -5.5490 sh        1 99T     -0.248900
     11 N2          1.5760   -0.8220   -6.1100 n         1 99T     -0.559900
     12 CD1         2.6490   -0.1430   -6.6560 c         1 99T      0.675100
     13 OE1         3.5710    0.2900   -5.9250 o         1 99T     -0.670100
     14 CG1         2.6890    0.0580   -8.1570 c3        1 99T     -0.157400
     15 CB1         2.0790    1.3970   -8.5250 c3        1 99T     -0.090400
     16 CA1         2.9430    2.5880   -8.1560 c3        1 99T     -0.078500
     17 N1          2.8010    3.0410   -6.7470 n4        1 99T     -0.814600
     18 C1          2.6380    3.8220   -9.1470 c         1 99T      0.935600
     19 O01         2.4040    3.5080  -10.3280 o         1 99T     -0.764300
     20 O02         2.7040    4.9530   -8.6080 o         1 99T     -0.764300
     21 C08        -3.3890   -1.9830   -6.7300 c2        1 99T     -0.207000
     22 C09        -2.5870   -1.4530   -7.6640 c2        1 99T     -0.207000
     23 C10        -4.4280   -6.4310   -6.3110 c1        1 99T      0.883000
     24 O11        -5.0210   -7.4600   -6.3340 o         1 99T     -0.441500
     25 O12        -3.8330   -5.4000   -6.2870 o         1 99T     -0.441500
     26 H2          1.4190    0.3150   -1.8210 hx        1 99T      0.093700
     27 H3          2.9480    1.2410   -1.4270 hx        1 99T      0.093700
     28 H4          3.8740   -0.4100   -2.6500 hn        1 99T      0.474300
     29 H5          0.9490    0.4510   -4.5590 h1        1 99T      0.121700
     30 H6         -0.4130   -1.1780   -3.3630 h1        1 99T      0.093200
     31 H7          0.1280   -2.5560   -4.4020 h1        1 99T      0.093200
     32 H8         -1.7850   -0.0110   -5.2480 hs        1 99T      0.199800
     33 H9          2.1430   -0.7630   -8.6920 hc        1 99T      0.082700
     34 H10         3.7640    0.0200   -8.4800 hc        1 99T      0.082700
     35 H11         1.9660    1.4360   -9.6500 hc        1 99T      0.092200
     36 H12         1.0490    1.4880   -8.0910 hc        1 99T      0.092200
     37 H13         4.0300    2.3390   -8.3170 hx        1 99T      0.086700
     38 H14         1.8440    2.9260   -6.4060 hn        1 99T      0.457133
     39 H15         3.4170    2.5310   -6.1090 hn        1 99T      0.457133
     40 H18        -4.1610   -1.3960   -6.2120 ha        1 99T      0.123000
     41 H19        -3.3730   -3.0540   -6.4720 ha        1 99T      0.123000
     42 H20        -2.6520   -0.4010   -7.9750 ha        1 99T      0.123000
     43 H21        -1.8670   -2.0580   -8.2320 ha        1 99T      0.123000
     44 H32         3.4170    0.5980   -3.9360 hn        1 99T      0.474300
     45 H22         0.8700   -1.1850   -6.7200 hn        1 99T      0.346500
     46 H131        3.0210    4.0540   -6.7330 hn        1 99T      0.457133
@<TRIPOS>BOND
     1    1    2 1   
     2    2    3 1   
     3    2    4 1   
     4    4    5 1   
     5    4   26 1   
     6    4   27 1   
     7    5    6 1   
     8    5   28 1   
     9    5   44 1   
    10    6    7 2   
    11    6    8 1   
    12    8    9 1   
    13    8   11 1   
    14    8   29 1   
    15    9   10 1   
    16    9   30 1   
    17    9   31 1   
    18   10   32 1   
    19   11   12 1   
    20   11   45 1   
    21   12   13 2   
    22   12   14 1   
    23   14   15 1   
    24   14   33 1   
    25   14   34 1   
    26   15   16 1   
    27   15   35 1   
    28   15   36 1   
    29   16   17 1   
    30   16   18 1   
    31   16   37 1   
    32   17   38 1   
    33   17   39 1   
    34   17   46 1   
    35   18   19 1   
    36   18   20 1   
    37   21   22 2   
    38   21   40 1   
    39   21   41 1   
    40   22   42 1   
    41   22   43 1   
    42   23   24 2   
    43   23   25 2   
@<TRIPOS>SUBSTRUCTURE
     1 99T         1 TEMP              0 ****  ****    0 ROOT
