@<TRIPOS>MOLECULE
99T
   43    41     1     0     0
SMALL
bcc


@<TRIPOS>ATOM
      1 O32        -0.7830    5.4710    3.4680 o         1 99T     -0.586000
      2 C3         -0.6010    5.4990    2.2180 c1        1 99T      0.328000
      3 O31         0.1770    6.3530    1.7140 os        1 99T     -0.579000
      4 CA3        -1.4110    4.5800    1.3100 c3        1 99T     -0.100000
      5 N3         -0.6470    3.4160    1.0090 n         1 99T     -0.333000
      6 C2         -1.2740    2.2850    0.3620 c2        1 99T      0.261000
      7 O2         -2.4820    2.2500    0.2350 o         1 99T     -0.436000
      8 CA2        -0.4200    1.1430   -0.1650 c3        1 99T      0.029000
      9 CB2        -0.2080    1.3160   -1.6680 c3        1 99T     -0.276000
     10 SG2         1.5400    1.2790   -2.0310 ss        1 99T      0.010000
     11 N2         -1.0730   -0.0880    0.0810 n         1 99T     -0.359000
     12 CD1        -0.5500   -0.9950    1.0840 c2        1 99T      0.304000
     13 OE1         0.4100   -0.6600    1.7720 o         1 99T     -0.379000
     14 CG1        -1.2500   -2.3500    1.3390 c3        1 99T     -0.174000
     15 CB1        -0.3780   -3.2110    2.2560 c3        1 99T     -0.136000
     16 CA1        -1.0160   -4.5950    2.4120 c3        1 99T     -0.124000
     17 N1         -1.6340   -4.6970    3.7120 n3        1 99T     -0.330000
     18 C1          0.0220   -5.6340    2.2770 c2        1 99T      0.309000
     19 O01         0.0580   -6.3530    1.2450 o         1 99T     -0.588000
     20 O02         0.9410   -5.7100    3.1220 o         1 99T     -0.588000
     21 C08         1.7820    1.2350   -3.8100 c3        1 99T     -0.227000
     22 C09         3.2690    1.2280   -4.1200 c3        1 99T     -0.215000
     23 C10         3.4720    1.0260   -5.5990 c2        1 99T      0.330000
     24 O11         3.3450    1.9920   -6.3860 o         1 99T     -0.593500
     25 O12         3.7240   -0.1240   -6.0480 o         1 99T     -0.593500
     26 H2         -2.2370    4.3190    1.7630 h1        1 99T      0.072500
     27 H3         -1.6270    5.0460    0.4880 h1        1 99T      0.072500
     28 H4          0.2200    3.3740    1.2490 hn        1 99T      0.249000
     29 H5          0.4490    1.1490    0.2910 h1        1 99T      0.144000
     30 H6         -0.6570    0.5870   -2.1480 h1        1 99T      0.103500
     31 H7         -0.5800    2.1700   -1.9530 h1        1 99T      0.103500
     32 H8         -1.8560   -0.2690   -0.3240 hn        1 99T      0.223000
     33 H9         -2.1100   -2.1960    1.7620 hc        1 99T      0.100000
     34 H10        -1.3840   -2.8140    0.4860 hc        1 99T      0.100000
     35 H11         0.5280   -3.3060    1.8580 hc        1 99T      0.100000
     36 H12        -0.3070   -2.7890    3.1240 hc        1 99T      0.100000
     37 H13        -1.6990   -4.7220    1.7130 h1        1 99T      0.079000
     38 H14        -2.5500   -4.7760    3.6120 hn        1 99T      0.124500
     39 H15        -1.3010   -5.4560    4.1600 hn        1 99T      0.124500
     40 H18         1.3670    2.0270   -4.2160 h1        1 99T      0.099000
     41 H19         1.3670    0.4240   -4.1760 h1        1 99T      0.099000
     42 H20         3.7040    0.4960   -3.6270 hc        1 99T      0.076000
     43 H21         3.6600    2.0780   -3.8520 hc        1 99T      0.076000
@<TRIPOS>BOND
     1    1    2 1   
     2    2    4 1   
     3    4    5 1   
     4    4   26 1   
     5    4   27 1   
     6    5    6 1   
     7    5   28 1   
     8    6    7 1   
     9    6    8 1   
    10    8    9 1   
    11    8   11 1   
    12    8   29 1   
    13    9   10 1   
    14    9   30 1   
    15    9   31 1   
    16   10   21 1   
    17   11   12 1   
    18   11   32 1   
    19   12   13 1   
    20   12   14 1   
    21   14   15 1   
    22   14   33 1   
    23   14   34 1   
    24   15   16 1   
    25   15   35 1   
    26   15   36 1   
    27   16   17 1   
    28   16   18 1   
    29   16   37 1   
    30   17   38 1   
    31   17   39 1   
    32   18   19 1   
    33   18   20 1   
    34   21   22 1   
    35   21   40 1   
    36   21   41 1   
    37   22   23 1   
    38   22   42 1   
    39   22   43 1   
    40   23   24 1   
    41   23   25 1   
@<TRIPOS>SUBSTRUCTURE
     1 99T         1 TEMP              0 ****  ****    0 ROOT
