@<TRIPOS>MOLECULE
99T
   46    43     1     0     0
SMALL
bcc


@<TRIPOS>ATOM
      1 O32         2.2270    2.2350   -4.2190 o         1 99T     -0.792800
      2 C3          1.8700    2.0770   -3.0120 c         1 99T      0.929600
      3 O31         1.1190    2.7990   -2.3380 o         1 99T     -0.792800
      4 CA3         2.4290    0.7930   -2.2910 c3        1 99T     -0.058200
      5 N3          3.1810   -0.0850   -3.2290 n4        1 99T     -0.660800
      6 C2          2.3310   -1.1560   -3.8310 c         1 99T      0.547100
      7 O2          2.6020   -2.3120   -3.5320 o         1 99T     -0.451100
      8 CA2         1.1970   -0.6830   -4.7620 c3        1 99T      0.057700
      9 CB2        -0.0530   -1.4830   -4.3880 c3        1 99T     -0.120300
     10 SG2        -1.4080   -1.2340   -5.4840 sh        1 99T     -0.248900
     11 N2          1.5620   -0.8240   -6.1480 n         1 99T     -0.559900
     12 CD1         2.6200   -0.1420   -6.7210 c         1 99T      0.675100
     13 OE1         3.5720    0.2680   -6.0160 o         1 99T     -0.670100
     14 CG1         2.6050    0.0890   -8.2170 c3        1 99T     -0.157400
     15 CB1         1.9920    1.4400   -8.5350 c3        1 99T     -0.090400
     16 CA1         2.8800    2.6160   -8.1750 c3        1 99T     -0.078500
     17 N1          2.7950    3.0420   -6.7530 n4        1 99T     -0.814600
     18 C1          2.5470    3.8730   -9.1290 c         1 99T      0.935600
     19 O01         2.2660    3.5850  -10.3060 o         1 99T     -0.764300
     20 O02         2.6440    4.9920   -8.5700 o         1 99T     -0.764300
     21 C08        -3.4320   -1.9330   -6.6060 c2        1 99T     -0.207000
     22 C09        -2.6610   -1.3870   -7.5580 c2        1 99T     -0.207000
     23 C10        -4.4880   -6.3820   -6.2950 c1        1 99T      0.883000
     24 O11        -5.0900   -7.4060   -6.3390 o         1 99T     -0.441500
     25 O12        -3.8850   -5.3570   -6.2500 o         1 99T     -0.441500
     26 H2          1.5770    0.2260   -1.8340 hx        1 99T      0.093700
     27 H3          3.1270    1.1310   -1.4800 hx        1 99T      0.093700
     28 H4          3.9920   -0.5010   -2.7700 hn        1 99T      0.474300
     29 H5          1.0050    0.4220   -4.5490 h1        1 99T      0.121700
     30 H6          0.1640   -2.5810   -4.4220 h1        1 99T      0.093200
     31 H7         -0.3260   -1.2220   -3.3360 h1        1 99T      0.093200
     32 H8          0.8310   -1.1700   -6.7390 hn        1 99T      0.346500
     33 H9          2.0330   -0.7170   -8.7480 hc        1 99T      0.082700
     34 H10         3.6670    0.0500   -8.5820 hc        1 99T      0.082700
     35 H11         1.8380    1.5020   -9.6540 hc        1 99T      0.092200
     36 H12         0.9800    1.5300   -8.0610 hc        1 99T      0.092200
     37 H13         3.9580    2.3630   -8.3830 hx        1 99T      0.086700
     38 H14         3.4300    2.5130   -6.1490 hn        1 99T      0.457133
     39 H15         3.0250    4.0530   -6.7270 hn        1 99T      0.457133
     40 H18        -3.4140   -3.0090   -6.3740 ha        1 99T      0.123000
     41 H19        -4.1790   -1.3520   -6.0460 ha        1 99T      0.123000
     42 H20        -1.9680   -1.9830   -8.1660 ha        1 99T      0.123000
     43 H21        -2.7300   -0.3270   -7.8410 ha        1 99T      0.123000
     44 H32         3.4960    0.5360   -4.0170 hn        1 99T      0.474300
     45 H22        -1.7580   -0.0060   -5.1440 hs        1 99T      0.199800
     46 H131        1.8500    2.9270   -6.3780 hn        1 99T      0.457133
@<TRIPOS>BOND
     1    1    2 1   
     2    2    3 1   
     3    2    4 1   
     4    4    5 1   
     5    4   26 1   
     6    4   27 1   
     7    5    6 1   
     8    5   28 1   
     9    5   44 1   
    10    6    7 2   
    11    6    8 1   
    12    8    9 1   
    13    8   11 1   
    14    8   29 1   
    15    9   10 1   
    16    9   30 1   
    17    9   31 1   
    18   10   45 1   
    19   11   12 1   
    20   11   32 1   
    21   12   13 2   
    22   12   14 1   
    23   14   15 1   
    24   14   33 1   
    25   14   34 1   
    26   15   16 1   
    27   15   35 1   
    28   15   36 1   
    29   16   17 1   
    30   16   18 1   
    31   16   37 1   
    32   17   38 1   
    33   17   39 1   
    34   17   46 1   
    35   18   19 1   
    36   18   20 1   
    37   21   22 2   
    38   21   40 1   
    39   21   41 1   
    40   22   42 1   
    41   22   43 1   
    42   23   24 2   
    43   23   25 2   
@<TRIPOS>SUBSTRUCTURE
     1 99T         1 TEMP              0 ****  ****    0 ROOT
