@<TRIPOS>MOLECULE
99T
   46    43     1     0     0
SMALL
bcc


@<TRIPOS>ATOM
      1 O32         2.1660    2.2280   -4.1690 o         1 99T     -0.792800
      2 C3          1.7640    2.0670   -2.9760 c         1 99T      0.929600
      3 O31         0.9890    2.7890   -2.3290 o         1 99T     -0.792800
      4 CA3         2.2920    0.7810   -2.2390 c3        1 99T     -0.058200
      5 N3          3.0770   -0.0960   -3.1510 ny        1 99T     -0.660800
      6 C2          2.2480   -1.1650   -3.7870 c         1 99T      0.547100
      7 O2          2.5060   -2.3210   -3.4820 o         1 99T     -0.451100
      8 CA2         1.1500   -0.6860   -4.7580 c3        1 99T      0.057700
      9 CB2        -0.1140   -1.4840   -4.4320 c3        1 99T     -0.120300
     10 SG2        -1.4270   -1.2300   -5.5770 sh        1 99T     -0.248900
     11 N2          1.5670   -0.8250   -6.1300 ns        1 99T     -0.559900
     12 CD1         2.6470   -0.1430   -6.6610 c         1 99T      0.675100
     13 OE1         3.5730    0.2630   -5.9190 o         1 99T     -0.670100
     14 CG1         2.6880    0.0920   -8.1560 c3        1 99T     -0.157400
     15 CB1         2.0910    1.4440   -8.4930 c3        1 99T     -0.090400
     16 CA1         2.9670    2.6180   -8.0970 c3        1 99T     -0.078500
     17 N1          2.8300    3.0400   -6.6770 nz        1 99T     -0.814600
     18 C1          2.6730    3.8780   -9.0590 c         1 99T      0.935600
     19 O01         2.4350    3.5940  -10.2470 o         1 99T     -0.764300
     20 O02         2.7510    4.9950   -8.4930 o         1 99T     -0.764300
     21 C08        -3.4090   -1.9220   -6.7740 c2        1 99T     -0.207000
     22 C09        -2.6030   -1.3770   -7.6960 c2        1 99T     -0.207000
     23 C10        -4.4840   -6.3700   -6.4680 c1        1 99T      0.883000
     24 O11        -5.0850   -7.3940   -6.5170 o         1 99T     -0.441500
     25 O12        -3.8810   -5.3450   -6.4170 o         1 99T     -0.441500
     26 H2          2.9610    1.1150   -1.4010 hx        1 99T      0.093700
     27 H3          1.4230    0.2140   -1.8160 hx        1 99T      0.093700
     28 H4          3.4230    0.5260   -3.9240 hn        1 99T      0.474300
     29 H5          0.9530    0.4180   -4.5490 h1        1 99T      0.121700
     30 H6          0.1020   -2.5830   -4.4620 h1        1 99T      0.093200
     31 H7         -0.4250   -1.2250   -3.3910 h1        1 99T      0.093200
     32 H8          0.8580   -1.1670   -6.7480 hn        1 99T      0.346500
     33 H9          3.7630    0.0510   -8.4800 hc        1 99T      0.082700
     34 H10         2.1350   -0.7110   -8.7100 hc        1 99T      0.082700
     35 H11         1.9780    1.5110   -9.6170 hc        1 99T      0.092200
     36 H12         1.0620    1.5360   -8.0570 hc        1 99T      0.092200
     37 H13         4.0510    2.3630   -8.2640 hx        1 99T      0.086700
     38 H14         3.0600    4.0500   -6.6400 hn        1 99T      0.457133
     39 H15         3.4400    2.5090   -6.0520 hn        1 99T      0.457133
     40 H18        -4.1760   -1.3410   -6.2420 ha        1 99T      0.123000
     41 H19        -3.4020   -2.9990   -6.5430 ha        1 99T      0.123000
     42 H20        -2.6590   -0.3170   -7.9810 ha        1 99T      0.123000
     43 H21        -1.8890   -1.9750   -8.2790 ha        1 99T      0.123000
     44 H32         3.8700   -0.5160   -2.6620 hn        1 99T      0.474300
     45 H22        -1.7860   -0.0010   -5.2480 hs        1 99T      0.199800
     46 H131        1.8710    2.9260   -6.3380 hn        1 99T      0.457133
@<TRIPOS>BOND
     1    1    2 1   
     2    2    3 1   
     3    2    4 1   
     4    4    5 1   
     5    4   26 1   
     6    4   27 1   
     7    5    6 1   
     8    5   28 1   
     9    5   44 1   
    10    6    7 2   
    11    6    8 1   
    12    8    9 1   
    13    8   11 1   
    14    8   29 1   
    15    9   10 1   
    16    9   30 1   
    17    9   31 1   
    18   10   45 1   
    19   11   12 1   
    20   11   32 1   
    21   12   13 2   
    22   12   14 1   
    23   14   15 1   
    24   14   33 1   
    25   14   34 1   
    26   15   16 1   
    27   15   35 1   
    28   15   36 1   
    29   16   17 1   
    30   16   18 1   
    31   16   37 1   
    32   17   38 1   
    33   17   39 1   
    34   17   46 1   
    35   18   19 1   
    36   18   20 1   
    37   21   22 2   
    38   21   40 1   
    39   21   41 1   
    40   22   42 1   
    41   22   43 1   
    42   23   24 2   
    43   23   25 2   
@<TRIPOS>SUBSTRUCTURE
     1 99T         1 TEMP              0 ****  ****    0 ROOT
