@<TRIPOS>MOLECULE
99T
   43    42     1     0     0
SMALL
bcc


@<TRIPOS>ATOM
      1 O32        -2.4410   -4.9770    1.6730 o         1 99T     -0.847800
      2 C3         -2.1610   -5.3480    0.4990 c         1 99T      0.908600
      3 O31        -2.3960   -6.5050    0.0440 o         1 99T     -0.847800
      4 CA3        -1.4830   -4.3570   -0.4850 c3        1 99T     -0.034000
      5 N3         -1.2620   -3.0420    0.0520 n         1 99T     -0.523900
      6 C2         -0.7980   -2.0080   -0.7010 c         1 99T      0.617100
      7 O2         -0.5120   -2.1380   -1.9170 o         1 99T     -0.675100
      8 CA2        -0.6530   -0.6080   -0.0220 c3        1 99T      0.055700
      9 CB2        -1.9610    0.1230   -0.3520 c3        1 99T     -0.015300
     10 SG2        -2.0610    1.7160    0.4180 ss        1 99T     -0.354200
     11 N2          0.5190    0.0790   -0.4980 n         1 99T     -0.549900
     12 CD1         1.7040    0.1610    0.2250 c         1 99T      0.660100
     13 OE1         1.7590   -0.1990    1.4170 o         1 99T     -0.618100
     14 CG1         2.8870    0.7630   -0.5160 c3        1 99T     -0.145400
     15 CB1         4.1770    0.6880    0.2740 c3        1 99T     -0.057400
     16 CA1         5.3660    1.1990   -0.5460 c3        1 99T      0.023500
     17 N1          5.6730    0.3690   -1.7070 n3        1 99T     -0.897800
     18 C1          6.5850    1.4360    0.4030 c         1 99T      0.889600
     19 O01         6.4490    2.2610    1.3480 o         1 99T     -0.853300
     20 O02         7.6690    0.8250    0.1560 o         1 99T     -0.853300
     21 C08        -3.6970    2.2300   -0.0840 c3        1 99T      0.033700
     22 C09        -3.9590    3.5980    0.4750 c3        1 99T     -0.186400
     23 C10        -5.2570    4.2150   -0.0800 c         1 99T      0.910600
     24 O11        -5.5900    3.9860   -1.2780 o         1 99T     -0.858800
     25 O12        -5.9270    4.9590    0.6960 o         1 99T     -0.858800
     26 H2         -0.4960   -4.7990   -0.8000 h1        1 99T      0.033200
     27 H3         -2.1240   -4.2800   -1.4070 h1        1 99T      0.033200
     28 H4         -1.4980   -2.9180    1.0120 hn        1 99T      0.335500
     29 H5         -0.5570   -0.7200    1.0990 h1        1 99T      0.104700
     30 H6         -2.0670    0.2360   -1.4590 h1        1 99T      0.064200
     31 H7         -2.8100   -0.5110    0.0060 h1        1 99T      0.064200
     32 H8          0.5660    0.1950   -1.4850 hn        1 99T      0.309500
     33 H9          3.0110    0.2300   -1.4960 hc        1 99T      0.060700
     34 H10         2.6500    1.8370   -0.7410 hc        1 99T      0.060700
     35 H11         4.1000    1.3210    1.1970 hc        1 99T      0.060700
     36 H12         4.3530   -0.3660    0.6100 hc        1 99T      0.060700
     37 H13         5.0930    2.2160   -0.9570 h1        1 99T      0.039700
     38 H14         6.6470    0.5050   -1.9260 hn        1 99T      0.329300
     39 H15         5.5720   -0.5970   -1.4500 hn        1 99T      0.329300
     40 H18        -3.7700    2.2550   -1.1980 h1        1 99T      0.059700
     41 H19        -4.4500    1.4980    0.2930 h1        1 99T      0.059700
     42 H20        -4.0270    3.5600    1.5910 hc        1 99T      0.036700
     43 H21        -3.1200    4.2910    0.2040 hc        1 99T      0.036700
@<TRIPOS>BOND
     1    1    2 1   
     2    2    3 1   
     3    2    4 1   
     4    4    5 1   
     5    4   26 1   
     6    4   27 1   
     7    5    6 1   
     8    5   28 1   
     9    6    7 2   
    10    6    8 1   
    11    8    9 1   
    12    8   11 1   
    13    8   29 1   
    14    9   10 1   
    15    9   30 1   
    16    9   31 1   
    17   10   21 1   
    18   11   12 1   
    19   11   32 1   
    20   12   13 2   
    21   12   14 1   
    22   14   15 1   
    23   14   33 1   
    24   14   34 1   
    25   15   16 1   
    26   15   35 1   
    27   15   36 1   
    28   16   17 1   
    29   16   18 1   
    30   16   37 1   
    31   17   38 1   
    32   17   39 1   
    33   18   19 1   
    34   18   20 1   
    35   21   22 1   
    36   21   40 1   
    37   21   41 1   
    38   22   23 1   
    39   22   42 1   
    40   22   43 1   
    41   23   24 1   
    42   23   25 1   
@<TRIPOS>SUBSTRUCTURE
     1 99T         1 TEMP              0 ****  ****    0 ROOT
