@<TRIPOS>MOLECULE
99Z
   43    45     1     0     0
SMALL
bcc


@<TRIPOS>ATOM
      1 N01         0.5090   -0.4930   -0.7560 nc        1 99Z     -0.710000
      2 N02        -1.5400   -1.1050    0.4120 nu        1 99Z     -0.678300
      3 N03         2.7450    0.2140   -1.3680 nv        1 99Z     -0.926500
      4 N04        -6.7130    2.0860   -1.6970 nz        1 99Z     -0.779500
      5 C05         2.0710   -0.1110    0.9880 cd        1 99Z     -0.409000
      6 C06         1.8290   -0.1300   -0.4170 cc        1 99Z      0.693200
      7 C07        -0.1870   -0.7060    0.3830 cd        1 99Z      0.552300
      8 C08        -2.5100   -0.6140   -0.4160 ca        1 99Z      0.322600
      9 C09         3.3380    0.2180    1.6210 c         1 99Z      0.642300
     10 C10         3.3250    0.2350    3.1040 ca        1 99Z     -0.175600
     11 C11         3.8830    1.3150    3.8090 ca        1 99Z     -0.014300
     12 C12         3.8470    1.3040    5.2100 ca        1 99Z     -0.133000
     13 C13         3.2850    0.2320    5.8990 ca        1 99Z     -0.098000
     14 C14         2.7490   -0.8470    5.1950 ca        1 99Z     -0.136000
     15 C15         2.7680   -0.8440    3.8030 ca        1 99Z     -0.119000
     16 C16        -3.7750   -1.2910   -0.4940 ca        1 99Z     -0.215500
     17 C17        -4.7880   -0.7940   -1.2680 ca        1 99Z      0.052000
     18 C18        -4.6550    0.4060   -2.0200 ca        1 99Z     -0.660500
     19 C19        -3.4000    1.0720   -1.9270 ca        1 99Z      0.052000
     20 C20        -2.3680    0.6000   -1.1610 ca        1 99Z     -0.215500
     21 C21         4.5150    2.4490    3.0940 c3        1 99Z     -0.068800
     22 O22         4.3560    0.4820    0.9640 o         1 99Z     -0.545100
     23 O23        -6.8170    0.0300   -3.2240 o         1 99Z     -0.580800
     24 O24        -5.4260    1.8690   -3.9010 o         1 99Z     -0.580800
     25 S25         0.6880   -0.5030    1.8400 ss        1 99Z      0.064700
     26 S26        -5.7850    0.9110   -2.9770 sy        1 99Z      1.519200
     27 HN02       -1.7030   -1.9950    0.8430 hn        1 99Z      0.466800
     28 HN03        3.6890    0.3420   -1.0720 hn        1 99Z      0.460800
     29 HN0A        2.5600    0.0280   -2.3240 hn        1 99Z      0.460800
     30 HN04       -6.2640    2.0840   -0.7890 hn        1 99Z      0.445467
     31 HN0B       -6.7240    3.0400   -2.0460 hn        1 99Z      0.445467
     32 H12         4.2780    2.1490    5.7690 ha        1 99Z      0.146000
     33 H13         3.2720    0.2320    7.0000 ha        1 99Z      0.144000
     34 H14         2.3220   -1.7040    5.7390 ha        1 99Z      0.141000
     35 H15         2.3760   -1.7150    3.2520 ha        1 99Z      0.134000
     36 H16        -3.9280   -2.2330    0.0610 ha        1 99Z      0.177500
     37 H17        -5.7420   -1.3530   -1.3350 ha        1 99Z      0.164500
     38 H19        -3.2530    1.9990   -2.5150 ha        1 99Z      0.164500
     39 H20        -1.4170    1.1590   -1.1330 ha        1 99Z      0.177500
     40 H21         4.7550    3.2880    3.7920 hc        1 99Z      0.059033
     41 H21A        5.4630    2.1040    2.6070 hc        1 99Z      0.059033
     42 H21B        3.8400    2.8330    2.2890 hc        1 99Z      0.059033
     43 H043       -7.6740    1.7820   -1.5790 hn        1 99Z      0.445467
@<TRIPOS>BOND
     1    1    6 1   
     2    1    7 2   
     3    2    7 1   
     4    2    8 1   
     5    2   27 1   
     6    3    6 1   
     7    3   28 1   
     8    3   29 1   
     9    4   26 1   
    10    4   30 1   
    11    4   31 1   
    12    4   43 1   
    13    5    6 2   
    14    5    9 1   
    15    5   25 1   
    16    7   25 1   
    17    8   16 ar  
    18    8   20 ar  
    19    9   10 1   
    20    9   22 2   
    21   10   11 ar  
    22   10   15 ar  
    23   11   12 ar  
    24   11   21 1   
    25   12   13 ar  
    26   12   32 1   
    27   13   14 ar  
    28   13   33 1   
    29   14   15 ar  
    30   14   34 1   
    31   15   35 1   
    32   16   17 ar  
    33   16   36 1   
    34   17   18 ar  
    35   17   37 1   
    36   18   19 ar  
    37   18   26 1   
    38   19   20 ar  
    39   19   38 1   
    40   20   39 1   
    41   21   40 1   
    42   21   41 1   
    43   21   42 1   
    44   23   26 2   
    45   24   26 2   
@<TRIPOS>SUBSTRUCTURE
     1 99Z         1 TEMP              0 ****  ****    0 ROOT
