@<TRIPOS>MOLECULE
99Z
   42    39     1     0     0
SMALL
bcc


@<TRIPOS>ATOM
      1 N01        -0.2670    0.5950   -1.7010 n2        1 99Z     -0.225000
      2 N02        -2.2350    0.6400   -0.0970 n3        1 99Z     -0.225000
      3 N03         2.1970    0.6390   -2.7450 n3        1 99Z     -0.334000
      4 N04        -7.5000   -3.5250   -0.8710 n3        1 99Z     -0.953000
      5 C05         1.6430    0.6530   -0.2100 c1        1 99Z     -0.616000
      6 C06         1.2690    0.6490   -1.6110 c2        1 99Z      0.195000
      7 C07        -0.8120    0.5660   -0.3390 c2        1 99Z     -0.118000
      8 C08        -3.0400   -0.4840   -0.2930 c2        1 99Z      0.132000
      9 C09         3.0620    0.5080    0.3380 c1        1 99Z      0.366000
     10 C10         3.8190    1.7060    0.7810 c2        1 99Z     -0.141000
     11 C11         5.1040    1.5610    1.3410 c2        1 99Z     -0.014000
     12 C12         5.8560    2.7170    1.7030 c1        1 99Z     -0.139000
     13 C13         5.3290    3.9690    1.5060 c1        1 99Z     -0.124500
     14 C14         4.0840    4.1110    0.9630 c1        1 99Z     -0.124500
     15 C15         3.3070    2.9300    0.5900 c1        1 99Z     -0.110000
     16 C16        -3.7550   -0.9070    0.8660 c1        1 99Z     -0.216000
     17 C17        -4.6530   -1.9350    0.7810 c1        1 99Z      0.024000
     18 C18        -4.8650   -2.5510   -0.3940 c1        1 99Z     -0.868000
     19 C19        -4.1640   -2.1400   -1.5400 c1        1 99Z      0.017000
     20 C20        -3.2450   -1.0880   -1.4520 c2        1 99Z     -0.207000
     21 C21         5.6320    0.2080    1.6620 c3        1 99Z     -0.190000
     22 O22         3.5460   -0.5840    0.4580 o         1 99Z     -0.341000
     23 O23        -5.9850   -4.7710    0.7840 o         1 99Z     -0.939000
     24 O24        -5.5170   -4.9640   -1.3870 o         1 99Z     -0.939000
     25 S25         0.3450    0.6010    0.6240 ss        1 99Z      0.545000
     26 S26        -5.9940   -4.0040   -0.4800 s6        1 99Z      2.872000
     27 HN02       -2.5940    1.3920    0.1430 hn        1 99Z      0.243000
     28 HN03        1.8940    0.7140   -3.5570 hn        1 99Z      0.251000
     29 HN0A        3.0870    0.5000   -2.6030 hn        1 99Z      0.251000
     30 HN04       -8.0890   -3.4630   -0.2740 hn        1 99Z      0.242000
     31 HN0B       -7.7080   -3.3630   -1.7250 hn        1 99Z      0.242000
     32 H12         6.7650    2.6150    2.0980 ha        1 99Z      0.137000
     33 H13         5.8330    4.7450    1.7490 ha        1 99Z      0.134500
     34 H14         3.7290    4.9630    0.8310 ha        1 99Z      0.134500
     35 H15         2.4050    3.0350    0.1930 ha        1 99Z      0.142000
     36 H16        -3.5950   -0.4170    1.7980 ha        1 99Z      0.154000
     37 H17        -5.1470   -2.2260    1.5870 ha        1 99Z      0.157000
     38 H19        -4.3220   -2.6010   -2.4190 ha        1 99Z      0.157000
     39 H20        -2.7280   -0.7770   -2.2960 ha        1 99Z      0.145000
     40 H21         4.9730   -0.2940    2.0460 hc        1 99Z      0.094333
     41 H21A        6.4060    0.2940    2.3010 hc        1 99Z      0.094333
     42 H21B        5.9290   -0.2210    0.8520 hc        1 99Z      0.094333
@<TRIPOS>BOND
     1    1    6 1   
     2    1    7 1   
     3    2    7 1   
     4    2    8 1   
     5    2   27 1   
     6    3    6 1   
     7    3   28 1   
     8    3   29 1   
     9    4   26 1   
    10    4   30 1   
    11    4   31 1   
    12    5    6 1   
    13    5   25 1   
    14    7   25 1   
    15    8   16 1   
    16    8   20 1   
    17    9   10 1   
    18    9   22 1   
    19   10   11 1   
    20   10   15 1   
    21   11   12 1   
    22   11   21 1   
    23   12   32 1   
    24   13   14 1   
    25   13   33 1   
    26   14   34 1   
    27   15   35 1   
    28   16   36 1   
    29   17   18 1   
    30   17   37 1   
    31   18   26 1   
    32   19   20 1   
    33   19   38 1   
    34   20   39 1   
    35   21   40 1   
    36   21   41 1   
    37   21   42 1   
    38   23   26 1   
    39   24   26 1   
@<TRIPOS>SUBSTRUCTURE
     1 99Z         1 TEMP              0 ****  ****    0 ROOT
