@<TRIPOS>MOLECULE
99Z
   42    44     1     0     0
SMALL
bcc


@<TRIPOS>ATOM
      1 N01        -0.1820   -1.1870   -0.1570 nc        1 99Z     -0.748000
      2 N02         0.6510    1.1080   -0.1970 nh        1 99Z     -0.712300
      3 N03        -1.5530   -3.1730    0.0150 nh        1 99Z     -0.937500
      4 N04         6.9930    1.0420    1.1140 n3        1 99Z     -1.026700
      5 C05        -2.5490   -0.9200   -0.0540 cd        1 99Z     -0.421000
      6 C06        -1.4440   -1.8180   -0.0700 cc        1 99Z      0.720200
      7 C07        -0.3570    0.1490   -0.1710 cd        1 99Z      0.682300
      8 C08         2.0260    0.8180   -0.2060 ca        1 99Z      0.208600
      9 C09        -3.9380   -1.3000   -0.0020 c         1 99Z      0.647300
     10 C10        -4.9150   -0.1760   -0.0140 ca        1 99Z     -0.159600
     11 C11        -5.6990    0.1060    1.1170 ca        1 99Z     -0.030300
     12 C12        -6.6150    1.1640    1.0600 ca        1 99Z     -0.137000
     13 C13        -6.7590    1.9180   -0.1020 ca        1 99Z     -0.112000
     14 C14        -5.9870    1.6250   -1.2260 ca        1 99Z     -0.141000
     15 C15        -5.0660    0.5810   -1.1810 ca        1 99Z     -0.102000
     16 C16         2.8940    1.6530   -0.9550 ca        1 99Z     -0.184500
     17 C17         4.2640    1.4480   -0.9150 ca        1 99Z      0.006000
     18 C18         4.8280    0.4230   -0.1460 ca        1 99Z     -0.413500
     19 C19         3.9650   -0.4020    0.5840 ca        1 99Z      0.006000
     20 C20         2.5890   -0.2180    0.5700 ca        1 99Z     -0.184500
     21 C21        -5.5640   -0.6900    2.3600 c3        1 99Z     -0.068800
     22 O22        -4.3180   -2.4830    0.0430 o         1 99Z     -0.578100
     23 O23         7.0360    0.7070   -1.3200 o         1 99Z     -0.659800
     24 O24         6.7350   -1.1970    0.1390 o         1 99Z     -0.659800
     25 S25        -2.0120    0.6780   -0.0980 ss        1 99Z     -0.095300
     26 S26         6.4940    0.1670   -0.1330 sy        1 99Z      1.532200
     27 HN02        0.3940    1.9500   -0.6720 hn        1 99Z      0.439800
     28 HN03       -0.7580   -3.7480   -0.1140 hn        1 99Z      0.457800
     29 HN0A       -2.4650   -3.5710   -0.0170 hn        1 99Z      0.457800
     30 HN04        7.2770    1.9860    1.0400 hn        1 99Z      0.446800
     31 HN0B        7.0740    0.6890    2.0330 hn        1 99Z      0.446800
     32 H12        -7.2300    1.3950    1.9430 ha        1 99Z      0.136000
     33 H13        -7.4870    2.7430   -0.1340 ha        1 99Z      0.133000
     34 H14        -6.1060    2.2130   -2.1470 ha        1 99Z      0.135000
     35 H15        -4.4610    0.3420   -2.0680 ha        1 99Z      0.139000
     36 H16         2.4900    2.4670   -1.5760 ha        1 99Z      0.152000
     37 H17         4.9270    2.0920   -1.5220 ha        1 99Z      0.155000
     38 H19         4.3900   -1.2330    1.1760 ha        1 99Z      0.155000
     39 H20         1.9540   -0.8880    1.1700 ha        1 99Z      0.152000
     40 H21        -4.6490   -0.3720    2.9210 hc        1 99Z      0.054367
     41 H21A       -6.4510   -0.5490    3.0260 hc        1 99Z      0.054367
     42 H21B       -5.4690   -1.7790    2.1190 hc        1 99Z      0.054367
@<TRIPOS>BOND
     1    1    6 1   
     2    1    7 2   
     3    2    7 1   
     4    2    8 1   
     5    2   27 1   
     6    3    6 1   
     7    3   28 1   
     8    3   29 1   
     9    4   26 1   
    10    4   30 1   
    11    4   31 1   
    12    5    6 2   
    13    5    9 1   
    14    5   25 1   
    15    7   25 1   
    16    8   16 ar  
    17    8   20 ar  
    18    9   10 1   
    19    9   22 2   
    20   10   11 ar  
    21   10   15 ar  
    22   11   12 ar  
    23   11   21 1   
    24   12   13 ar  
    25   12   32 1   
    26   13   14 ar  
    27   13   33 1   
    28   14   15 ar  
    29   14   34 1   
    30   15   35 1   
    31   16   17 ar  
    32   16   36 1   
    33   17   18 ar  
    34   17   37 1   
    35   18   19 ar  
    36   18   26 1   
    37   19   20 ar  
    38   19   38 1   
    39   20   39 1   
    40   21   40 1   
    41   21   41 1   
    42   21   42 1   
    43   23   26 2   
    44   24   26 2   
@<TRIPOS>SUBSTRUCTURE
     1 99Z         1 TEMP              0 ****  ****    0 ROOT
