@<TRIPOS>MOLECULE
99Z
   45    47     1     0     0
SMALL
bcc


@<TRIPOS>ATOM
      1 N01        -0.2930   -1.2810    0.3490 nc        1 99Z     -0.577000
      2 N02        -2.1010    0.0140    1.3820 n4        1 99Z     -0.588100
      3 N03         1.8080   -2.3660   -0.3740 n4        1 99Z     -0.800300
      4 N04        -6.7000    1.8860   -3.0860 n4        1 99Z     -0.808500
      5 C05         1.7110   -0.4790    1.3280 cd        1 99Z     -0.261000
      6 C06         1.0810   -1.3850    0.4230 cc        1 99Z      0.423200
      7 C07        -0.6810   -0.2880    1.2000 cd        1 99Z      0.286300
      8 C08        -2.7990    0.4690    0.1620 ca        1 99Z      0.051600
      9 C09         3.1940   -0.4660    1.5560 c         1 99Z      0.633300
     10 C10         3.7160   -0.0910    2.8690 ca        1 99Z     -0.211600
     11 C11         3.3130    1.0350    3.6130 ca        1 99Z     -0.068300
     12 C12         3.9010    1.2720    4.8600 ca        1 99Z     -0.114000
     13 C13         4.8870    0.4220    5.3660 ca        1 99Z     -0.042000
     14 C14         5.3130   -0.6720    4.6130 ca        1 99Z     -0.107000
     15 C15         4.7410   -0.9200    3.3690 ca        1 99Z     -0.050000
     16 C16        -3.2600   -0.4740   -0.7710 ca        1 99Z     -0.113500
     17 C17        -3.9640   -0.0310   -1.8920 ca        1 99Z      0.026500
     18 C18        -4.2160    1.3340   -2.1100 ca        1 99Z     -0.433500
     19 C19        -3.7430    2.2560   -1.1600 ca        1 99Z      0.026500
     20 C20        -3.0380    1.8410   -0.0300 ca        1 99Z     -0.113500
     21 C21         2.3400    2.0330    3.1110 c3        1 99Z     -0.090800
     22 O22         3.9010   -0.8870    0.6300 o         1 99Z     -0.511100
     23 O23        -4.8620    0.8690   -4.4930 o         1 99Z     -0.520800
     24 O24        -4.6400    3.1920   -3.7490 o         1 99Z     -0.520800
     25 S25         0.5960    0.4870    2.0270 ss        1 99Z      0.413700
     26 S26        -4.8880    1.8570   -3.5400 sy        1 99Z      1.449200
     27 HN02       -2.1830    0.7450    2.1070 hn        1 99Z      0.489800
     28 HN03        2.7340   -1.9590   -0.6380 hn        1 99Z      0.500133
     29 HN0A        1.2880   -2.6150   -1.2270 hn        1 99Z      0.500133
     30 HN04       -6.9090    1.6000   -2.1320 hn        1 99Z      0.479467
     31 HN0B       -7.2380    1.2700   -3.7080 hn        1 99Z      0.479467
     32 H12         3.5990    2.1570    5.4460 ha        1 99Z      0.167000
     33 H13         5.3410    0.6290    6.3520 ha        1 99Z      0.184000
     34 H14         6.1120   -1.3320    4.9930 ha        1 99Z      0.184000
     35 H15         5.1010   -1.7670    2.7600 ha        1 99Z      0.161000
     36 H16        -3.0760   -1.5570   -0.6450 ha        1 99Z      0.193500
     37 H17        -4.3040   -0.7840   -2.6350 ha        1 99Z      0.207000
     38 H19        -3.9040    3.3450   -1.3140 ha        1 99Z      0.207000
     39 H20        -2.6890    2.6070    0.6870 ha        1 99Z      0.193500
     40 H21         1.3200    1.8670    3.5690 hc        1 99Z      0.068700
     41 H21A        2.6440    3.0660    3.4430 hc        1 99Z      0.068700
     42 H21B        2.3070    2.0750    1.9910 hc        1 99Z      0.068700
     43 H022       -2.5780   -0.8440    1.7220 hn        1 99Z      0.489800
     44 H033        1.9640   -3.2160    0.1880 hn        1 99Z      0.500133
     45 H043       -7.0870    2.8300   -3.2070 hn        1 99Z      0.479467
@<TRIPOS>BOND
     1    1    6 1   
     2    1    7 2   
     3    2    7 1   
     4    2    8 1   
     5    2   27 1   
     6    2   43 1   
     7    3    6 1   
     8    3   28 1   
     9    3   29 1   
    10    3   44 1   
    11    4   26 1   
    12    4   30 1   
    13    4   31 1   
    14    4   45 1   
    15    5    6 2   
    16    5    9 1   
    17    5   25 1   
    18    7   25 1   
    19    8   16 ar  
    20    8   20 ar  
    21    9   10 1   
    22    9   22 2   
    23   10   11 ar  
    24   10   15 ar  
    25   11   12 ar  
    26   11   21 1   
    27   12   13 ar  
    28   12   32 1   
    29   13   14 ar  
    30   13   33 1   
    31   14   15 ar  
    32   14   34 1   
    33   15   35 1   
    34   16   17 ar  
    35   16   36 1   
    36   17   18 ar  
    37   17   37 1   
    38   18   19 ar  
    39   18   26 1   
    40   19   20 ar  
    41   19   38 1   
    42   20   39 1   
    43   21   40 1   
    44   21   41 1   
    45   21   42 1   
    46   23   26 2   
    47   24   26 2   
@<TRIPOS>SUBSTRUCTURE
     1 99Z         1 TEMP              0 ****  ****    0 ROOT
