@<TRIPOS>MOLECULE
99Z
   43    45     1     0     0
SMALL
bcc


@<TRIPOS>ATOM
      1 N01         0.5060   -0.5360   -0.7310 nc        1 99Z     -0.710000
      2 N02        -1.5460   -1.1040    0.4530 nh        1 99Z     -0.678300
      3 N03         2.7470    0.1410   -1.3610 nh        1 99Z     -0.926500
      4 N04        -6.6980    2.0600   -1.7460 n4        1 99Z     -0.779500
      5 C05         2.0710   -0.1190    1.0030 cd        1 99Z     -0.409000
      6 C06         1.8290   -0.1720   -0.4020 cc        1 99Z      0.693200
      7 C07        -0.1910   -0.7140    0.4130 cd        1 99Z      0.553300
      8 C08        -2.5140   -0.6290   -0.3880 ca        1 99Z      0.322600
      9 C09         3.3410    0.2180    1.6270 c         1 99Z      0.642300
     10 C10         3.3280    0.2730    3.1090 ca        1 99Z     -0.175600
     11 C11         3.8930    1.3680    3.7850 ca        1 99Z     -0.014300
     12 C12         3.8570    1.3920    5.1860 ca        1 99Z     -0.133000
     13 C13         3.2900    0.3420    5.9030 ca        1 99Z     -0.098000
     14 C14         2.7470   -0.7520    5.2270 ca        1 99Z     -0.136000
     15 C15         2.7640   -0.7840    3.8350 ca        1 99Z     -0.119000
     16 C16        -3.7820   -1.3010   -0.4470 ca        1 99Z     -0.215500
     17 C17        -4.7930   -0.8190   -1.2360 ca        1 99Z      0.052000
     18 C18        -4.6520    0.3580   -2.0210 ca        1 99Z     -0.660500
     19 C19        -3.3930    1.0190   -1.9460 ca        1 99Z      0.052000
     20 C20        -2.3630    0.5620   -1.1670 ca        1 99Z     -0.215500
     21 C21         4.5310    2.4790    3.0420 c3        1 99Z     -0.068800
     22 O22         4.3600    0.4590    0.9620 o         1 99Z     -0.545100
     23 O23        -6.8160   -0.0380   -3.2140 o         1 99Z     -0.580800
     24 O24        -5.4130    1.7730   -3.9430 o         1 99Z     -0.580800
     25 S25         0.6860   -0.4790    1.8650 ss        1 99Z      0.064700
     26 S26        -5.7790    0.8440   -2.9920 sy        1 99Z      1.519200
     27 HN02       -1.7150   -1.9800    0.9090 hn        1 99Z      0.466800
     28 HN03        2.5600   -0.0690   -2.3120 hn        1 99Z      0.460800
     29 HN0A        3.6920    0.2700   -1.0680 hn        1 99Z      0.460800
     30 HN04       -7.6620    1.7660   -1.6190 hn        1 99Z      0.445467
     31 HN0B       -6.2500    2.0820   -0.8380 hn        1 99Z      0.445467
     32 H12         4.2930    2.2490    5.7230 ha        1 99Z      0.146000
     33 H13         3.2770    0.3700    7.0030 ha        1 99Z      0.144000
     34 H14         2.3150   -1.5910    5.7920 ha        1 99Z      0.141000
     35 H15         2.3670   -1.6670    3.3070 ha        1 99Z      0.134000
     36 H16        -3.9410   -2.2250    0.1340 ha        1 99Z      0.177500
     37 H17        -5.7500   -1.3740   -1.2870 ha        1 99Z      0.164500
     38 H19        -3.2400    1.9280   -2.5610 ha        1 99Z      0.164500
     39 H20        -1.4090    1.1160   -1.1540 ha        1 99Z      0.177500
     40 H21         4.7760    3.3340    3.7180 hc        1 99Z      0.059033
     41 H21A        3.8570    2.8470    2.2280 hc        1 99Z      0.059033
     42 H21B        5.4770    2.1170    2.5630 hc        1 99Z      0.059033
     43 H043       -6.7040    3.0040   -2.1220 hn        1 99Z      0.445467
@<TRIPOS>BOND
     1    1    6 1   
     2    1    7 2   
     3    2    7 1   
     4    2    8 1   
     5    2   27 1   
     6    3    6 1   
     7    3   28 1   
     8    3   29 1   
     9    4   26 1   
    10    4   30 1   
    11    4   31 1   
    12    4   43 1   
    13    5    6 2   
    14    5    9 1   
    15    5   25 1   
    16    7   25 1   
    17    8   16 ar  
    18    8   20 ar  
    19    9   10 1   
    20    9   22 2   
    21   10   11 ar  
    22   10   15 ar  
    23   11   12 ar  
    24   11   21 1   
    25   12   13 ar  
    26   12   32 1   
    27   13   14 ar  
    28   13   33 1   
    29   14   15 ar  
    30   14   34 1   
    31   15   35 1   
    32   16   17 ar  
    33   16   36 1   
    34   17   18 ar  
    35   17   37 1   
    36   18   19 ar  
    37   18   26 1   
    38   19   20 ar  
    39   19   38 1   
    40   20   39 1   
    41   21   40 1   
    42   21   41 1   
    43   21   42 1   
    44   23   26 2   
    45   24   26 2   
@<TRIPOS>SUBSTRUCTURE
     1 99Z         1 TEMP              0 ****  ****    0 ROOT
