@<TRIPOS>MOLECULE
9AC
   25    20     1     0     0
SMALL
bcc


@<TRIPOS>ATOM
      1 C1          1.5970   -0.1490   -2.0870 c1        1 9AC     -0.059000
      2 C2          2.9850   -0.0720   -2.0950 c1        1 9AC     -0.059000
      3 C3          3.6840    0.0370   -0.8940 c1        1 9AC     -0.059000
      4 C4          2.9940    0.0680    0.3120 c1        1 9AC     -0.059000
      5 C5         -1.1890    0.1040    2.7490 c1        1 9AC     -0.054500
      6 C6         -2.5790    0.0930    2.7550 c1        1 9AC     -0.059000
      7 C7         -3.2800   -0.0150    1.5560 c1        1 9AC     -0.059000
      8 C8         -2.5910   -0.1140    0.3530 c1        1 9AC     -0.054500
      9 C9         -0.4920   -0.1650   -0.8590 cg        1 9AC     -0.074200
     10 N10         0.8980    0.0510    1.5230 n1        1 9AC     -0.440800
     11 C11        -0.4890    0.0040    1.5320 cg        1 9AC     -0.012000
     12 C12        -1.1830   -0.1040    0.3460 cg        1 9AC     -0.012000
     13 C13         0.8970   -0.1180   -0.8670 ch        1 9AC     -0.052000
     14 C14         1.5880   -0.0100    0.3210 ch        1 9AC      0.341800
     15 C15        -1.2970    0.0050   -2.1290 c         1 9AC      0.522100
     16 O16        -1.5550    1.1200   -2.5410 o         1 9AC     -0.507100
     17 H1          1.1080   -0.2260   -2.9290 ha        1 9AC      0.083000
     18 H2          3.4700   -0.0930   -2.9410 ha        1 9AC      0.083000
     19 H3          4.6580    0.0920   -0.9000 ha        1 9AC      0.083000
     20 H4          3.4840    0.1450    1.1530 ha        1 9AC      0.083000
     21 H5         -0.6980    0.1800    3.5900 ha        1 9AC      0.095000
     22 H6         -3.0640    0.1630    3.5990 ha        1 9AC      0.083000
     23 H7         -4.2560   -0.0230    1.5600 ha        1 9AC      0.083000
     24 H8         -3.0830   -0.1900   -0.4870 ha        1 9AC      0.095000
     25 H9         -1.6050   -0.7820   -2.6210 h4        1 9AC      0.008200
@<TRIPOS>BOND
     1    1    2 3   
     2    1   17 1   
     3    2   18 1   
     4    3    4 3   
     5    3   19 1   
     6    4   20 1   
     7    5   11 3   
     8    5   21 1   
     9    6    7 3   
    10    6   22 1   
    11    7   23 1   
    12    8   12 3   
    13    8   24 1   
    14    9   13 3   
    15    9   15 1   
    16   10   14 3   
    17   11   12 1   
    18   13   14 1   
    19   15   16 2   
    20   15   25 1   
@<TRIPOS>SUBSTRUCTURE
     1 9AC         1 TEMP              0 ****  ****    0 ROOT
