@<TRIPOS>MOLECULE
9AC
   25    27     1     0     0
SMALL
bcc


@<TRIPOS>ATOM
      1 C1         -2.4620   -1.1740   -0.0350 ca        1 9AC     -0.123500
      2 C2         -3.6770   -0.5540   -0.0650 ca        1 9AC     -0.114500
      3 C3         -3.7630    0.8690   -0.0690 ca        1 9AC     -0.122500
      4 C4         -2.6380    1.6370   -0.0470 ca        1 9AC     -0.166300
      5 C5          2.1750    2.0650    0.0330 ca        1 9AC     -0.166300
      6 C6          3.4170    1.5080    0.0420 ca        1 9AC     -0.122500
      7 C7          3.5850    0.0920    0.0340 ca        1 9AC     -0.114500
      8 C8          2.5000   -0.7330    0.0240 ca        1 9AC     -0.123500
      9 C9          0.0230   -1.0110    0.0210 ca        1 9AC     -0.125600
     10 N10        -0.2280    1.8150    0.0010 nb        1 9AC     -0.641000
     11 C11         0.9920    1.2300    0.0180 ca        1 9AC      0.410100
     12 C12         1.1710   -0.2020    0.0180 ca        1 9AC     -0.111800
     13 C13        -1.2500   -0.4150   -0.0060 ca        1 9AC     -0.111800
     14 C14        -1.3270    1.0240   -0.0170 ca        1 9AC      0.410100
     15 C15         0.1240   -2.4850    0.0970 c         1 9AC      0.573500
     16 O16         0.8130   -3.1770   -0.6520 o         1 9AC     -0.508100
     17 H1         -2.3960   -2.2730   -0.0430 ha        1 9AC      0.143000
     18 H2         -4.6090   -1.1380   -0.0880 ha        1 9AC      0.138500
     19 H3         -4.7600    1.3350   -0.0930 ha        1 9AC      0.139000
     20 H4         -2.6990    2.7370   -0.0540 ha        1 9AC      0.153500
     21 H5          2.0400    3.1590    0.0360 ha        1 9AC      0.153500
     22 H6          4.3160    2.1430    0.0530 ha        1 9AC      0.139000
     23 H7          4.6060   -0.3180    0.0340 ha        1 9AC      0.138500
     24 H8          2.6230   -1.8290    0.0020 ha        1 9AC      0.143000
     25 H9         -0.4870   -2.9420    0.9110 h4        1 9AC      0.008200
@<TRIPOS>BOND
     1    1    2 ar  
     2    1   13 ar  
     3    1   17 1   
     4    2    3 ar  
     5    2   18 1   
     6    3    4 ar  
     7    3   19 1   
     8    4   14 ar  
     9    4   20 1   
    10    5    6 ar  
    11    5   11 ar  
    12    5   21 1   
    13    6    7 ar  
    14    6   22 1   
    15    7    8 ar  
    16    7   23 1   
    17    8   12 ar  
    18    8   24 1   
    19    9   12 ar  
    20    9   13 ar  
    21    9   15 1   
    22   10   11 ar  
    23   10   14 ar  
    24   11   12 ar  
    25   13   14 ar  
    26   15   16 2   
    27   15   25 1   
@<TRIPOS>SUBSTRUCTURE
     1 9AC         1 TEMP              0 ****  ****    0 ROOT
