@<TRIPOS>MOLECULE
9AD
   46    48     1     0     0
SMALL
bcc


@<TRIPOS>ATOM
      1 C1         -0.0930    0.4440   -0.2530 ca        1 9AD     -0.074000
      2 C2          1.2370    0.7650   -0.3320 ca        1 9AD     -0.095000
      3 C3          2.0160    0.9230    0.8440 ca        1 9AD     -0.020000
      4 C4          1.4460    0.7220    2.0780 ca        1 9AD     -0.245900
      5 C5         -2.2660   -0.5000    4.9090 ca        1 9AD     -0.162300
      6 C6         -3.5790   -0.8160    5.0850 ca        1 9AD     -0.073000
      7 C7         -4.4620   -0.9140    3.9660 ca        1 9AD     -0.003000
      8 C8         -4.0100   -0.6840    2.6960 ca        1 9AD     -0.196000
      9 C9         -2.1100   -0.0680    1.1750 ca        1 9AD     -0.005400
     10 N10        -0.4380    0.0760    3.4430 nb        1 9AD     -0.651000
     11 C11        -0.7330    0.2350    1.0060 ca        1 9AD     -0.115300
     12 C12         0.0560    0.3280    2.2060 ca        1 9AD      0.440600
     13 C13        -2.6480   -0.3350    2.4510 ca        1 9AD     -0.071300
     14 C14        -1.7370   -0.2450    3.5850 ca        1 9AD      0.461600
     15 N9         -2.9990   -0.0960    0.0120 n4        1 9AD     -0.711000
     16 CD1         2.1700    1.0310    3.3180 c         1 9AD      0.605700
     17 OD1         1.9640    1.8600    4.1770 o         1 9AD     -0.346100
     18 ND1         3.4090    0.1190    3.5640 n4        1 9AD     -0.693800
     19 ND2         6.3880    0.2550    6.0120 n4        1 9AD     -0.674400
     20 CD2         4.3210    0.6700    4.6000 c3        1 9AD      0.074800
     21 CD3         5.5230   -0.2500    4.9010 c3        1 9AD      0.078800
     22 CD7         7.2740   -0.8440    6.5110 c3        1 9AD      0.075600
     23 CD8         7.2120    1.4250    5.5930 c3        1 9AD      0.075600
     24 H1         -0.6530    0.3400   -1.1980 ha        1 9AD      0.157000
     25 H2          1.7220    0.9230   -1.3140 ha        1 9AD      0.200000
     26 H3          3.0660    1.2450    0.7300 ha        1 9AD      0.162000
     27 H5         -1.5810   -0.4220    5.7720 ha        1 9AD      0.180000
     28 H6         -3.9860   -1.0030    6.0970 ha        1 9AD      0.196000
     29 H7         -5.5210   -1.1830    4.1490 ha        1 9AD      0.194000
     30 H8         -4.7250   -0.7890    1.8650 ha        1 9AD      0.145000
     31 H9A        -3.1090   -1.0640   -0.3220 hn        1 9AD      0.479800
     32 H9B        -3.9260    0.2740    0.2760 hn        1 9AD      0.479800
     33 HD1         3.9080   -0.0010    2.6760 hn        1 9AD      0.465300
     34 HD21        4.6790    1.6790    4.2360 hx        1 9AD      0.134200
     35 HD22        3.7070    0.8400    5.5370 hx        1 9AD      0.134200
     36 HD31        5.1530   -1.2780    5.1980 hx        1 9AD      0.123700
     37 HD32        6.1740   -0.3580    3.9840 hx        1 9AD      0.123700
     38 HD71        7.9290   -1.2120    5.6750 hx        1 9AD      0.123533
     39 HD72        6.6460   -1.6860    6.9080 hx        1 9AD      0.123533
     40 HD73        7.9200   -0.4380    7.3400 hx        1 9AD      0.123533
     41 HD81        7.8220    1.7780    6.4740 hx        1 9AD      0.123533
     42 HD82        6.5430    2.2590    5.2520 hx        1 9AD      0.123533
     43 HD83        7.9100    1.1240    4.7650 hx        1 9AD      0.123533
     44 H93        -2.6250    0.4860   -0.7480 hn        1 9AD      0.479800
     45 HD13        3.0550   -0.8000    3.8580 hn        1 9AD      0.465300
     46 HD23        5.7830    0.5520    6.7930 hn        1 9AD      0.462800
@<TRIPOS>BOND
     1    1    2 ar  
     2    1   11 ar  
     3    1   24 1   
     4    2    3 ar  
     5    2   25 1   
     6    3    4 ar  
     7    3   26 1   
     8    4   12 ar  
     9    4   16 1   
    10    5    6 ar  
    11    5   14 ar  
    12    5   27 1   
    13    6    7 ar  
    14    6   28 1   
    15    7    8 ar  
    16    7   29 1   
    17    8   13 ar  
    18    8   30 1   
    19    9   11 ar  
    20    9   13 ar  
    21    9   15 1   
    22   10   12 ar  
    23   10   14 ar  
    24   11   12 ar  
    25   13   14 ar  
    26   15   31 1   
    27   15   32 1   
    28   15   44 1   
    29   16   17 2   
    30   16   18 1   
    31   18   20 1   
    32   18   33 1   
    33   18   45 1   
    34   19   21 1   
    35   19   22 1   
    36   19   23 1   
    37   19   46 1   
    38   20   21 1   
    39   20   34 1   
    40   20   35 1   
    41   21   36 1   
    42   21   37 1   
    43   22   38 1   
    44   22   39 1   
    45   22   40 1   
    46   23   41 1   
    47   23   42 1   
    48   23   43 1   
@<TRIPOS>SUBSTRUCTURE
     1 9AD         1 TEMP              0 ****  ****    0 ROOT
