@<TRIPOS>MOLECULE
9AD
   45    47     1     0     0
SMALL
bcc


@<TRIPOS>ATOM
      1 C1         -0.4970   -1.3560   -0.2670 ca        1 9AD      0.035000
      2 C2          0.6850   -1.9220   -0.7100 ca        1 9AD     -0.202000
      3 C3          1.8630   -1.7450    0.0170 ca        1 9AD      0.062000
      4 C4          1.8760   -0.9880    1.1950 ca        1 9AD     -0.332900
      5 C5         -0.4090    1.6810    4.5020 ca        1 9AD     -0.240300
      6 C6         -1.5370    2.2760    5.0110 ca        1 9AD     -0.038000
      7 C7         -2.7790    2.1400    4.3510 ca        1 9AD     -0.135000
      8 C8         -2.8680    1.4100    3.1890 ca        1 9AD     -0.066000
      9 C9         -1.7780    0.0060    1.4050 ca        1 9AD      0.348600
     10 N10         0.6780    0.3380    2.8170 nb        1 9AD     -0.890000
     11 C11        -0.5530   -0.5900    0.9170 ca        1 9AD     -0.285300
     12 C12         0.6530   -0.3830    1.6810 ca        1 9AD      0.558600
     13 C13        -1.7250    0.7780    2.6270 ca        1 9AD     -0.243300
     14 C14        -0.4680    0.9140    3.2950 ca        1 9AD      0.520600
     15 N9         -2.9410   -0.1550    0.7410 nv        1 9AD     -0.798200
     16 CD1         3.1600   -0.8960    1.8610 c         1 9AD      0.594700
     17 OD1         4.1910   -1.5160    1.6080 o         1 9AD     -0.485100
     18 ND1         3.3030    0.1020    3.0110 ny        1 9AD     -0.719800
     19 ND2         5.5660    0.1150    6.1080 nx        1 9AD     -0.675400
     20 CD2         4.1130   -0.4480    4.1150 c3        1 9AD      0.085800
     21 CD3         4.5610    0.6290    5.1230 c3        1 9AD      0.082800
     22 CD7         6.2280    1.2550    6.8080 c3        1 9AD      0.077600
     23 CD8         4.9470   -0.8110    7.0970 c3        1 9AD      0.077600
     24 H1         -1.3980   -1.5290   -0.8820 ha        1 9AD      0.153000
     25 H2          0.7040   -2.5170   -1.6380 ha        1 9AD      0.183000
     26 H3          2.8020   -2.2090   -0.3440 ha        1 9AD      0.178000
     27 H5          0.5550    1.7930    5.0200 ha        1 9AD      0.123000
     28 H6         -1.4870    2.8690    5.9400 ha        1 9AD      0.160000
     29 H7         -3.6720    2.6270    4.7760 ha        1 9AD      0.171000
     30 H8         -3.8550    1.3320    2.7080 ha        1 9AD      0.145000
     31 H9A        -2.9930   -0.6810   -0.1000 hn        1 9AD      0.464800
     32 H9B        -3.7840    0.2550    1.0730 hn        1 9AD      0.464800
     33 HD1         2.2900    0.3550    3.3290 hn        1 9AD      0.489300
     34 HD21        5.0170   -0.9640    3.6660 hx        1 9AD      0.122200
     35 HD22        3.4860   -1.2310    4.6350 hx        1 9AD      0.122200
     36 HD31        3.6730    1.0140    5.7030 hx        1 9AD      0.118700
     37 HD32        5.0370    1.4980    4.5780 hx        1 9AD      0.118700
     38 HD71        5.4570    1.8650    7.3510 hx        1 9AD      0.117367
     39 HD72        6.9710    0.8460    7.5490 hx        1 9AD      0.117367
     40 HD73        6.7650    1.8980    6.0590 hx        1 9AD      0.117367
     41 HD81        4.1640   -0.2670    7.6900 hx        1 9AD      0.117367
     42 HD82        5.7450   -1.1880    7.7960 hx        1 9AD      0.117367
     43 HD83        4.4850   -1.6820    6.5600 hx        1 9AD      0.117367
     44 HD13        3.7400    0.9450    2.6320 hn        1 9AD      0.489300
     45 HD23        6.2910   -0.4060    5.5910 hn        1 9AD      0.461800
@<TRIPOS>BOND
     1    1    2 ar  
     2    1   11 ar  
     3    1   24 1   
     4    2    3 ar  
     5    2   25 1   
     6    3    4 ar  
     7    3   26 1   
     8    4   12 ar  
     9    4   16 1   
    10    5    6 ar  
    11    5   14 ar  
    12    5   27 1   
    13    6    7 ar  
    14    6   28 1   
    15    7    8 ar  
    16    7   29 1   
    17    8   13 ar  
    18    8   30 1   
    19    9   11 ar  
    20    9   13 ar  
    21    9   15 1   
    22   10   12 ar  
    23   10   14 ar  
    24   11   12 ar  
    25   13   14 ar  
    26   15   31 1   
    27   15   32 1   
    28   16   17 2   
    29   16   18 1   
    30   18   20 1   
    31   18   33 1   
    32   18   44 1   
    33   19   21 1   
    34   19   22 1   
    35   19   23 1   
    36   19   45 1   
    37   20   21 1   
    38   20   34 1   
    39   20   35 1   
    40   21   36 1   
    41   21   37 1   
    42   22   38 1   
    43   22   39 1   
    44   22   40 1   
    45   23   41 1   
    46   23   42 1   
    47   23   43 1   
@<TRIPOS>SUBSTRUCTURE
     1 9AD         1 TEMP              0 ****  ****    0 ROOT
