@<TRIPOS>MOLECULE
9AD
   45    47     1     0     0
SMALL
bcc


@<TRIPOS>ATOM
      1 C1         -0.5150    1.1960   -0.3900 ca        1 9AD      0.036000
      2 C2          0.6560    1.7780   -0.8380 ca        1 9AD     -0.202000
      3 C3          1.8140    1.7180   -0.0600 ca        1 9AD      0.062000
      4 C4          1.8150    1.0640    1.1770 ca        1 9AD     -0.332900
      5 C5         -0.4700   -1.4310    4.6180 ca        1 9AD     -0.240300
      6 C6         -1.5880   -2.0360    5.1360 ca        1 9AD     -0.038000
      7 C7         -2.8090   -2.0140    4.4250 ca        1 9AD     -0.135000
      8 C8         -2.8870   -1.3860    3.2050 ca        1 9AD     -0.066000
      9 C9         -1.7960   -0.0810    1.3490 ca        1 9AD      0.348600
     10 N10         0.6180   -0.1790    2.8650 nb        1 9AD     -0.890000
     11 C11        -0.5810    0.5300    0.8530 ca        1 9AD     -0.285300
     12 C12         0.6030    0.4440    1.6720 ca        1 9AD      0.558600
     13 C13        -1.7540   -0.7480    2.6310 ca        1 9AD     -0.242300
     14 C14        -0.5180   -0.7680    3.3490 ca        1 9AD      0.520600
     15 N9         -2.9400   -0.0290    0.6360 nh        1 9AD     -0.797200
     16 CD1         3.0770    1.0880    1.8910 c         1 9AD      0.594700
     17 OD1         4.0910    1.7270    1.6170 o         1 9AD     -0.486100
     18 ND1         3.2170    0.2060    3.1330 n4        1 9AD     -0.719800
     19 ND2         5.2320    0.6240    6.3750 n4        1 9AD     -0.675400
     20 CD2         3.9470    0.8950    4.2140 c3        1 9AD      0.084800
     21 CD3         4.4240   -0.0660    5.3200 c3        1 9AD      0.081800
     22 CD7         5.2610   -0.1960    7.6220 c3        1 9AD      0.077600
     23 CD8         6.6200    0.9080    5.9130 c3        1 9AD      0.077600
     24 H1         -1.3990    1.2740   -1.0470 ha        1 9AD      0.153000
     25 H2          0.6840    2.2950   -1.8130 ha        1 9AD      0.183000
     26 H3          2.7430    2.1950   -0.4270 ha        1 9AD      0.178000
     27 H5          0.4780   -1.4540    5.1750 ha        1 9AD      0.123000
     28 H6         -1.5460   -2.5470    6.1120 ha        1 9AD      0.160000
     29 H7         -3.6950   -2.5070    4.8600 ha        1 9AD      0.171000
     30 H8         -3.8590   -1.3950    2.6860 ha        1 9AD      0.145000
     31 H9A        -2.9840    0.4240   -0.2470 hn        1 9AD      0.464800
     32 H9B        -3.7760   -0.4490    0.9730 hn        1 9AD      0.464800
     33 HD1         2.2040   -0.0740    3.4300 hn        1 9AD      0.489300
     34 HD21        3.2520    1.6740    4.6480 hx        1 9AD      0.122200
     35 HD22        4.8340    1.4320    3.7560 hx        1 9AD      0.122200
     36 HD31        5.0620   -0.8900    4.8850 hx        1 9AD      0.118700
     37 HD32        3.5280   -0.5380    5.8230 hx        1 9AD      0.118700
     38 HD71        4.2170   -0.3220    8.0160 hx        1 9AD      0.118200
     39 HD72        5.8900    0.3330    8.3910 hx        1 9AD      0.118200
     40 HD73        5.7100   -1.2020    7.4010 hx        1 9AD      0.118200
     41 HD81        7.1690    1.4660    6.7220 hx        1 9AD      0.118200
     42 HD82        7.1550   -0.0580    5.7020 hx        1 9AD      0.118200
     43 HD83        6.5910    1.5380    4.9840 hx        1 9AD      0.118200
     44 HD13        3.7160   -0.6410    2.8510 hn        1 9AD      0.489300
     45 HD23        4.7780    1.5240    6.5960 hn        1 9AD      0.458800
@<TRIPOS>BOND
     1    1    2 ar  
     2    1   11 ar  
     3    1   24 1   
     4    2    3 ar  
     5    2   25 1   
     6    3    4 ar  
     7    3   26 1   
     8    4   12 ar  
     9    4   16 1   
    10    5    6 ar  
    11    5   14 ar  
    12    5   27 1   
    13    6    7 ar  
    14    6   28 1   
    15    7    8 ar  
    16    7   29 1   
    17    8   13 ar  
    18    8   30 1   
    19    9   11 ar  
    20    9   13 ar  
    21    9   15 1   
    22   10   12 ar  
    23   10   14 ar  
    24   11   12 ar  
    25   13   14 ar  
    26   15   31 1   
    27   15   32 1   
    28   16   17 2   
    29   16   18 1   
    30   18   20 1   
    31   18   33 1   
    32   18   44 1   
    33   19   21 1   
    34   19   22 1   
    35   19   23 1   
    36   19   45 1   
    37   20   21 1   
    38   20   34 1   
    39   20   35 1   
    40   21   36 1   
    41   21   37 1   
    42   22   38 1   
    43   22   39 1   
    44   22   40 1   
    45   23   41 1   
    46   23   42 1   
    47   23   43 1   
@<TRIPOS>SUBSTRUCTURE
     1 9AD         1 TEMP              0 ****  ****    0 ROOT
