@<TRIPOS>MOLECULE
9AD
   43    37     1     0     0
SMALL
bcc


@<TRIPOS>ATOM
      1 C1         -1.4190    0.5220   -3.3630 c1        1 9AD     -0.123250
      2 C2         -0.0460    0.5940   -3.3570 c1        1 9AD     -0.123250
      3 C3          0.6410    0.6370   -2.1540 c1        1 9AD     -0.049000
      4 C4         -0.0620    0.6060   -0.9440 c1        1 9AD     -0.116000
      5 C5         -4.2840    0.6060    1.4760 c1        1 9AD     -0.122000
      6 C6         -5.6810    0.6030    1.4690 c1        1 9AD     -0.123250
      7 C7         -6.3800    0.5600    0.2400 c1        1 9AD     -0.123250
      8 C8         -5.6860    0.5210   -0.9380 c1        1 9AD     -0.095000
      9 C9         -3.5480    0.4850   -2.1370 c1        1 9AD      0.181000
     10 N10        -2.1790    0.5690    0.2680 n1        1 9AD     -0.204000
     11 C11        -2.1400    0.4890   -2.1290 c1        1 9AD     -0.039500
     12 C12        -1.4680    0.5310   -0.9490 c1        1 9AD     -0.039500
     13 C13        -4.2550    0.5230   -0.9280 c1        1 9AD     -0.165000
     14 C14        -3.5750    0.5650    0.2630 c1        1 9AD      0.077000
     15 N9         -4.2310    0.6420   -3.3560 n3        1 9AD     -0.357000
     16 CD1         0.7230    0.6060    0.4310 c2        1 9AD      0.359000
     17 OD1         0.0820    0.5780    1.5220 o         1 9AD     -0.371000
     18 ND1         2.0830    0.4810    0.4390 n         1 9AD     -0.358000
     19 ND2         4.7630   -1.3800    2.2750 n3        1 9AD     -0.266000
     20 CD2         2.7580   -0.0320    1.6350 c3        1 9AD     -0.033000
     21 CD3         4.2380   -0.3800    1.2900 c3        1 9AD     -0.078000
     22 CD7         5.1600   -2.6070    1.5630 c3        1 9AD     -0.116500
     23 CD8         5.9070   -0.8370    2.9490 c3        1 9AD     -0.116500
     24 H1         -1.9110    0.4920   -4.2270 ha        1 9AD      0.132750
     25 H2          0.4730    0.6160   -4.2520 ha        1 9AD      0.132750
     26 H3          1.6340    0.6880   -2.1500 ha        1 9AD      0.155000
     27 H5         -3.8060    0.6360    2.3140 ha        1 9AD      0.152000
     28 H6         -6.1840    0.6330    2.3300 ha        1 9AD      0.132750
     29 H7         -7.3450    0.5590    0.2310 ha        1 9AD      0.132750
     30 H8         -6.1620    0.4920   -1.7760 ha        1 9AD      0.119000
     31 H9A        -4.3540    1.4230   -3.6750 hn        1 9AD      0.222000
     32 H9B        -4.6250   -0.0620   -3.7410 hn        1 9AD      0.222000
     33 HD1         2.6050    0.8450   -0.2930 hn        1 9AD      0.229000
     34 HD21        2.7370    0.6730    2.3610 h1        1 9AD      0.102500
     35 HD22        2.3040   -0.8240    1.9430 h1        1 9AD      0.102500
     36 HD31        4.2760   -0.7270    0.4650 h1        1 9AD      0.073000
     37 HD32        4.7970    0.4570    1.3270 h1        1 9AD      0.073000
     38 HD71        5.7180   -3.1620    2.1530 h1        1 9AD      0.070000
     39 HD72        5.6700   -2.3710    0.7630 h1        1 9AD      0.070000
     40 HD73        4.3640   -3.1060    1.3030 h1        1 9AD      0.070000
     41 HD81        5.6160   -0.1630    3.6140 h1        1 9AD      0.070000
     42 HD82        6.4350   -0.4600    2.3670 h1        1 9AD      0.070000
     43 HD83        6.3600   -1.5200    3.3790 h1        1 9AD      0.070000
@<TRIPOS>BOND
     1    1    2 1   
     2    1   24 1   
     3    2   25 1   
     4    3    4 1   
     5    3   26 1   
     6    4   16 1   
     7    5   14 1   
     8    5   27 1   
     9    6    7 1   
    10    6   28 1   
    11    7   29 1   
    12    8   13 1   
    13    8   30 1   
    14    9   13 1   
    15    9   15 1   
    16   10   14 1   
    17   11   12 1   
    18   15   31 1   
    19   15   32 1   
    20   16   17 1   
    21   16   18 1   
    22   18   20 1   
    23   18   33 1   
    24   19   21 1   
    25   19   22 1   
    26   19   23 1   
    27   20   21 1   
    28   20   34 1   
    29   20   35 1   
    30   21   36 1   
    31   21   37 1   
    32   22   38 1   
    33   22   39 1   
    34   22   40 1   
    35   23   41 1   
    36   23   42 1   
    37   23   43 1   
@<TRIPOS>SUBSTRUCTURE
     1 9AD         1 TEMP              0 ****  ****    0 ROOT
