@<TRIPOS>MOLECULE
9AD
   43    45     1     0     0
SMALL
bcc


@<TRIPOS>ATOM
      1 C1         -3.2270   -0.5670   -2.0040 ca        1 9AD     -0.078000
      2 C2         -3.8270   -1.0430   -0.8720 ca        1 9AD     -0.162000
      3 C3         -3.0580   -1.2990    0.2920 ca        1 9AD     -0.049000
      4 C4         -1.7120   -1.0490    0.3080 ca        1 9AD     -0.201900
      5 C5          2.3550    0.3590   -1.8620 ca        1 9AD     -0.186300
      6 C6          3.0390    0.8170   -2.9480 ca        1 9AD     -0.104000
      7 C7          2.3630    1.0810   -4.1700 ca        1 9AD     -0.149000
      8 C8          1.0160    0.8740   -4.2730 ca        1 9AD     -0.095000
      9 C9         -1.1570    0.1540   -3.2290 ca        1 9AD      0.262600
     10 N10         0.2980   -0.3250   -0.8180 nb        1 9AD     -0.729000
     11 C11        -1.8240   -0.3160   -2.0530 ca        1 9AD     -0.235300
     12 C12        -1.0360   -0.5440   -0.8700 ca        1 9AD      0.483600
     13 C13         0.2530    0.3900   -3.1680 ca        1 9AD     -0.230300
     14 C14         0.9280    0.1290   -1.9270 ca        1 9AD      0.470600
     15 N9         -1.8620    0.4130   -4.3810 nh        1 9AD     -0.848200
     16 CD1        -0.9520   -1.3670    1.5580 c         1 9AD      0.686700
     17 OD1        -1.0590   -2.4890    2.0970 o         1 9AD     -0.616100
     18 ND1        -0.2100   -0.3550    2.1290 n         1 9AD     -0.548900
     19 ND2         1.3080    0.3290    5.4950 n3        1 9AD     -0.738600
     20 CD2         0.6440   -0.5820    3.2630 c3        1 9AD      0.083000
     21 CD3         0.2990    0.3570    4.4450 c3        1 9AD      0.152800
     22 CD7         1.1270    1.4020    6.4480 c3        1 9AD      0.155100
     23 CD8         1.4430   -0.9640    6.1280 c3        1 9AD      0.155100
     24 H1         -3.8590   -0.3730   -2.8840 ha        1 9AD      0.121000
     25 H2         -4.9090   -1.2380   -0.8450 ha        1 9AD      0.139000
     26 H3         -3.5540   -1.7110    1.1860 ha        1 9AD      0.154000
     27 H5          2.8720    0.1500   -0.9110 ha        1 9AD      0.153000
     28 H6          4.1250    0.9900   -2.8960 ha        1 9AD      0.137000
     29 H7          2.9430    1.4550   -5.0270 ha        1 9AD      0.135000
     30 H8          0.5260    1.0990   -5.2320 ha        1 9AD      0.119000
     31 H9A        -1.3640    0.5600   -5.2240 hn        1 9AD      0.426800
     32 H9B        -2.7850    0.0660   -4.4670 hn        1 9AD      0.426800
     33 HD1        -0.0560    0.4780    1.6140 hn        1 9AD      0.319500
     34 HD21        1.7170   -0.4170    2.9590 h1        1 9AD      0.064700
     35 HD22        0.5320   -1.6540    3.5970 h1        1 9AD      0.064700
     36 HD31       -0.7210    0.0780    4.8400 h1        1 9AD      0.034200
     37 HD32        0.2380    1.4170    4.0650 h1        1 9AD      0.034200
     38 HD71        1.9720    1.3770    7.1860 h1        1 9AD      0.031533
     39 HD72        1.1550    2.3830    5.9050 h1        1 9AD      0.031533
     40 HD73        0.1570    1.3360    7.0140 h1        1 9AD      0.031533
     41 HD81        1.7750   -1.7100    5.3600 h1        1 9AD      0.031533
     42 HD82        2.2280   -0.9020    6.9260 h1        1 9AD      0.031533
     43 HD83        0.4880   -1.3310    6.5950 h1        1 9AD      0.031533
@<TRIPOS>BOND
     1    1    2 ar  
     2    1   11 ar  
     3    1   24 1   
     4    2    3 ar  
     5    2   25 1   
     6    3    4 ar  
     7    3   26 1   
     8    4   12 ar  
     9    4   16 1   
    10    5    6 ar  
    11    5   14 ar  
    12    5   27 1   
    13    6    7 ar  
    14    6   28 1   
    15    7    8 ar  
    16    7   29 1   
    17    8   13 ar  
    18    8   30 1   
    19    9   11 ar  
    20    9   13 ar  
    21    9   15 1   
    22   10   12 ar  
    23   10   14 ar  
    24   11   12 ar  
    25   13   14 ar  
    26   15   31 1   
    27   15   32 1   
    28   16   17 2   
    29   16   18 1   
    30   18   20 1   
    31   18   33 1   
    32   19   21 1   
    33   19   22 1   
    34   19   23 1   
    35   20   21 1   
    36   20   34 1   
    37   20   35 1   
    38   21   36 1   
    39   21   37 1   
    40   22   38 1   
    41   22   39 1   
    42   22   40 1   
    43   23   41 1   
    44   23   42 1   
    45   23   43 1   
@<TRIPOS>SUBSTRUCTURE
     1 9AD         1 TEMP              0 ****  ****    0 ROOT
