@<TRIPOS>MOLECULE
9AI
   14    13     1     0     0
SMALL
bcc


@<TRIPOS>ATOM
      1 C6          0.0240   -0.0220   -0.0040 c3        1 9AI      0.143000
      2 C5          1.5120   -0.0600    0.0110 c2        1 9AI     -0.276200
      3 C4          2.2260    0.0650    1.1290 c2        1 9AI     -0.100000
      4 C1         -1.9540    1.2630   -0.9050 c         1 9AI      0.040200
      5 N1         -0.4780    1.1730   -0.7600 n4        1 9AI     -0.623800
      6 S6         -2.9810    0.2930   -0.4210 s         1 9AI      0.137600
      7 H1         -0.3800   -0.9490   -0.5090 hx        1 9AI      0.111200
      8 H2         -0.4010    0.0260    1.0410 hx        1 9AI      0.111200
      9 H3          1.9930   -0.2710   -0.9600 ha        1 9AI      0.155000
     10 H5          1.7790    0.2510    2.1180 ha        1 9AI      0.145500
     11 H6          3.3240   -0.0290    1.1270 ha        1 9AI      0.145500
     12 H8         -2.1440    2.2170   -1.4590 hx        1 9AI      0.096200
     13 H4         -0.1410    2.0230   -0.2870 hn        1 9AI      0.456800
     14 H12        -0.0560    1.1640   -1.7000 hn        1 9AI      0.456800
@<TRIPOS>BOND
     1    1    2 1   
     2    1    5 1   
     3    1    7 1   
     4    1    8 1   
     5    2    3 2   
     6    2    9 1   
     7    3   10 1   
     8    3   11 1   
     9    4    5 1   
    10    4    6 2   
    11    4   12 1   
    12    5   13 1   
    13    5   14 1   
@<TRIPOS>SUBSTRUCTURE
     1 9AI         1 TEMP              0 ****  ****    0 ROOT
