@<TRIPOS>MOLECULE
9AI
   14    13     1     0     0
SMALL
bcc


@<TRIPOS>ATOM
      1 C6          0.0240   -0.0210    0.0000 c3        1 9AI      0.143000
      2 C5          1.5120   -0.0600    0.0110 c2        1 9AI     -0.276200
      3 C4          2.2290    0.0710    1.1270 c2        1 9AI     -0.100000
      4 C1         -1.9550    1.2590   -0.9050 c         1 9AI      0.040200
      5 N1         -0.4790    1.1700   -0.7620 ny        1 9AI     -0.623800
      6 S6         -2.9810    0.2900   -0.4170 s         1 9AI      0.137600
      7 H1         -0.3830   -0.9500   -0.4980 hx        1 9AI      0.111200
      8 H2         -0.3980    0.0340    1.0460 hx        1 9AI      0.111200
      9 H3          1.9900   -0.2780   -0.9590 ha        1 9AI      0.155000
     10 H5          1.7840    0.2640    2.1150 ha        1 9AI      0.145500
     11 H6          3.3270   -0.0230    1.1230 ha        1 9AI      0.145500
     12 H8         -2.1460    2.2110   -1.4630 hx        1 9AI      0.096200
     13 H4         -0.0590    1.1550   -1.7030 hn        1 9AI      0.456800
     14 H12        -0.1410    2.0230   -0.2940 hn        1 9AI      0.456800
@<TRIPOS>BOND
     1    1    2 1   
     2    1    5 1   
     3    1    7 1   
     4    1    8 1   
     5    2    3 2   
     6    2    9 1   
     7    3   10 1   
     8    3   11 1   
     9    4    5 1   
    10    4    6 2   
    11    4   12 1   
    12    5   13 1   
    13    5   14 1   
@<TRIPOS>SUBSTRUCTURE
     1 9AI         1 TEMP              0 ****  ****    0 ROOT
