@<TRIPOS>MOLECULE
9AI
   14    13     1     0     0
SMALL
bcc


@<TRIPOS>ATOM
      1 C6          0.0220   -0.0220   -0.0050 c3        1 9AI      0.143000
      2 C5          1.5110   -0.0620    0.0120 c2        1 9AI     -0.276200
      3 C4          2.2230    0.0570    1.1330 c2        1 9AI     -0.100000
      4 C1         -1.9510    1.2680   -0.9090 c         1 9AI      0.040200
      5 N1         -0.4750    1.1780   -0.7570 n4        1 9AI     -0.623800
      6 S6         -2.9800    0.2930   -0.4410 s         1 9AI      0.137600
      7 H1         -0.3820   -0.9450   -0.5160 hx        1 9AI      0.111200
      8 H2         -0.4040    0.0220    1.0380 hx        1 9AI      0.111200
      9 H3          1.9940   -0.2710   -0.9580 ha        1 9AI      0.155000
     10 H5          1.7740    0.2390    2.1210 ha        1 9AI      0.145500
     11 H6          3.3210   -0.0390    1.1320 ha        1 9AI      0.145500
     12 H8         -2.1380    2.2280   -1.4540 hx        1 9AI      0.096200
     13 H4         -0.0490    1.1750   -1.6950 hn        1 9AI      0.456800
     14 H12        -0.1410    2.0250   -0.2770 hn        1 9AI      0.456800
@<TRIPOS>BOND
     1    1    2 1   
     2    1    5 1   
     3    1    7 1   
     4    1    8 1   
     5    2    3 2   
     6    2    9 1   
     7    3   10 1   
     8    3   11 1   
     9    4    5 1   
    10    4    6 2   
    11    4   12 1   
    12    5   13 1   
    13    5   14 1   
@<TRIPOS>SUBSTRUCTURE
     1 9AI         1 TEMP              0 ****  ****    0 ROOT
