@<TRIPOS>MOLECULE
9AL
   37    37     1     0     0
SMALL
bcc


@<TRIPOS>ATOM
      1 N           4.1200   -1.9680    0.7240 n3        1 9AL     -0.903800
      2 CA          3.3080   -0.7830    0.5160 c3        1 9AL      0.140500
      3 C2          2.2580   -1.0360   -0.5990 c3        1 9AL      0.074100
      4 O1          2.8610   -1.0690   -1.8720 oh        1 9AL     -0.587800
      5 CB          4.0920    0.4910    0.2020 c3        1 9AL     -0.145100
      6 C           1.1830    0.0600   -0.5520 c         1 9AL      0.631100
      7 O           1.2480    1.0200   -1.3490 o         1 9AL     -0.619100
      8 N2          0.2000   -0.0500    0.4020 n         1 9AL     -0.550900
      9 C5         -0.9320    0.8520    0.4680 c3        1 9AL      0.142000
     10 C6         -1.1290    1.4510    1.8740 c3        1 9AL     -0.085400
     11 C7         -0.0010    2.3660    2.2690 c3        1 9AL     -0.093100
     12 C8         -2.2180    0.1770    0.0450 ca        1 9AL     -0.111300
     13 C9         -2.9030    0.6380   -1.0830 ca        1 9AL     -0.118000
     14 C10        -4.0950    0.0280   -1.4760 ca        1 9AL     -0.129500
     15 C11        -4.6040   -1.0470   -0.7490 ca        1 9AL     -0.124000
     16 C12        -3.9190   -1.5140    0.3740 ca        1 9AL     -0.129500
     17 C13        -2.7300   -0.9050    0.7690 ca        1 9AL     -0.118000
     18 H           4.4520   -2.3200   -0.1540 hn        1 9AL      0.354800
     19 H1          2.7430   -0.6160    1.4820 h1        1 9AL      0.061700
     20 H3          4.7460    0.3460   -0.6910 hc        1 9AL      0.047700
     21 H4          3.3840    1.3290   -0.0130 hc        1 9AL      0.047700
     22 H5          4.7330    0.7780    1.0700 hc        1 9AL      0.047700
     23 H6          0.1450   -0.8800    0.9440 hn        1 9AL      0.312500
     24 H7         -0.7180    1.7080   -0.2460 h1        1 9AL      0.095700
     25 H8         -2.0930    2.0250    1.8580 hc        1 9AL      0.048200
     26 H9         -1.2410    0.6310    2.6300 hc        1 9AL      0.048200
     27 H10         0.9580    1.8030    2.3670 hc        1 9AL      0.037367
     28 H11         0.1410    3.1710    1.5080 hc        1 9AL      0.037367
     29 H12        -0.2260    2.8470    3.2520 hc        1 9AL      0.037367
     30 H13        -2.5000    1.4800   -1.6660 ha        1 9AL      0.133500
     31 H14        -4.6300    0.3960   -2.3630 ha        1 9AL      0.133000
     32 H15        -5.5430   -1.5280   -1.0600 ha        1 9AL      0.133000
     33 H16        -4.3180   -2.3640    0.9480 ha        1 9AL      0.133000
     34 H17        -2.1960   -1.2730    1.6590 ha        1 9AL      0.133500
     35 H2          4.9060   -1.7460    1.3040 hn        1 9AL      0.354800
     36 H19         1.7930   -2.0570   -0.4810 h1        1 9AL      0.100700
     37 H20         3.0140   -0.1540   -2.1540 ho        1 9AL      0.427000
@<TRIPOS>BOND
     1    1    2 1   
     2    1   18 1   
     3    1   35 1   
     4    2    3 1   
     5    2    5 1   
     6    2   19 1   
     7    3    4 1   
     8    3    6 1   
     9    3   36 1   
    10    4   37 1   
    11    5   20 1   
    12    5   21 1   
    13    5   22 1   
    14    6    7 2   
    15    6    8 1   
    16    8    9 1   
    17    8   23 1   
    18    9   10 1   
    19    9   12 1   
    20    9   24 1   
    21   10   11 1   
    22   10   25 1   
    23   10   26 1   
    24   11   27 1   
    25   11   28 1   
    26   11   29 1   
    27   12   13 ar  
    28   12   17 ar  
    29   13   14 ar  
    30   13   30 1   
    31   14   15 ar  
    32   14   31 1   
    33   15   16 ar  
    34   15   32 1   
    35   16   17 ar  
    36   16   33 1   
    37   17   34 1   
@<TRIPOS>SUBSTRUCTURE
     1 9AL         1 TEMP              0 ****  ****    0 ROOT
