@<TRIPOS>MOLECULE
9AL
   37    35     1     0     0
SMALL
bcc


@<TRIPOS>ATOM
      1 N           0.4160    2.7530   -3.5650 n3        1 9AL     -0.351000
      2 CA          1.1080    1.6050   -3.0430 c3        1 9AL     -0.040000
      3 C2          1.1940    1.7100   -1.5280 c3        1 9AL      0.009000
      4 O1          2.4530    1.2490   -1.0960 oh        1 9AL     -0.332000
      5 CB          2.4840    1.5460   -3.6160 c3        1 9AL     -0.221000
      6 C           0.0980    0.8610   -0.8970 c2        1 9AL      0.307000
      7 O          -0.7950    0.4010   -1.5930 o         1 9AL     -0.385000
      8 N2          0.1480    0.5460    0.4990 n         1 9AL     -0.348000
      9 C5         -0.9770   -0.0310    1.1340 c3        1 9AL      0.052000
     10 C6         -1.2420    0.6910    2.4470 c3        1 9AL     -0.161000
     11 C7         -2.7550    0.9800    2.5810 c3        1 9AL     -0.213000
     12 C8         -0.7070   -1.5150    1.4060 c2        1 9AL     -0.099000
     13 C9         -1.5780   -2.4870    0.9000 c2        1 9AL     -0.113000
     14 C10        -1.3170   -3.8410    1.1240 c1        1 9AL     -0.131000
     15 C11        -0.1910   -4.2240    1.8500 c1        1 9AL     -0.128000
     16 C12         0.6810   -3.2500    2.3570 c1        1 9AL     -0.128000
     17 C13         0.4220   -1.8990    2.1340 c1        1 9AL     -0.122000
     18 H           0.0810    2.5560   -4.3930 hn        1 9AL      0.160000
     19 H1          0.6130    0.7820   -3.2910 h1        1 9AL      0.074000
     20 H3          2.4470    1.7320   -4.5850 hc        1 9AL      0.081667
     21 H4          3.0440    2.2070   -3.1820 hc        1 9AL      0.081667
     22 H5          2.8660    0.6400   -3.4680 hc        1 9AL      0.081667
     23 H6          0.9170    0.7290    0.9900 hn        1 9AL      0.232000
     24 H7         -1.7540    0.0550    0.5560 h1        1 9AL      0.133000
     25 H8         -0.7350    1.5540    2.4610 hc        1 9AL      0.086000
     26 H9         -0.9500    0.1270    3.1960 hc        1 9AL      0.086000
     27 H10        -3.0650    1.4620    1.7940 hc        1 9AL      0.077667
     28 H11        -3.2430    0.1340    2.6580 hc        1 9AL      0.077667
     29 H12        -2.9130    1.5170    3.3720 hc        1 9AL      0.077667
     30 H13        -2.3670   -2.2190    0.3900 ha        1 9AL      0.139000
     31 H14        -1.9380   -4.5340    0.7640 ha        1 9AL      0.133000
     32 H15        -0.0070   -5.1770    2.0080 ha        1 9AL      0.131500
     33 H16         1.4830   -3.5240    2.8730 ha        1 9AL      0.131500
     34 H17         1.0540   -1.1950    2.5000 ha        1 9AL      0.128000
     35 H2          1.0050    3.4670   -3.6310 hn        1 9AL      0.160000
     36 H19         1.0760    2.6610   -1.2550 h1        1 9AL      0.114000
     37 H20         2.9460    1.9330   -0.8490 ho        1 9AL      0.216000
@<TRIPOS>BOND
     1    1    2 1   
     2    1   18 1   
     3    1   35 1   
     4    2    3 1   
     5    2    5 1   
     6    2   19 1   
     7    3    4 1   
     8    3    6 1   
     9    3   36 1   
    10    4   37 1   
    11    5   20 1   
    12    5   21 1   
    13    5   22 1   
    14    6    7 1   
    15    6    8 1   
    16    8    9 1   
    17    8   23 1   
    18    9   10 1   
    19    9   12 1   
    20    9   24 1   
    21   10   11 1   
    22   10   25 1   
    23   10   26 1   
    24   11   27 1   
    25   11   28 1   
    26   11   29 1   
    27   12   13 1   
    28   12   17 1   
    29   13   14 1   
    30   13   30 1   
    31   14   31 1   
    32   15   16 1   
    33   15   32 1   
    34   16   33 1   
    35   17   34 1   
@<TRIPOS>SUBSTRUCTURE
     1 9AL         1 TEMP              0 ****  ****    0 ROOT
