@<TRIPOS>MOLECULE
9AM
   37    37     1     0     0
SMALL
bcc


@<TRIPOS>ATOM
      1 C1         -2.7990    0.1350   -1.7520 c         1 9AM      0.929800
      2 C2         -2.0320   -0.3550   -0.5180 ce        1 9AM      0.057900
      3 C3         -2.3930   -0.1990    0.7680 c2        1 9AM     -0.349200
      4 C4         -1.4790   -0.6530    1.8450 c3        1 9AM      0.186300
      5 C5         -0.0090   -0.3260    1.4420 c3        1 9AM      0.043700
      6 C6          0.2860   -0.7440   -0.0210 c3        1 9AM      0.098100
      7 C7          1.1360    0.3460   -0.7170 c3        1 9AM      0.107100
      8 C8          1.7820   -0.2460   -1.9820 c3        1 9AM      0.058100
      9 C9          2.4620    0.8620   -2.8080 c3        1 9AM      0.118800
     10 C11         2.8240   -0.9580    3.9430 c3        1 9AM     -0.177100
     11 N5          0.9260   -0.9250    2.3720 n         1 9AM     -0.549900
     12 O1A        -4.0110   -0.1710   -1.8540 o         1 9AM     -0.803800
     13 O1B        -2.1350    0.8450   -2.5580 o         1 9AM     -0.803800
     14 O4         -1.7690   -0.0690    3.1060 oh        1 9AM     -0.617800
     15 O6         -0.8530   -0.9980   -0.8460 os        1 9AM     -0.330900
     16 O7          0.3800    1.4920   -1.0250 oh        1 9AM     -0.617800
     17 O8          2.7230   -1.2580   -1.6500 oh        1 9AM     -0.611800
     18 N9          3.0990    0.4260   -4.0250 n3        1 9AM     -0.900800
     19 O10         2.5030    0.7510    2.2830 o         1 9AM     -0.620100
     20 H3         -3.3570    0.2360    1.0510 ha        1 9AM      0.155000
     21 H4         -1.6010   -1.7610    2.0250 h1        1 9AM      0.064700
     22 H5          0.1110    0.8010    1.4970 h1        1 9AM      0.093700
     23 H6          0.8530   -1.7190   -0.0630 h1        1 9AM      0.077700
     24 H7          1.9340    0.7050   -0.0040 h1        1 9AM      0.083700
     25 H8          0.9960   -0.7790   -2.5880 h1        1 9AM      0.103700
     26 H91         1.6830    1.6390   -3.0490 h1        1 9AM      0.065200
     27 H92         3.2490    1.3490   -2.1650 h1        1 9AM      0.065200
     28 H111        3.7400   -0.3590    4.1620 hc        1 9AM      0.058367
     29 H112        2.1890   -1.0010    4.8600 hc        1 9AM      0.058367
     30 H113        3.1270   -1.9940    3.6590 hc        1 9AM      0.058367
     31 HN5         0.5760   -1.6850    2.9070 hn        1 9AM      0.304500
     32 HO4        -1.9130    0.8740    2.9570 ho        1 9AM      0.405000
     33 HO7        -0.3740    1.2220   -1.5870 ho        1 9AM      0.463000
     34 HO8         3.3640   -0.8600   -1.0500 ho        1 9AM      0.392000
     35 HN91        3.6750   -0.3740   -3.8380 hn        1 9AM      0.340300
     36 HN92        2.4090    0.1580   -4.7000 hn        1 9AM      0.340300
     37 C10         2.0700   -0.2960    2.8100 c         1 9AM      0.651100
@<TRIPOS>BOND
     1    1    2 1   
     2    1   12 1   
     3    1   13 1   
     4    2    3 2   
     5    2   15 1   
     6    3    4 1   
     7    3   20 1   
     8    4    5 1   
     9    4   14 1   
    10    4   21 1   
    11    5    6 1   
    12    5   11 1   
    13    5   22 1   
    14    6    7 1   
    15    6   15 1   
    16    6   23 1   
    17    7    8 1   
    18    7   16 1   
    19    7   24 1   
    20    8    9 1   
    21    8   17 1   
    22    8   25 1   
    23    9   18 1   
    24    9   26 1   
    25    9   27 1   
    26   10   28 1   
    27   10   29 1   
    28   10   30 1   
    29   10   37 1   
    30   11   31 1   
    31   11   37 1   
    32   14   32 1   
    33   16   33 1   
    34   17   34 1   
    35   18   35 1   
    36   18   36 1   
    37   19   37 2   
@<TRIPOS>SUBSTRUCTURE
     1 9AM         1 TEMP              0 ****  ****    0 ROOT
