@<TRIPOS>MOLECULE
9AM
   39    38     1     0     0
SMALL
bcc


@<TRIPOS>ATOM
      1 C1         -2.3690   -1.6700   -5.3040 c1        1 9AM      0.442000
      2 C2          2.3200    0.2800    0.8450 c1        1 9AM      0.061000
      3 C3          3.3280    0.6740    1.8540 c3        1 9AM     -0.295000
      4 C4          4.7640    0.2630    1.5360 c3        1 9AM      0.005000
      5 C5          4.9190    0.2350   -0.0050 c3        1 9AM     -0.140000
      6 C6          3.9400   -0.8180   -0.5560 c3        1 9AM     -0.095000
      7 C7          4.0690   -1.0140   -2.0720 c3        1 9AM      0.023000
      8 C8          2.7840   -1.6190   -2.6950 c3        1 9AM      0.139000
      9 C9          2.8130   -1.3940   -4.1420 c2        1 9AM     -0.829000
     10 C11         8.4600    0.5240    0.8310 c3        1 9AM     -0.253000
     11 N5          6.3250   -0.0030   -0.4570 n4        1 9AM     -0.100000
     12 O1A        -3.5330   -1.8690   -5.3680 o         1 9AM     -0.220000
     13 O1B        -1.1920   -1.4680   -5.2390 o         1 9AM     -0.220000
     14 O4          5.7440    1.1090    2.1000 oh        1 9AM     -0.338000
     15 O6          2.5880   -0.3520   -0.2330 os        1 9AM     -0.055000
     16 O7          4.4600    0.2170   -2.6440 oh        1 9AM     -0.394000
     17 O8          2.7430   -2.9910   -2.3080 oh        1 9AM     -0.362000
     18 N9          1.6110   -1.2380   -4.8730 n4        1 9AM      0.127000
     19 O10         6.9910    2.2100   -0.1520 o         1 9AM     -0.183000
     20 H3          3.2510    1.7920    1.9720 hc        1 9AM      0.163000
     21 H4          3.0180    0.2300    2.8420 hc        1 9AM      0.163000
     22 H5          4.9900   -0.7570    1.9650 h1        1 9AM      0.135000
     23 H6          4.6310    1.2480   -0.4320 hx        1 9AM      0.181000
     24 H7          4.0540   -1.8140   -0.0490 h1        1 9AM      0.136000
     25 H8          4.9140   -1.7460   -2.2440 h1        1 9AM      0.071000
     26 H91         1.8780   -1.1660   -2.1950 h1        1 9AM      0.112000
     27 H92         3.6900   -1.6670   -4.7300 hx        1 9AM      0.149000
     28 H111        8.9090   -0.3790    0.3510 hc        1 9AM      0.152333
     29 H112        8.1320    0.2740    1.8760 hc        1 9AM      0.152333
     30 H113        9.2370    1.3330    0.8860 hc        1 9AM      0.152333
     31 HN5         6.3190    0.0430   -1.4910 hn        1 9AM      0.262000
     32 HO4         5.4010    2.0130    2.1400 ho        1 9AM      0.238000
     33 HO7         3.9440    0.3440   -3.4620 ho        1 9AM      0.274000
     34 HO8         3.1510   -3.5070   -3.0130 ho        1 9AM      0.207000
     35 HN91        1.1970   -2.1330   -5.1640 hn        1 9AM      0.195667
     36 HN92        1.7940   -0.6910   -5.7150 hn        1 9AM      0.195667
     37 C10         7.2840    1.0490    0.0810 c2        1 9AM      0.291000
     38 H52         6.6290   -0.9330   -0.1620 hn        1 9AM      0.262000
     39 H93         0.9080   -0.7530   -4.3090 hn        1 9AM      0.195667
@<TRIPOS>BOND
     1    1   12 1   
     2    1   13 1   
     3    2    3 1   
     4    2   15 1   
     5    3    4 1   
     6    3   20 1   
     7    3   21 1   
     8    4    5 1   
     9    4   14 1   
    10    4   22 1   
    11    5    6 1   
    12    5   11 1   
    13    5   23 1   
    14    6    7 1   
    15    6   15 1   
    16    6   24 1   
    17    7    8 1   
    18    7   16 1   
    19    7   25 1   
    20    8    9 1   
    21    8   17 1   
    22    8   26 1   
    23    9   18 1   
    24    9   27 1   
    25   10   28 1   
    26   10   29 1   
    27   10   30 1   
    28   10   37 1   
    29   11   31 1   
    30   11   37 1   
    31   11   38 1   
    32   14   32 1   
    33   16   33 1   
    34   17   34 1   
    35   18   35 1   
    36   18   36 1   
    37   18   39 1   
    38   19   37 1   
@<TRIPOS>SUBSTRUCTURE
     1 9AM         1 TEMP              0 ****  ****    0 ROOT
