@<TRIPOS>MOLECULE
9AM
   37    34     1     0     0
SMALL
bcc


@<TRIPOS>ATOM
      1 C1         -3.4110    1.0290    1.1640 c1        1 9AM      0.379000
      2 C2         -1.8650    0.9930    1.1400 c1        1 9AM      0.028000
      3 C3         -1.0940    0.9780    2.4300 c1        1 9AM     -0.371000
      4 C4          0.1500    0.9660    2.2880 c2        1 9AM      0.079000
      5 C5          0.6110    0.1790    0.8100 c3        1 9AM     -0.044000
      6 C6          0.1480    0.4950   -0.0020 c3        1 9AM     -0.042000
      7 C7          0.4200    0.0980   -0.6190 c3        1 9AM      0.018000
      8 C8          0.1600    1.0610   -2.0960 c3        1 9AM      0.010000
      9 C9          0.1800    0.1910   -3.2530 c3        1 9AM     -0.122000
     10 C10         1.2270   -2.2960    1.6830 c1        1 9AM      0.298000
     11 C11         0.9260   -3.7630    1.8630 c2        1 9AM     -0.242000
     12 N5          0.2940   -1.4490    0.9770 n3        1 9AM     -0.348000
     13 O1A        -4.0220    2.1120    0.9370 o         1 9AM     -0.534000
     14 O1B        -4.0620   -0.0140    1.4600 o         1 9AM     -0.534000
     15 O4          0.7430    2.3630    2.3910 oh        1 9AM     -0.339000
     16 O6         -1.1750    0.4250    0.0110 os        1 9AM     -0.214000
     17 O7          2.1110   -0.1760   -0.4140 oh        1 9AM     -0.336000
     18 O8         -0.9900    1.6650   -2.0270 oh        1 9AM     -0.349000
     19 N9          0.1760    0.9890   -4.4560 n3        1 9AM     -0.331000
     20 O10         2.2480   -1.8170    2.1580 o         1 9AM     -0.409000
     21 H3         -1.4890    1.3530    3.2380 ha        1 9AM      0.157000
     22 H4          0.5810    0.5220    3.0620 h4        1 9AM      0.110000
     23 H5          1.5790    0.2980    0.6830 h1        1 9AM      0.131000
     24 H6          0.3930    1.4480   -0.1300 h1        1 9AM      0.116000
     25 H7         -0.0480   -0.7570   -0.6940 h1        1 9AM      0.074000
     26 H8          0.8740    1.7290   -2.1790 h1        1 9AM      0.112000
     27 H91         0.9990   -0.3690   -3.2310 h1        1 9AM      0.098500
     28 H92        -0.6160   -0.3890   -3.2410 h1        1 9AM      0.098500
     29 H111        0.0160   -3.8690    2.1960 ha        1 9AM      0.101667
     30 H112        1.0150   -4.2210    1.0030 ha        1 9AM      0.101667
     31 H113        1.5610   -4.1530    2.5100 ha        1 9AM      0.101667
     32 HN5        -0.4910   -1.7880    0.6860 hn        1 9AM      0.236000
     33 HO4         0.8520    2.5760    3.2490 ho        1 9AM      0.205000
     34 HO7         2.4650   -0.4210   -1.1860 ho        1 9AM      0.221000
     35 HO8        -0.9610    2.4140   -2.5030 ho        1 9AM      0.253000
     36 HN91       -0.5010    0.6960   -5.0190 hn        1 9AM      0.142500
     37 HN92        0.9970    0.9050   -4.8870 hn        1 9AM      0.142500
@<TRIPOS>BOND
     1    1   13 1   
     2    1   14 1   
     3    2    3 1   
     4    2   16 1   
     5    3   21 1   
     6    4    5 1   
     7    4   15 1   
     8    4   22 1   
     9    5    6 1   
    10    5   12 1   
    11    5   23 1   
    12    6    7 1   
    13    6   16 1   
    14    6   24 1   
    15    7    8 1   
    16    7   17 1   
    17    7   25 1   
    18    8    9 1   
    19    8   18 1   
    20    8   26 1   
    21    9   19 1   
    22    9   27 1   
    23    9   28 1   
    24   10   12 1   
    25   10   20 1   
    26   11   29 1   
    27   11   30 1   
    28   11   31 1   
    29   12   32 1   
    30   15   33 1   
    31   17   34 1   
    32   18   35 1   
    33   19   36 1   
    34   19   37 1   
@<TRIPOS>SUBSTRUCTURE
     1 9AM         1 TEMP              0 ****  ****    0 ROOT
