@<TRIPOS>MOLECULE
9AM
   39    38     1     0     0
SMALL
bcc


@<TRIPOS>ATOM
      1 C1         -0.8040   -0.6900   -0.2290 c1        1 9AM      0.442000
      2 C2          1.7540   -0.5330    0.3340 c1        1 9AM      0.037000
      3 C3          2.5850    0.2830    1.2400 c3        1 9AM     -0.291000
      4 C4          4.0840    0.0540    1.0930 c3        1 9AM      0.003000
      5 C5          4.4070   -0.1930   -0.4070 c3        1 9AM     -0.137000
      6 C6          3.6470   -1.4490   -0.8680 c3        1 9AM     -0.088000
      7 C7          3.7270   -1.7740   -2.3690 c3        1 9AM     -0.012000
      8 C8          3.0250   -0.7150   -3.2750 c3        1 9AM      0.126000
      9 C9          3.7980   -0.5280   -4.5210 c2        1 9AM     -0.755000
     10 C11         7.8180    0.8180    0.5620 c3        1 9AM     -0.254000
     11 N5          5.8810   -0.3160   -0.6370 ny        1 9AM     -0.104000
     12 O1A        -1.1570   -0.8650    0.8920 o         1 9AM     -0.224500
     13 O1B        -0.5150   -0.5140   -1.3730 o         1 9AM     -0.224500
     14 O4          4.8760    1.1180    1.5770 oh        1 9AM     -0.333000
     15 O6          2.2190   -1.2790   -0.5930 os        1 9AM     -0.068000
     16 O7          5.0960   -1.9380   -2.6890 oh        1 9AM     -0.401000
     17 O8          1.7140   -1.1830   -3.5610 oh        1 9AM     -0.352000
     18 N9          3.3320   -1.1000   -5.7400 nz        1 9AM      0.105000
     19 O10         6.1640    1.9920   -0.7970 o         1 9AM     -0.191000
     20 H3          2.3200    1.3640    1.0570 hc        1 9AM      0.169000
     21 H4          2.2700    0.0570    2.3000 hc        1 9AM      0.169000
     22 H5          4.4060   -0.8400    1.7050 h1        1 9AM      0.138000
     23 H6          4.0650    0.7030   -1.0110 hx        1 9AM      0.171000
     24 H7          3.9780   -2.3440   -0.2730 h1        1 9AM      0.129000
     25 H8          3.2110   -2.7670   -2.5200 h1        1 9AM      0.124000
     26 H91         2.9680    0.2560   -2.7050 h1        1 9AM      0.045000
     27 H92         4.3370    0.4160   -4.6470 hx        1 9AM      0.134000
     28 H111        8.4380   -0.0730    0.2940 hc        1 9AM      0.153000
     29 H112        8.4480    1.7420    0.4680 hc        1 9AM      0.153000
     30 H113        7.4700    0.7290    1.6270 hc        1 9AM      0.153000
     31 HN5         6.0210   -0.5590   -1.6410 hn        1 9AM      0.270000
     32 HO4         4.4080    1.9530    1.4350 ho        1 9AM      0.238000
     33 HO7         5.1890   -1.6720   -3.6350 ho        1 9AM      0.277000
     34 HO8         1.1930   -1.1160   -2.7480 ho        1 9AM      0.233000
     35 HN91        2.8450   -1.9760   -5.5350 hn        1 9AM      0.202333
     36 HN92        4.1300   -1.2840   -6.3470 hn        1 9AM      0.202333
     37 C10         6.6220    0.9680   -0.3140 c2        1 9AM      0.289000
     38 H52         6.2480   -1.0830   -0.0690 hn        1 9AM      0.270000
     39 H93         2.6770   -0.4880   -6.2410 hn        1 9AM      0.202333
@<TRIPOS>BOND
     1    1   12 1   
     2    1   13 1   
     3    2    3 1   
     4    2   15 1   
     5    3    4 1   
     6    3   20 1   
     7    3   21 1   
     8    4    5 1   
     9    4   14 1   
    10    4   22 1   
    11    5    6 1   
    12    5   11 1   
    13    5   23 1   
    14    6    7 1   
    15    6   15 1   
    16    6   24 1   
    17    7    8 1   
    18    7   16 1   
    19    7   25 1   
    20    8    9 1   
    21    8   17 1   
    22    8   26 1   
    23    9   18 1   
    24    9   27 1   
    25   10   28 1   
    26   10   29 1   
    27   10   30 1   
    28   10   37 1   
    29   11   31 1   
    30   11   37 1   
    31   11   38 1   
    32   14   32 1   
    33   16   33 1   
    34   17   34 1   
    35   18   35 1   
    36   18   36 1   
    37   18   39 1   
    38   19   37 1   
@<TRIPOS>SUBSTRUCTURE
     1 9AM         1 TEMP              0 ****  ****    0 ROOT
