@<TRIPOS>MOLECULE
9AM
   39    38     1     0     0
SMALL
bcc


@<TRIPOS>ATOM
      1 C1         -2.5470   -1.3040   -5.1790 c1        1 9AM      0.442000
      2 C2          2.3870    0.1020    0.9580 c1        1 9AM      0.061000
      3 C3          3.4350    0.4140    1.9550 c3        1 9AM     -0.295000
      4 C4          4.8590    0.0480    1.5420 c3        1 9AM      0.005000
      5 C5          4.9480    0.1580   -0.0010 c3        1 9AM     -0.140000
      6 C6          3.9520   -0.8520   -0.6020 c3        1 9AM     -0.095000
      7 C7          4.0170   -0.9120   -2.1340 c3        1 9AM      0.023000
      8 C8          2.7110   -1.4720   -2.7520 c3        1 9AM      0.139000
      9 C9          2.6780   -1.1200   -4.1750 c2        1 9AM     -0.829000
     10 C11         8.5190    0.4070    0.7080 c3        1 9AM     -0.253000
     11 N5          6.3350   -0.0250   -0.5300 n4        1 9AM     -0.100000
     12 O1A        -3.7130   -1.4950   -5.2270 o         1 9AM     -0.220000
     13 O1B        -1.3680   -1.1110   -5.1320 o         1 9AM     -0.220000
     14 O4          5.8560    0.8500    2.1370 oh        1 9AM     -0.338000
     15 O6          2.6130   -0.4290   -0.1820 os        1 9AM     -0.055000
     16 O7          4.3770    0.3690   -2.6100 oh        1 9AM     -0.394000
     17 O8          2.6940   -2.8730   -2.4870 oh        1 9AM     -0.362000
     18 N9          1.4440   -0.9110   -4.8370 n4        1 9AM      0.127000
     19 O10         6.9990    2.1580   -0.0580 o         1 9AM     -0.183000
     20 H3          3.3560    1.5170    2.1750 hc        1 9AM      0.163000
     21 H4          3.1700   -0.1180    2.9120 hc        1 9AM      0.163000
     22 H5          5.1090   -1.0040    1.8680 h1        1 9AM      0.135000
     23 H6          4.6350    1.2020   -0.3230 hx        1 9AM      0.181000
     24 H7          4.0940   -1.8880   -0.1910 h1        1 9AM      0.136000
     25 H8          4.8590   -1.6170   -2.4040 h1        1 9AM      0.071000
     26 H91         1.8250   -1.0730   -2.1780 h1        1 9AM      0.113000
     27 H92         3.5300   -1.3320   -4.8200 hx        1 9AM      0.149000
     28 H111        8.9540   -0.4460    0.1310 hc        1 9AM      0.152333
     29 H112        9.2930    1.2150    0.8020 hc        1 9AM      0.152333
     30 H113        8.2380    0.0610    1.7400 hc        1 9AM      0.152333
     31 HN5         6.2830    0.1120   -1.5560 hn        1 9AM      0.262000
     32 HO4         5.5100    1.7430    2.2710 ho        1 9AM      0.238000
     33 HO7         3.8250    0.5630   -3.3910 ho        1 9AM      0.274000
     34 HO8         3.0740   -3.3210   -3.2510 ho        1 9AM      0.207000
     35 HN91        1.0240   -1.7810   -5.1890 hn        1 9AM      0.195667
     36 HN92        0.7630   -0.4840   -4.2050 hn        1 9AM      0.195667
     37 C10         7.3090    0.9840    0.0580 c2        1 9AM      0.291000
     38 H52         6.6560   -0.9750   -0.3330 hn        1 9AM      0.262000
     39 H93         1.5890   -0.2910   -5.6350 hn        1 9AM      0.195667
@<TRIPOS>BOND
     1    1   12 1   
     2    1   13 1   
     3    2    3 1   
     4    2   15 1   
     5    3    4 1   
     6    3   20 1   
     7    3   21 1   
     8    4    5 1   
     9    4   14 1   
    10    4   22 1   
    11    5    6 1   
    12    5   11 1   
    13    5   23 1   
    14    6    7 1   
    15    6   15 1   
    16    6   24 1   
    17    7    8 1   
    18    7   16 1   
    19    7   25 1   
    20    8    9 1   
    21    8   17 1   
    22    8   26 1   
    23    9   18 1   
    24    9   27 1   
    25   10   28 1   
    26   10   29 1   
    27   10   30 1   
    28   10   37 1   
    29   11   31 1   
    30   11   37 1   
    31   11   38 1   
    32   14   32 1   
    33   16   33 1   
    34   17   34 1   
    35   18   35 1   
    36   18   36 1   
    37   18   39 1   
    38   19   37 1   
@<TRIPOS>SUBSTRUCTURE
     1 9AM         1 TEMP              0 ****  ****    0 ROOT
