@<TRIPOS>MOLECULE
9AP
   26    28     1     0     0
SMALL
bcc


@<TRIPOS>ATOM
      1 C1         -0.0290   -0.0110   -0.0350 ca        1 9AP     -0.134000
      2 C2          1.3510   -0.0480   -0.0210 ca        1 9AP     -0.115000
      3 C3         -0.0580    0.0470    2.3740 ca        1 9AP     -0.125000
      4 C4          2.0710   -0.0280    1.1960 ca        1 9AP     -0.047000
      5 C5         -0.7400    0.0430    1.1740 ca        1 9AP     -0.122000
      6 C6          1.3560    0.0050    2.4190 ca        1 9AP      0.003000
      7 C7          3.5290   -0.0460    1.2200 ca        1 9AP      0.147600
      8 C8          4.1840   -0.0580    2.4330 ca        1 9AP     -0.211000
      9 N1          4.2520   -0.1250    0.0210 nv        1 9AP     -0.814200
     10 C9          3.4750   -0.0560    3.6700 ca        1 9AP      0.005000
     11 C10         4.1870   -0.0850    4.8930 ca        1 9AP     -0.131000
     12 C11         2.0620   -0.0140    3.6800 ca        1 9AP     -0.049000
     13 C12         3.5150   -0.0700    6.0970 ca        1 9AP     -0.118000
     14 C13         2.1090   -0.0260    6.1130 ca        1 9AP     -0.143000
     15 C14         1.3990    0.0010    4.9290 ca        1 9AP     -0.107000
     16 H1         -0.5760   -0.0290   -0.9890 ha        1 9AP      0.133000
     17 H2          1.8770   -0.1110   -0.9850 ha        1 9AP      0.131000
     18 H3         -0.6350    0.0830    3.3100 ha        1 9AP      0.134000
     19 H5         -1.8390    0.0760    1.1590 ha        1 9AP      0.133000
     20 H8          5.2850   -0.0750    2.4830 ha        1 9AP      0.132000
     21 HN11        5.2230    0.0760    0.1250 hn        1 9AP      0.387800
     22 HN12        3.8410    0.3660   -0.7420 hn        1 9AP      0.387800
     23 H10         5.2870   -0.1200    4.8670 ha        1 9AP      0.131000
     24 H12         4.0680   -0.0930    7.0470 ha        1 9AP      0.131000
     25 H13         1.5790   -0.0140    7.0760 ha        1 9AP      0.131000
     26 H14         0.3010    0.0330    4.9720 ha        1 9AP      0.129000
@<TRIPOS>BOND
     1    1    2 ar  
     2    1    5 ar  
     3    1   16 1   
     4    2    4 ar  
     5    2   17 1   
     6    3    5 ar  
     7    3    6 ar  
     8    3   18 1   
     9    4    6 ar  
    10    4    7 ar  
    11    5   19 1   
    12    6   12 ar  
    13    7    8 ar  
    14    7    9 1   
    15    8   10 ar  
    16    8   20 1   
    17    9   21 1   
    18    9   22 1   
    19   10   11 ar  
    20   10   12 ar  
    21   11   13 ar  
    22   11   23 1   
    23   12   15 ar  
    24   13   14 ar  
    25   13   24 1   
    26   14   15 ar  
    27   14   25 1   
    28   15   26 1   
@<TRIPOS>SUBSTRUCTURE
     1 9AP         1 TEMP              0 ****  ****    0 ROOT
