@<TRIPOS>MOLECULE
9AP
   26    22     1     0     0
SMALL
bcc


@<TRIPOS>ATOM
      1 C1         -2.2410   -0.0010   -2.6370 c1        1 9AP     -0.126250
      2 C2         -0.8520   -0.0010   -2.6370 c1        1 9AP     -0.115000
      3 C3         -2.2440   -0.0010   -0.2280 c1        1 9AP     -0.168000
      4 C4         -0.1480   -0.0010   -1.4190 c1        1 9AP     -0.047000
      5 C5         -2.9380   -0.0010   -1.4310 c1        1 9AP     -0.126250
      6 C6         -0.8370   -0.0010   -0.2260 c1        1 9AP      0.004000
      7 C7          1.2650   -0.0010   -1.4180 c1        1 9AP      0.066000
      8 C8          1.9600   -0.0010   -0.2130 c1        1 9AP     -0.168000
      9 N1          2.1880    0.0040   -2.4950 n3        1 9AP     -0.323000
     10 C9          1.2550   -0.0010    1.0110 c1        1 9AP      0.004000
     11 C10         1.9580   -0.0010    2.2290 c1        1 9AP     -0.126250
     12 C11        -0.1230   -0.0010    1.0110 c2        1 9AP     -0.049000
     13 C12         1.2630   -0.0010    3.4320 c1        1 9AP     -0.126250
     14 C13        -0.1290   -0.0010    3.4330 c1        1 9AP     -0.143000
     15 C14        -0.8250   -0.0010    2.2300 c2        1 9AP     -0.107000
     16 H1         -2.7290   -0.0010   -3.4820 ha        1 9AP      0.132000
     17 H2         -0.3640   -0.0010   -3.4820 ha        1 9AP      0.131000
     18 H3         -2.7330   -0.0010    0.6170 ha        1 9AP      0.133000
     19 H5         -3.9140   -0.0010   -1.4320 ha        1 9AP      0.132000
     20 H8          2.9360   -0.0010   -0.2130 ha        1 9AP      0.133000
     21 HN11        2.4900    0.7950   -2.8330 hn        1 9AP      0.183000
     22 HN12        2.4930   -0.7840   -2.8370 hn        1 9AP      0.183000
     23 H10         2.9340   -0.0010    2.2290 ha        1 9AP      0.132000
     24 H12         1.7510   -0.0010    4.2780 ha        1 9AP      0.132000
     25 H13        -0.6170   -0.0010    4.2790 ha        1 9AP      0.131000
     26 H14        -1.8010   -0.0010    2.2310 ha        1 9AP      0.129000
@<TRIPOS>BOND
     1    1    5 1   
     2    1   16 1   
     3    2    4 1   
     4    2   17 1   
     5    3    6 1   
     6    3   18 1   
     7    4    7 1   
     8    5   19 1   
     9    6   12 1   
    10    7    9 1   
    11    8   10 1   
    12    8   20 1   
    13    9   21 1   
    14    9   22 1   
    15   10   12 1   
    16   11   13 1   
    17   11   23 1   
    18   12   15 1   
    19   13   24 1   
    20   14   15 1   
    21   14   25 1   
    22   15   26 1   
@<TRIPOS>SUBSTRUCTURE
     1 9AP         1 TEMP              0 ****  ****    0 ROOT
