@<TRIPOS>MOLECULE
9AP
   26    28     1     0     0
SMALL
bcc


@<TRIPOS>ATOM
      1 C1         -0.0290   -0.0090   -0.0330 ca        1 9AP     -0.134000
      2 C2          1.3520   -0.0440   -0.0190 ca        1 9AP     -0.115000
      3 C3         -0.0570    0.0470    2.3760 ca        1 9AP     -0.125000
      4 C4          2.0720   -0.0250    1.1970 ca        1 9AP     -0.047000
      5 C5         -0.7390    0.0440    1.1760 ca        1 9AP     -0.122000
      6 C6          1.3570    0.0050    2.4200 ca        1 9AP      0.003000
      7 C7          3.5300   -0.0430    1.2200 ca        1 9AP      0.147600
      8 C8          4.1860   -0.0560    2.4330 ca        1 9AP     -0.211000
      9 N1          4.2530   -0.1200    0.0210 nh        1 9AP     -0.814200
     10 C9          3.4770   -0.0560    3.6710 ca        1 9AP      0.005000
     11 C10         4.1890   -0.0860    4.8940 ca        1 9AP     -0.131000
     12 C11         2.0640   -0.0150    3.6810 ca        1 9AP     -0.049000
     13 C12         3.5170   -0.0720    6.0980 ca        1 9AP     -0.118000
     14 C13         2.1120   -0.0290    6.1140 ca        1 9AP     -0.143000
     15 C14         1.4010   -0.0010    4.9300 ca        1 9AP     -0.107000
     16 H1         -0.5760   -0.0250   -0.9870 ha        1 9AP      0.133000
     17 H2          1.8770   -0.1060   -0.9840 ha        1 9AP      0.131000
     18 H3         -0.6340    0.0810    3.3120 ha        1 9AP      0.134000
     19 H5         -1.8390    0.0770    1.1610 ha        1 9AP      0.133000
     20 H8          5.2860   -0.0730    2.4830 ha        1 9AP      0.132000
     21 HN11        5.2240    0.0800    0.1260 hn        1 9AP      0.387800
     22 HN12        3.8410    0.3710   -0.7410 hn        1 9AP      0.387800
     23 H10         5.2890   -0.1210    4.8670 ha        1 9AP      0.131000
     24 H12         4.0710   -0.0960    7.0470 ha        1 9AP      0.131000
     25 H13         1.5820   -0.0180    7.0770 ha        1 9AP      0.131000
     26 H14         0.3030    0.0310    4.9730 ha        1 9AP      0.129000
@<TRIPOS>BOND
     1    1    2 ar  
     2    1    5 ar  
     3    1   16 1   
     4    2    4 ar  
     5    2   17 1   
     6    3    5 ar  
     7    3    6 ar  
     8    3   18 1   
     9    4    6 ar  
    10    4    7 ar  
    11    5   19 1   
    12    6   12 ar  
    13    7    8 ar  
    14    7    9 1   
    15    8   10 ar  
    16    8   20 1   
    17    9   21 1   
    18    9   22 1   
    19   10   11 ar  
    20   10   12 ar  
    21   11   13 ar  
    22   11   23 1   
    23   12   15 ar  
    24   13   14 ar  
    25   13   24 1   
    26   14   15 ar  
    27   14   25 1   
    28   15   26 1   
@<TRIPOS>SUBSTRUCTURE
     1 9AP         1 TEMP              0 ****  ****    0 ROOT
