@<TRIPOS>MOLECULE
9AP
   26    28     1     0     0
SMALL
bcc


@<TRIPOS>ATOM
      1 C1         -1.0540    0.0490   -3.3280 ca        1 9AP     -0.134000
      2 C2          0.2190    0.0720   -2.7950 ca        1 9AP     -0.115000
      3 C3         -1.9890   -0.0340   -1.1080 ca        1 9AP     -0.125000
      4 C4          0.4280    0.0320   -1.3970 ca        1 9AP     -0.047000
      5 C5         -2.1680   -0.0110   -2.4760 ca        1 9AP     -0.122000
      6 C6         -0.6950   -0.0050   -0.5340 ca        1 9AP      0.003000
      7 C7          1.7700    0.0370   -0.8260 ca        1 9AP      0.147600
      8 C8          1.9200    0.0300    0.5450 ca        1 9AP     -0.211000
      9 N1          2.8910    0.1210   -1.6630 nh        1 9AP     -0.814200
     10 C9          0.7970    0.0230    1.4240 ca        1 9AP      0.005000
     11 C10         0.9960    0.0320    2.8250 ca        1 9AP     -0.131000
     12 C11        -0.5150   -0.0060    0.9000 ca        1 9AP     -0.049000
     13 C12        -0.0800    0.0120    3.6870 ca        1 9AP     -0.118000
     14 C13        -1.3880   -0.0190    3.1720 ca        1 9AP     -0.143000
     15 C14        -1.6000   -0.0280    1.8070 ca        1 9AP     -0.107000
     16 H1         -1.2020    0.0810   -4.4180 ha        1 9AP      0.133000
     17 H2          1.0690    0.1400   -3.4900 ha        1 9AP      0.131000
     18 H3         -2.8760   -0.0730   -0.4590 ha        1 9AP      0.134000
     19 H5         -3.1820   -0.0340   -2.9050 ha        1 9AP      0.133000
     20 H8          2.9200    0.0360    1.0060 ha        1 9AP      0.132000
     21 HN11        3.7510   -0.0900   -1.2030 hn        1 9AP      0.387800
     22 HN12        2.7950   -0.3580   -2.5310 hn        1 9AP      0.387800
     23 H10         2.0250    0.0580    3.2150 ha        1 9AP      0.131000
     24 H12         0.0750    0.0200    4.7760 ha        1 9AP      0.131000
     25 H13        -2.2420   -0.0350    3.8650 ha        1 9AP      0.131000
     26 H14        -2.6340   -0.0500    1.4330 ha        1 9AP      0.129000
@<TRIPOS>BOND
     1    1    2 ar  
     2    1    5 ar  
     3    1   16 1   
     4    2    4 ar  
     5    2   17 1   
     6    3    5 ar  
     7    3    6 ar  
     8    3   18 1   
     9    4    6 ar  
    10    4    7 ar  
    11    5   19 1   
    12    6   12 ar  
    13    7    8 ar  
    14    7    9 1   
    15    8   10 ar  
    16    8   20 1   
    17    9   21 1   
    18    9   22 1   
    19   10   11 ar  
    20   10   12 ar  
    21   11   13 ar  
    22   11   23 1   
    23   12   15 ar  
    24   13   14 ar  
    25   13   24 1   
    26   14   15 ar  
    27   14   25 1   
    28   15   26 1   
@<TRIPOS>SUBSTRUCTURE
     1 9AP         1 TEMP              0 ****  ****    0 ROOT
