@<TRIPOS>MOLECULE
9AP
   27    29     1     0     0
SMALL
bcc


@<TRIPOS>ATOM
      1 C1         -0.0000   -0.0060   -0.0390 ca        1 9AP     -0.078000
      2 C2          1.3810   -0.0020   -0.0160 ca        1 9AP     -0.166000
      3 C3         -0.0520   -0.0180    2.3750 ca        1 9AP     -0.095000
      4 C4          2.0830   -0.0050    1.2110 ca        1 9AP     -0.036000
      5 C5         -0.7220   -0.0140    1.1670 ca        1 9AP     -0.104000
      6 C6          1.3620   -0.0130    2.4320 ca        1 9AP     -0.002000
      7 C7          3.5270   -0.0010    1.2760 ca        1 9AP     -0.081400
      8 C8          4.2020   -0.0040    2.4710 ca        1 9AP     -0.022000
      9 N1          4.2770    0.0080    0.0190 n4        1 9AP     -0.698000
     10 C9          3.4840   -0.0130    3.7010 ca        1 9AP     -0.074000
     11 C10         4.1920   -0.0160    4.9280 ca        1 9AP     -0.095000
     12 C11         2.0660   -0.0170    3.6950 ca        1 9AP      0.019000
     13 C12         3.5090   -0.0240    6.1260 ca        1 9AP     -0.110000
     14 C13         2.1010   -0.0290    6.1280 ca        1 9AP     -0.074000
     15 C14         1.3950   -0.0250    4.9390 ca        1 9AP     -0.127000
     16 H1         -0.5420   -0.0030   -0.9990 ha        1 9AP      0.159000
     17 H2          1.9100    0.0050   -0.9790 ha        1 9AP      0.111000
     18 H3         -0.6400   -0.0240    3.3070 ha        1 9AP      0.157000
     19 H5         -1.8240   -0.0180    1.1420 ha        1 9AP      0.163000
     20 H8          5.3060   -0.0010    2.5260 ha        1 9AP      0.151000
     21 HN11        4.0300   -0.8270   -0.5270 hn        1 9AP      0.461133
     22 HN12        4.0250    0.8450   -0.5190 hn        1 9AP      0.461133
     23 H10         5.2930   -0.0130    4.9130 ha        1 9AP      0.147000
     24 H12         4.0550   -0.0270    7.0820 ha        1 9AP      0.161000
     25 H13         1.5620   -0.0350    7.0900 ha        1 9AP      0.160000
     26 H14         0.2950   -0.0290    4.9770 ha        1 9AP      0.153000
     27 H131        5.2850    0.0100    0.2020 hn        1 9AP      0.461133
@<TRIPOS>BOND
     1    1    2 ar  
     2    1    5 ar  
     3    1   16 1   
     4    2    4 ar  
     5    2   17 1   
     6    3    5 ar  
     7    3    6 ar  
     8    3   18 1   
     9    4    6 ar  
    10    4    7 ar  
    11    5   19 1   
    12    6   12 ar  
    13    7    8 ar  
    14    7    9 1   
    15    8   10 ar  
    16    8   20 1   
    17    9   21 1   
    18    9   22 1   
    19    9   27 1   
    20   10   11 ar  
    21   10   12 ar  
    22   11   13 ar  
    23   11   23 1   
    24   12   15 ar  
    25   13   14 ar  
    26   13   24 1   
    27   14   15 ar  
    28   14   25 1   
    29   15   26 1   
@<TRIPOS>SUBSTRUCTURE
     1 9AP         1 TEMP              0 ****  ****    0 ROOT
