@<TRIPOS>MOLECULE
9AR
   36    39     1     0     0
SMALL
bcc


@<TRIPOS>ATOM
      1 C1          0.0700    0.0780   -0.0370 ca        1 9AR     -0.081600
      2 C2          1.4640   -0.0570   -0.0710 ca        1 9AR     -0.089000
      3 C3          2.1060   -0.2820    1.1330 ca        1 9AR      0.058100
      4 C4          1.4110   -0.3190    2.3570 ca        1 9AR      0.015100
      5 C5          0.0230   -0.1880    2.4320 ca        1 9AR     -0.005000
      6 C6         -0.6540   -0.0900    1.1660 ca        1 9AR     -0.014000
      7 C7         -0.7040   -0.1000    3.6780 ca        1 9AR     -0.019000
      8 C8         -2.1120    0.0130    3.6430 ca        1 9AR     -0.013000
      9 C9         -2.7960   -0.0670    2.3890 ca        1 9AR     -0.109000
     10 C10        -2.0980   -0.1690    1.2180 ca        1 9AR     -0.056200
     11 C11        -0.0570   -0.0800    4.9330 ca        1 9AR     -0.085000
     12 C12        -0.7670    0.0680    6.1070 ca        1 9AR     -0.202000
     13 C13        -2.1710    0.1940    6.0740 ca        1 9AR      0.082100
     14 C14        -2.8440    0.1570    4.8500 ca        1 9AR      0.076100
     15 C15         3.6400   -0.5860    2.7850 c3        1 9AR      0.323200
     16 C16        -0.5320    0.5650   -1.3720 c         1 9AR      0.912200
     17 C17        -4.8240    1.4020    5.1390 c3        1 9AR      0.114700
     18 O1         -4.2290    0.1520    4.7860 os        1 9AR     -0.329900
     19 O2          3.4730   -0.4480    1.3620 os        1 9AR     -0.339900
     20 O3          2.3370   -0.4940    3.3940 os        1 9AR     -0.357900
     21 O4         -1.3780    1.4950   -1.3030 o         1 9AR     -0.797300
     22 O5         -0.0670    0.0600   -2.4240 o         1 9AR     -0.797300
     23 O6         -2.9180    0.3740    7.2200 oh        1 9AR     -0.498100
     24 O7         -2.5800   -1.3810   -0.7120 o         1 9AR     -0.200000
     25 O8         -3.9510    0.1140   -0.1570 o         1 9AR     -0.200000
     26 N1         -2.9140   -0.4740   -0.0040 no        1 9AR      0.331200
     27 H21         1.9980    0.0180   -1.0310 ha        1 9AR      0.183000
     28 H91        -3.9010   -0.0740    2.4130 ha        1 9AR      0.170000
     29 H111        1.0390   -0.1740    4.9910 ha        1 9AR      0.159000
     30 H121       -0.2460    0.0890    7.0750 ha        1 9AR      0.126000
     31 H151        4.0670   -1.5960    3.0020 h2        1 9AR      0.054200
     32 H152        4.2700    0.2590    3.1580 h2        1 9AR      0.054200
     33 H171       -4.5630    1.6730    6.1910 h1        1 9AR      0.041367
     34 H172       -4.4940    2.2020    4.4330 h1        1 9AR      0.041367
     35 H173       -5.9200    1.2090    5.0360 h1        1 9AR      0.041367
     36 H61        -2.3100    0.3240    7.9710 ho        1 9AR      0.411000
@<TRIPOS>BOND
     1    1    2 ar  
     2    1    6 ar  
     3    1   16 1   
     4    2    3 ar  
     5    2   27 1   
     6    3    4 ar  
     7    3   19 1   
     8    4    5 ar  
     9    4   20 1   
    10    5    6 ar  
    11    5    7 ar  
    12    6   10 ar  
    13    7    8 ar  
    14    7   11 ar  
    15    8    9 ar  
    16    8   14 ar  
    17    9   10 ar  
    18    9   28 1   
    19   10   26 1   
    20   11   12 ar  
    21   11   29 1   
    22   12   13 ar  
    23   12   30 1   
    24   13   14 ar  
    25   13   23 1   
    26   14   18 1   
    27   15   19 1   
    28   15   20 1   
    29   15   31 1   
    30   15   32 1   
    31   16   21 1   
    32   16   22 1   
    33   17   18 1   
    34   17   33 1   
    35   17   34 1   
    36   17   35 1   
    37   23   36 1   
    38   24   26 1   
    39   25   26 1   
@<TRIPOS>SUBSTRUCTURE
     1 9AR         1 TEMP              0 ****  ****    0 ROOT
