@<TRIPOS>MOLECULE
9AR
   36    39     1     0     0
SMALL
bcc


@<TRIPOS>ATOM
      1 C1          0.0810    0.0900   -0.0330 ca        1 9AR     -0.081600
      2 C2          1.4750   -0.0520   -0.0620 ca        1 9AR     -0.089000
      3 C3          2.1110   -0.2870    1.1430 ca        1 9AR      0.058100
      4 C4          1.4110   -0.3280    2.3630 ca        1 9AR      0.015100
      5 C5          0.0230   -0.1900    2.4340 ca        1 9AR     -0.005000
      6 C6         -0.6480   -0.0820    1.1660 ca        1 9AR     -0.014000
      7 C7         -0.7080   -0.1060    3.6770 ca        1 9AR     -0.019000
      8 C8         -2.1160    0.0130    3.6380 ca        1 9AR     -0.013000
      9 C9         -2.7950   -0.0560    2.3810 ca        1 9AR     -0.109000
     10 C10        -2.0930   -0.1540    1.2120 ca        1 9AR     -0.056200
     11 C11        -0.0660   -0.0960    4.9360 ca        1 9AR     -0.085000
     12 C12        -0.7800    0.0490    6.1080 ca        1 9AR     -0.202000
     13 C13        -2.1830    0.1820    6.0690 ca        1 9AR      0.082100
     14 C14        -2.8520    0.1550    4.8430 ca        1 9AR      0.076100
     15 C15         3.6370   -0.6070    2.7990 c3        1 9AR      0.323200
     16 C16        -0.5130    0.5870   -1.3680 c         1 9AR      0.912200
     17 C17        -4.8270    1.4070    5.1310 c3        1 9AR      0.114700
     18 O1         -4.2360    0.1570    4.7740 os        1 9AR     -0.329900
     19 O2          3.4760   -0.4600    1.3760 os        1 9AR     -0.339900
     20 O3          2.3320   -0.5130    3.4040 os        1 9AR     -0.357900
     21 O4         -1.3550    1.5200   -1.2970 o         1 9AR     -0.797300
     22 O5         -0.0470    0.0860   -2.4210 o         1 9AR     -0.797300
     23 O6         -2.9340    0.3590    7.2130 oh        1 9AR     -0.498100
     24 O7         -2.5730   -1.3530   -0.7270 o         1 9AR     -0.200000
     25 O8         -3.9390    0.1450   -0.1690 o         1 9AR     -0.200000
     26 N1         -2.9050   -0.4490   -0.0150 no        1 9AR      0.331200
     27 H21         2.0130    0.0260   -1.0200 ha        1 9AR      0.183000
     28 H91        -3.9000   -0.0580    2.4000 ha        1 9AR      0.170000
     29 H111        1.0300   -0.1950    4.9970 ha        1 9AR      0.159000
     30 H121       -0.2630    0.0620    7.0770 ha        1 9AR      0.126000
     31 H151        4.0590   -1.6200    3.0120 h2        1 9AR      0.054200
     32 H152        4.2700    0.2330    3.1790 h2        1 9AR      0.054200
     33 H171       -4.5690    1.6710    6.1850 h1        1 9AR      0.041367
     34 H172       -4.4910    2.2090    4.4310 h1        1 9AR      0.041367
     35 H173       -5.9240    1.2190    5.0220 h1        1 9AR      0.041367
     36 H61        -2.3290    0.3020    7.9670 ho        1 9AR      0.411000
@<TRIPOS>BOND
     1    1    2 ar  
     2    1    6 ar  
     3    1   16 1   
     4    2    3 ar  
     5    2   27 1   
     6    3    4 ar  
     7    3   19 1   
     8    4    5 ar  
     9    4   20 1   
    10    5    6 ar  
    11    5    7 ar  
    12    6   10 ar  
    13    7    8 ar  
    14    7   11 ar  
    15    8    9 ar  
    16    8   14 ar  
    17    9   10 ar  
    18    9   28 1   
    19   10   26 1   
    20   11   12 ar  
    21   11   29 1   
    22   12   13 ar  
    23   12   30 1   
    24   13   14 ar  
    25   13   23 1   
    26   14   18 1   
    27   15   19 1   
    28   15   20 1   
    29   15   31 1   
    30   15   32 1   
    31   16   21 1   
    32   16   22 1   
    33   17   18 1   
    34   17   33 1   
    35   17   34 1   
    36   17   35 1   
    37   23   36 1   
    38   24   26 1   
    39   25   26 1   
@<TRIPOS>SUBSTRUCTURE
     1 9AR         1 TEMP              0 ****  ****    0 ROOT
