@<TRIPOS>MOLECULE
9AR
   36    39     1     0     0
SMALL
bcc


@<TRIPOS>ATOM
      1 C1          0.0760    0.2260    2.3850 ca        1 9AR     -0.080600
      2 C2         -1.1600    0.2310    3.0450 ca        1 9AR     -0.090000
      3 C3         -2.2870    0.0080    2.2750 ca        1 9AR      0.060100
      4 C4         -2.2190   -0.1590    0.8790 ca        1 9AR      0.015100
      5 C5         -1.0090   -0.1670    0.1840 ca        1 9AR     -0.002000
      6 C6          0.1690   -0.0750    1.0070 ca        1 9AR     -0.019000
      7 C7         -0.9120   -0.2010   -1.2570 ca        1 9AR     -0.021000
      8 C8          0.3680   -0.1890   -1.8560 ca        1 9AR     -0.013000
      9 C9          1.5330   -0.2970   -1.0340 ca        1 9AR     -0.121000
     10 C10         1.4270   -0.2990    0.3300 ca        1 9AR     -0.049200
     11 C11        -2.0500   -0.2070   -2.0960 ca        1 9AR     -0.088000
     12 C12        -1.9420   -0.1730   -3.4720 ca        1 9AR     -0.155000
     13 C13        -0.6650   -0.1190   -4.0680 ca        1 9AR      0.112100
     14 C14         0.4780   -0.1230   -3.2650 ca        1 9AR      0.006100
     15 C15        -4.4160   -0.2210    1.5070 c3        1 9AR      0.323200
     16 C16         1.2470    0.7230    3.2580 c         1 9AR      0.912200
     17 C17         2.4110    1.0900   -3.8540 c3        1 9AR      0.107700
     18 O1          1.7140   -0.1570   -3.9040 os        1 9AR     -0.353900
     19 O2         -3.6180   -0.0320    2.6910 os        1 9AR     -0.339900
     20 O3         -3.5230   -0.2900    0.3790 os        1 9AR     -0.355900
     21 O4          2.0450    1.5360    2.7210 o         1 9AR     -0.797800
     22 O5          1.2650    0.3470    4.4560 o         1 9AR     -0.797800
     23 O6         -0.6070   -0.0700   -5.4410 oh        1 9AR     -0.504100
     24 O7          2.6140   -1.4800    1.9520 o         1 9AR     -0.201000
     25 O8          3.7200   -0.2060    0.6960 o         1 9AR     -0.201000
     26 N1          2.6740   -0.6580    1.0830 no        1 9AR      0.331200
     27 H21        -1.1990    0.4090    4.1310 ha        1 9AR      0.183000
     28 H91         2.5060   -0.4260   -1.5410 ha        1 9AR      0.163000
     29 H111       -3.0580   -0.2350   -1.6530 ha        1 9AR      0.160000
     30 H121       -2.8310   -0.1800   -4.1170 ha        1 9AR      0.144000
     31 H151       -4.9630   -1.1920    1.5920 h2        1 9AR      0.054700
     32 H152       -5.0870    0.6640    1.3790 h2        1 9AR      0.054700
     33 H171        3.4180    0.8500   -4.2770 h1        1 9AR      0.044367
     34 H172        1.8820    1.8430   -4.4870 h1        1 9AR      0.044367
     35 H173        2.4980    1.4580   -2.8040 h1        1 9AR      0.044367
     36 H61         0.3310   -0.0910   -5.6910 ho        1 9AR      0.429000
@<TRIPOS>BOND
     1    1    2 ar  
     2    1    6 ar  
     3    1   16 1   
     4    2    3 ar  
     5    2   27 1   
     6    3    4 ar  
     7    3   19 1   
     8    4    5 ar  
     9    4   20 1   
    10    5    6 ar  
    11    5    7 ar  
    12    6   10 ar  
    13    7    8 ar  
    14    7   11 ar  
    15    8    9 ar  
    16    8   14 ar  
    17    9   10 ar  
    18    9   28 1   
    19   10   26 1   
    20   11   12 ar  
    21   11   29 1   
    22   12   13 ar  
    23   12   30 1   
    24   13   14 ar  
    25   13   23 1   
    26   14   18 1   
    27   15   19 1   
    28   15   20 1   
    29   15   31 1   
    30   15   32 1   
    31   16   21 1   
    32   16   22 1   
    33   17   18 1   
    34   17   33 1   
    35   17   34 1   
    36   17   35 1   
    37   23   36 1   
    38   24   26 1   
    39   25   26 1   
@<TRIPOS>SUBSTRUCTURE
     1 9AR         1 TEMP              0 ****  ****    0 ROOT
