@<TRIPOS>MOLECULE
9AR
   36    33     1     0     0
SMALL
bcc


@<TRIPOS>ATOM
      1 C1          0.8500   -0.1500   -2.9670 c1        1 9AR     -0.059000
      2 C2          2.2390   -0.0910   -3.0060 c1        1 9AR     -0.091000
      3 C3          2.9760   -0.0660   -1.8020 c1        1 9AR      0.016000
      4 C4          2.3110   -0.1010   -0.5770 c1        1 9AR     -0.032000
      5 C5          0.8820   -0.1610   -0.5390 c1        1 9AR     -0.001000
      6 C6          0.1670   -0.1860   -1.7050 c1        1 9AR     -0.018000
      7 C7          0.1820   -0.1100    0.7410 c2        1 9AR     -0.023000
      8 C8         -1.1920   -0.0850    0.7740 c1        1 9AR     -0.006000
      9 C9         -1.9290   -0.1100   -0.4390 c1        1 9AR     -0.122000
     10 C10        -1.2600   -0.1600   -1.6670 c2        1 9AR     -0.003000
     11 C11         0.9360   -0.0790    1.9710 c1        1 9AR     -0.086000
     12 C12         0.2610   -0.0230    3.2070 c1        1 9AR     -0.156000
     13 C13        -1.1540    0.0020    3.2360 c1        1 9AR      0.066000
     14 C14        -1.8840   -0.0280    2.0340 c1        1 9AR     -0.043000
     15 C15         4.5550    0.0810   -0.1630 c3        1 9AR      0.101000
     16 C16         0.4930   -1.1520   -4.1080 c2        1 9AR      0.361000
     17 C17        -3.6450    1.5580    2.4830 c3        1 9AR     -0.081000
     18 O1         -3.2700    0.2110    2.4660 os        1 9AR     -0.229000
     19 O2          4.3820    0.0510   -1.5380 os        1 9AR     -0.223000
     20 O3          3.2780   -0.0650    0.4460 os        1 9AR     -0.240000
     21 O4          0.0600   -0.7180   -5.2110 o         1 9AR     -0.530500
     22 O5          0.4710   -2.3870   -3.8710 o         1 9AR     -0.530500
     23 O6         -1.4000    0.2160    4.5940 oh        1 9AR     -0.259000
     24 O7         -2.0260   -0.7710   -3.8220 o         1 9AR     -0.480700
     25 O8         -3.6200   -0.3430   -2.2840 o         1 9AR     -0.480700
     26 N1         -2.3260   -0.3800   -2.6660 no        1 9AR      0.847400
     27 H21         2.7040    0.0740   -3.8330 ha        1 9AR      0.183000
     28 H91        -2.9490   -0.0800   -0.4180 ha        1 9AR      0.162000
     29 H111        1.9360   -0.2880    1.9510 ha        1 9AR      0.160000
     30 H121        0.7870   -0.0020    4.0700 ha        1 9AR      0.144000
     31 H151        5.1000   -0.6080    0.0930 h2        1 9AR      0.094000
     32 H152        4.9570    0.9420    0.1030 h2        1 9AR      0.094000
     33 H171       -3.7490    1.8730    1.5870 h1        1 9AR      0.079667
     34 H172       -2.9950    2.0540    2.9080 h1        1 9AR      0.079667
     35 H173       -4.4860    1.6520    2.9600 h1        1 9AR      0.079667
     36 H61        -1.6430   -0.5690    4.9900 ho        1 9AR      0.227000
@<TRIPOS>BOND
     1    1    6 1   
     2    1   16 1   
     3    2    3 1   
     4    2   27 1   
     5    3   19 1   
     6    4    5 1   
     7    4   20 1   
     8    5    7 1   
     9    6   10 1   
    10    7    8 1   
    11    7   11 1   
    12    8   14 1   
    13    9   10 1   
    14    9   28 1   
    15   10   26 1   
    16   11   29 1   
    17   12   13 1   
    18   12   30 1   
    19   13   23 1   
    20   14   18 1   
    21   15   19 1   
    22   15   20 1   
    23   15   31 1   
    24   15   32 1   
    25   16   21 1   
    26   16   22 1   
    27   17   18 1   
    28   17   33 1   
    29   17   34 1   
    30   17   35 1   
    31   23   36 1   
    32   24   26 2   
    33   25   26 2   
@<TRIPOS>SUBSTRUCTURE
     1 9AR         1 TEMP              0 ****  ****    0 ROOT
