@<TRIPOS>MOLECULE
9AR
   36    39     1     0     0
SMALL
bcc


@<TRIPOS>ATOM
      1 C1          0.0760    0.0810   -0.0350 ca        1 9AR     -0.081600
      2 C2          1.4710   -0.0560   -0.0660 ca        1 9AR     -0.089000
      3 C3          2.1100   -0.2830    1.1400 ca        1 9AR      0.058100
      4 C4          1.4120   -0.3210    2.3610 ca        1 9AR      0.015100
      5 C5          0.0240   -0.1880    2.4340 ca        1 9AR     -0.005000
      6 C6         -0.6500   -0.0880    1.1660 ca        1 9AR     -0.014000
      7 C7         -0.7050   -0.1010    3.6780 ca        1 9AR     -0.019000
      8 C8         -2.1140    0.0130    3.6410 ca        1 9AR     -0.013000
      9 C9         -2.7950   -0.0640    2.3850 ca        1 9AR     -0.109000
     10 C10        -2.0940   -0.1650    1.2150 ca        1 9AR     -0.056200
     11 C11        -0.0610   -0.0840    4.9350 ca        1 9AR     -0.085000
     12 C12        -0.7740    0.0640    6.1080 ca        1 9AR     -0.202000
     13 C13        -2.1770    0.1920    6.0710 ca        1 9AR      0.082100
     14 C14        -2.8480    0.1570    4.8460 ca        1 9AR      0.076100
     15 C15         3.6390   -0.5900    2.7950 c3        1 9AR      0.323200
     16 C16        -0.5220    0.5700   -1.3700 c         1 9AR      0.912200
     17 C17        -4.8270    1.4040    5.1320 c3        1 9AR      0.114700
     18 O1         -4.2330    0.1540    4.7790 os        1 9AR     -0.329900
     19 O2          3.4760   -0.4500    1.3710 os        1 9AR     -0.339900
     20 O3          2.3360   -0.4980    3.4010 os        1 9AR     -0.357900
     21 O4         -1.3670    1.5000   -1.3020 o         1 9AR     -0.797300
     22 O5         -0.0550    0.0660   -2.4220 o         1 9AR     -0.797300
     23 O6         -2.9260    0.3710    7.2160 oh        1 9AR     -0.498100
     24 O7         -2.5730   -1.3750   -0.7180 o         1 9AR     -0.200000
     25 O8         -3.9440    0.1210   -0.1630 o         1 9AR     -0.200000
     26 N1         -2.9080   -0.4680   -0.0090 no        1 9AR      0.331200
     27 H21         2.0060    0.0200   -1.0240 ha        1 9AR      0.183000
     28 H91        -3.9000   -0.0700    2.4060 ha        1 9AR      0.171000
     29 H111        1.0350   -0.1780    4.9950 ha        1 9AR      0.159000
     30 H121       -0.2550    0.0830    7.0770 ha        1 9AR      0.126000
     31 H151        4.0660   -1.6010    3.0110 h2        1 9AR      0.054200
     32 H152        4.2700    0.2540    3.1700 h2        1 9AR      0.054200
     33 H171       -5.9240    1.2120    5.0270 h1        1 9AR      0.041367
     34 H172       -4.4950    2.2040    4.4280 h1        1 9AR      0.041367
     35 H173       -4.5680    1.6730    6.1850 h1        1 9AR      0.041367
     36 H61        -2.3210    0.3200    7.9680 ho        1 9AR      0.411000
@<TRIPOS>BOND
     1    1    2 ar  
     2    1    6 ar  
     3    1   16 1   
     4    2    3 ar  
     5    2   27 1   
     6    3    4 ar  
     7    3   19 1   
     8    4    5 ar  
     9    4   20 1   
    10    5    6 ar  
    11    5    7 ar  
    12    6   10 ar  
    13    7    8 ar  
    14    7   11 ar  
    15    8    9 ar  
    16    8   14 ar  
    17    9   10 ar  
    18    9   28 1   
    19   10   26 1   
    20   11   12 ar  
    21   11   29 1   
    22   12   13 ar  
    23   12   30 1   
    24   13   14 ar  
    25   13   23 1   
    26   14   18 1   
    27   15   19 1   
    28   15   20 1   
    29   15   31 1   
    30   15   32 1   
    31   16   21 1   
    32   16   22 1   
    33   17   18 1   
    34   17   33 1   
    35   17   34 1   
    36   17   35 1   
    37   23   36 1   
    38   24   26 1   
    39   25   26 1   
@<TRIPOS>SUBSTRUCTURE
     1 9AR         1 TEMP              0 ****  ****    0 ROOT
