@<TRIPOS>MOLECULE
9AT
   18    17     1     0     0
SMALL
bcc


@<TRIPOS>ATOM
      1 N          -0.3620    1.8000    0.1730 n3        1 9AT     -0.884800
      2 CA         -0.0450    0.4460    0.5730 c3        1 9AT      0.068500
      3 C           1.3950    0.0240    0.2010 c         1 9AT      0.620100
      4 O           2.1190    0.7540   -0.5070 o         1 9AT     -0.618100
      5 CB         -1.0580   -0.5850    0.0070 c3        1 9AT      0.153100
      6 OG1        -1.0900   -0.5690   -1.4070 oh        1 9AT     -0.592800
      7 CG2        -2.4360   -0.3670    0.6050 c3        1 9AT     -0.128100
      8 NXT         1.8960   -1.1420    0.7230 n         1 9AT     -0.663000
      9 HN1         0.2760    2.4390    0.6090 hn        1 9AT      0.362300
     10 HN2        -0.2650    1.8940   -0.8220 hn        1 9AT      0.362300
     11 HA         -0.1270    0.4050    1.7020 h1        1 9AT      0.077700
     12 HB         -0.7000   -1.6250    0.2540 h1        1 9AT      0.064700
     13 HXT1        1.3040   -1.7870    1.1780 hn        1 9AT      0.308500
     14 HXT2        2.7930   -1.4500    0.4360 hn        1 9AT      0.308500
     15 HG1        -1.5930    0.2070   -1.6840 ho        1 9AT      0.409000
     16 HG21       -2.8260    0.6470    0.3510 hc        1 9AT      0.051033
     17 HG22       -3.1430   -1.1310    0.2000 hc        1 9AT      0.051033
     18 HG23       -2.3940   -0.4650    1.7150 hc        1 9AT      0.051033
@<TRIPOS>BOND
     1    1    2 1   
     2    1    9 1   
     3    1   10 1   
     4    2    3 1   
     5    2    5 1   
     6    2   11 1   
     7    3    4 2   
     8    3    8 1   
     9    5    6 1   
    10    5    7 1   
    11    5   12 1   
    12    6   15 1   
    13    7   16 1   
    14    7   17 1   
    15    7   18 1   
    16    8   13 1   
    17    8   14 1   
@<TRIPOS>SUBSTRUCTURE
     1 9AT         1 TEMP              0 ****  ****    0 ROOT
