@<TRIPOS>MOLECULE
9AT
   18    17     1     0     0
SMALL
bcc


@<TRIPOS>ATOM
      1 N          -1.7440   -0.3030    0.0960 n3        1 9AT     -0.897800
      2 CA         -0.3080   -0.3590    0.1180 c3        1 9AT      0.056500
      3 C           0.1630   -0.5110    1.5200 c         1 9AT      0.659100
      4 O          -0.0590    0.3780    2.3440 o         1 9AT     -0.639100
      5 CB          0.2640    0.9280   -0.4830 c3        1 9AT      0.120100
      6 OG1        -0.6690    1.9420   -0.3770 oh        1 9AT     -0.610800
      7 CG2         0.6000    0.6870   -1.9600 c3        1 9AT     -0.099100
      8 NXT         0.8590   -1.7370    1.9330 n         1 9AT     -0.647000
      9 HN1        -2.0780   -0.7670    0.8100 hn        1 9AT      0.361300
     10 HN2        -2.0480   -0.6700   -0.6700 hn        1 9AT      0.361300
     11 HA          0.0000   -1.1350   -0.4180 h1        1 9AT      0.077700
     12 HB          1.0700    1.1810   -0.0060 h1        1 9AT      0.059700
     13 HXT1        0.9000   -2.4700    1.3480 hn        1 9AT      0.316000
     14 HXT2        1.2630   -1.7840    2.7700 hn        1 9AT      0.316000
     15 HG1        -0.2530    2.7120   -0.1980 ho        1 9AT      0.430000
     16 HG21        1.2580   -0.0590   -2.0340 hc        1 9AT      0.046033
     17 HG22       -0.2090    0.4510   -2.4430 hc        1 9AT      0.046033
     18 HG23        0.9920    1.5150   -2.3510 hc        1 9AT      0.046033
@<TRIPOS>BOND
     1    1    2 1   
     2    1    9 1   
     3    1   10 1   
     4    2    3 1   
     5    2    5 1   
     6    2   11 1   
     7    3    4 2   
     8    3    8 1   
     9    5    6 1   
    10    5    7 1   
    11    5   12 1   
    12    6   15 1   
    13    7   16 1   
    14    7   17 1   
    15    7   18 1   
    16    8   13 1   
    17    8   14 1   
@<TRIPOS>SUBSTRUCTURE
     1 9AT         1 TEMP              0 ****  ****    0 ROOT
