@<TRIPOS>MOLECULE
9AZ
   46    49     1     0     0
SMALL
bcc


@<TRIPOS>ATOM
      1 C1          6.4330   -1.2730   -0.2900 ca        1 9AZ     -0.211000
      2 C2          5.6650   -2.4480   -0.2390 ca        1 9AZ     -0.096000
      3 C3          4.2990   -2.4040   -0.1190 ca        1 9AZ     -0.198300
      4 C4          3.6290   -1.1450   -0.0290 ca        1 9AZ      0.426600
      5 C5          4.3990    0.0610   -0.0570 ca        1 9AZ     -0.175300
      6 C6          5.8270   -0.0180   -0.2000 ca        1 9AZ      0.147600
      7 N7          2.2410   -1.1570    0.0820 nb        1 9AZ     -0.627000
      8 C8          1.6480    0.0140    0.1680 ca        1 9AZ      0.497100
      9 C9          2.3540    1.2960    0.1760 ca        1 9AZ     -0.225600
     10 C10         3.7080    1.3120    0.0670 ca        1 9AZ     -0.071000
     11 C11         0.2020    0.3170    0.2840 cc        1 9AZ     -0.087200
     12 N12         0.0600    1.7140    0.4030 n         1 9AZ     -0.369000
     13 C13         1.3440    2.4030    0.3230 c3        1 9AZ      0.152300
     14 C14        -0.8780   -0.5090    0.2790 cd        1 9AZ     -0.110000
     15 C15        -2.2150    0.0500    0.3700 cd        1 9AZ      0.015800
     16 C16        -2.3720    1.4120    0.3700 cc        1 9AZ     -0.224400
     17 C17        -1.1990    2.3150    0.4050 c         1 9AZ      0.707700
     18 O18        -1.2490    3.5630    0.4790 o         1 9AZ     -0.680500
     19 C19        -3.6700    2.1600    0.3040 c3        1 9AZ      0.189600
     20 C20        -3.2910   -1.0140    0.3930 c3        1 9AZ      0.020000
     21 C21        -3.6100   -1.4100   -1.1190 c         1 9AZ      0.943600
     22 O22        -2.8550   -2.2390   -1.6710 o         1 9AZ     -0.796300
     23 O23        -4.6020   -0.8320   -1.6410 o         1 9AZ     -0.796300
     24 O24        -2.7640   -2.1970    0.9930 oh        1 9AZ     -0.562800
     25 C25        -4.5690   -0.6160    1.1290 c3        1 9AZ     -0.090400
     26 C26        -5.4290   -1.8160    1.4440 c3        1 9AZ     -0.080100
     27 O27        -4.3300    2.0540   -0.9360 oh        1 9AZ     -0.627800
     28 N28         6.6170    1.1420   -0.1810 nh        1 9AZ     -0.813200
     29 H1          7.5240   -1.3610   -0.3960 ha        1 9AZ      0.125000
     30 H2          6.1820   -3.4180   -0.3060 ha        1 9AZ      0.128000
     31 H3          3.7030   -3.3290   -0.0950 ha        1 9AZ      0.156000
     32 H4          4.2560    2.2640    0.0890 ha        1 9AZ      0.133000
     33 H5          1.5140    3.0020    1.2600 h1        1 9AZ      0.070700
     34 H6         -0.7750   -1.6010    0.1470 ha        1 9AZ      0.207000
     35 H8         -4.3470    1.8320    1.1390 h1        1 9AZ      0.044700
     36 H9         -3.4900    3.2680    0.4230 h1        1 9AZ      0.044700
     37 H11        -2.6350   -1.9920    1.9280 ho        1 9AZ      0.364000
     38 H12        -4.3110   -0.0800    2.0790 hc        1 9AZ      0.043700
     39 H13        -5.1590    0.0700    0.4640 hc        1 9AZ      0.043700
     40 H14        -6.3970   -1.4880    1.8910 hc        1 9AZ      0.030367
     41 H15        -5.6340   -2.3820    0.5010 hc        1 9AZ      0.030367
     42 H16        -4.9180   -2.5020    2.1620 hc        1 9AZ      0.030367
     43 H17        -4.3840    1.1130   -1.1860 ho        1 9AZ      0.456000
     44 H18         7.5300    1.0030   -0.5560 hn        1 9AZ      0.382800
     45 H19         6.1710    1.9460   -0.5670 hn        1 9AZ      0.382800
     46 H7          1.3550    3.1040   -0.5560 h1        1 9AZ      0.070700
@<TRIPOS>BOND
     1    1    2 ar  
     2    1    6 ar  
     3    1   29 1   
     4    2    3 ar  
     5    2   30 1   
     6    3    4 ar  
     7    3   31 1   
     8    4    5 ar  
     9    4    7 ar  
    10    5    6 ar  
    11    5   10 ar  
    12    6   28 1   
    13    7    8 ar  
    14    8    9 ar  
    15    8   11 1   
    16    9   10 ar  
    17    9   13 1   
    18   10   32 1   
    19   11   12 1   
    20   11   14 2   
    21   12   13 1   
    22   12   17 1   
    23   13   33 1   
    24   13   46 1   
    25   14   15 1   
    26   14   34 1   
    27   15   16 2   
    28   15   20 1   
    29   16   17 1   
    30   16   19 1   
    31   17   18 2   
    32   19   27 1   
    33   19   35 1   
    34   19   36 1   
    35   20   21 1   
    36   20   24 1   
    37   20   25 1   
    38   21   22 1   
    39   21   23 1   
    40   24   37 1   
    41   25   26 1   
    42   25   38 1   
    43   25   39 1   
    44   26   40 1   
    45   26   41 1   
    46   26   42 1   
    47   27   43 1   
    48   28   44 1   
    49   28   45 1   
@<TRIPOS>SUBSTRUCTURE
     1 9AZ         1 TEMP              0 ****  ****    0 ROOT
