@<TRIPOS>MOLECULE
9AZ
   46    49     1     0     0
SMALL
bcc


@<TRIPOS>ATOM
      1 C1          0.2370    0.4180    0.0480 ca        1 9AZ     -0.213000
      2 C2          1.6390    0.3890    0.1260 ca        1 9AZ     -0.094000
      3 C3          2.2840    0.2660    1.3310 ca        1 9AZ     -0.202300
      4 C4          1.5300    0.1490    2.5390 ca        1 9AZ      0.427600
      5 C5          0.1000    0.1540    2.4740 ca        1 9AZ     -0.177300
      6 C6         -0.5470    0.3000    1.1990 ca        1 9AZ      0.151600
      7 N7          2.2350    0.0340    3.7340 nb        1 9AZ     -0.637000
      8 C8          1.5170   -0.0830    4.8310 ca        1 9AZ      0.497100
      9 C9          0.0540   -0.1060    4.8600 ca        1 9AZ     -0.223600
     10 C10        -0.6370    0.0080    3.6950 ca        1 9AZ     -0.071000
     11 C11         1.9780   -0.2160    6.2330 cc        1 9AZ     -0.093200
     12 N12         0.8400   -0.3170    7.0560 n         1 9AZ     -0.371000
     13 C13        -0.3980   -0.2660    6.2870 c3        1 9AZ      0.152300
     14 C14         3.2350   -0.2440    6.7520 cd        1 9AZ     -0.114000
     15 C15         3.4220   -0.3650    8.1840 cd        1 9AZ      0.005800
     16 C16         2.3270   -0.4370    9.0020 cc        1 9AZ     -0.180400
     17 C17         0.9540   -0.4330    8.4420 c         1 9AZ      0.704700
     18 O18        -0.1020   -0.5330    9.1040 o         1 9AZ     -0.674500
     19 C19         2.3440   -0.5520   10.5000 c3        1 9AZ      0.175600
     20 C20         4.8790   -0.3600    8.6200 c3        1 9AZ      0.057000
     21 C21         5.1730   -1.3000    9.8390 c         1 9AZ      0.908600
     22 O22         5.1900   -0.8210   11.0060 o         1 9AZ     -0.818300
     23 O23         5.4250   -2.5020    9.5520 o         1 9AZ     -0.818300
     24 O24         5.6760   -0.8170    7.5240 oh        1 9AZ     -0.633800
     25 C25         5.2980    1.0920    8.8810 c3        1 9AZ     -0.050400
     26 C26         6.7530    1.2050    9.2520 c3        1 9AZ     -0.089100
     27 O27         2.7960    0.6300   11.1240 oh        1 9AZ     -0.631800
     28 N28        -1.9440    0.2550    1.0910 nv        1 9AZ     -0.815200
     29 H1         -0.2330    0.5270   -0.9400 ha        1 9AZ      0.126000
     30 H2          2.2210    0.4750   -0.8050 ha        1 9AZ      0.128000
     31 H3          3.3840    0.2530    1.3840 ha        1 9AZ      0.153000
     32 H4         -1.7350   -0.0280    3.6960 ha        1 9AZ      0.133000
     33 H5         -1.0290    0.6000    6.6280 h1        1 9AZ      0.070700
     34 H6          4.1210   -0.1750    6.1000 ha        1 9AZ      0.185000
     35 H8          1.2950   -0.6970   10.8860 h1        1 9AZ      0.072200
     36 H9          2.9740   -1.4370   10.7970 h1        1 9AZ      0.072200
     37 H11         5.8090   -1.7710    7.6510 ho        1 9AZ      0.432000
     38 H12         5.0970    1.6930    7.9550 hc        1 9AZ      0.037200
     39 H13         4.6590    1.4960    9.7080 hc        1 9AZ      0.037200
     40 H14         7.3940    0.7790    8.4430 hc        1 9AZ      0.034367
     41 H15         7.0300    2.2760    9.4060 hc        1 9AZ      0.034367
     42 H16         6.9490    0.6380   10.1970 hc        1 9AZ      0.034367
     43 H17         3.7570    0.5460   11.2420 ho        1 9AZ      0.443000
     44 H18        -2.4300    0.6100    1.8850 hn        1 9AZ      0.384300
     45 H19        -2.2900    0.6310    0.2350 hn        1 9AZ      0.384300
     46 H7         -0.9830   -1.2150    6.4370 h1        1 9AZ      0.070700
@<TRIPOS>BOND
     1    1    2 ar  
     2    1    6 ar  
     3    1   29 1   
     4    2    3 ar  
     5    2   30 1   
     6    3    4 ar  
     7    3   31 1   
     8    4    5 ar  
     9    4    7 ar  
    10    5    6 ar  
    11    5   10 ar  
    12    6   28 1   
    13    7    8 ar  
    14    8    9 ar  
    15    8   11 1   
    16    9   10 ar  
    17    9   13 1   
    18   10   32 1   
    19   11   12 1   
    20   11   14 2   
    21   12   13 1   
    22   12   17 1   
    23   13   33 1   
    24   13   46 1   
    25   14   15 1   
    26   14   34 1   
    27   15   16 2   
    28   15   20 1   
    29   16   17 1   
    30   16   19 1   
    31   17   18 2   
    32   19   27 1   
    33   19   35 1   
    34   19   36 1   
    35   20   21 1   
    36   20   24 1   
    37   20   25 1   
    38   21   22 1   
    39   21   23 1   
    40   24   37 1   
    41   25   26 1   
    42   25   38 1   
    43   25   39 1   
    44   26   40 1   
    45   26   41 1   
    46   26   42 1   
    47   27   43 1   
    48   28   44 1   
    49   28   45 1   
@<TRIPOS>SUBSTRUCTURE
     1 9AZ         1 TEMP              0 ****  ****    0 ROOT
