@<TRIPOS>MOLECULE
9AZ
   46    49     1     0     0
SMALL
bcc


@<TRIPOS>ATOM
      1 C1          0.2540    0.3250    0.0340 ca        1 9AZ     -0.213000
      2 C2          1.6550    0.3360    0.1210 ca        1 9AZ     -0.095000
      3 C3          2.2950    0.2440    1.3310 ca        1 9AZ     -0.202300
      4 C4          1.5360    0.1480    2.5370 ca        1 9AZ      0.427600
      5 C5          0.1060    0.1570    2.4670 ca        1 9AZ     -0.177300
      6 C6         -0.5350    0.2390    1.1840 ca        1 9AZ      0.151600
      7 N7          2.2360    0.0490    3.7360 nb        1 9AZ     -0.637000
      8 C8          1.5140   -0.0300    4.8340 ca        1 9AZ      0.497100
      9 C9          0.0510   -0.0080    4.8610 ca        1 9AZ     -0.223600
     10 C10        -0.6350    0.0870    3.6920 ca        1 9AZ     -0.071000
     11 C11         1.9700   -0.1480    6.2390 cc        1 9AZ     -0.093200
     12 N12         0.8290   -0.1840    7.0630 n         1 9AZ     -0.371000
     13 C13        -0.4070   -0.1000    6.2930 c3        1 9AZ      0.152300
     14 C14         3.2240   -0.2220    6.7600 cd        1 9AZ     -0.114000
     15 C15         3.4060   -0.3320    8.1930 cd        1 9AZ      0.005800
     16 C16         2.3090   -0.3450    9.0110 cc        1 9AZ     -0.180400
     17 C17         0.9380   -0.2890    8.4510 c         1 9AZ      0.704700
     18 O18        -0.1220   -0.3390    9.1130 o         1 9AZ     -0.674500
     19 C19         2.3210   -0.4440   10.5110 c3        1 9AZ      0.175600
     20 C20         4.8620   -0.3890    8.6300 c3        1 9AZ      0.057000
     21 C21         5.1110   -1.3330    9.8570 c         1 9AZ      0.908600
     22 O22         5.1500   -0.8460   11.0200 o         1 9AZ     -0.818800
     23 O23         5.3060   -2.5470    9.5780 o         1 9AZ     -0.818800
     24 O24         5.6380   -0.8910    7.5380 oh        1 9AZ     -0.633800
     25 C25         5.3460    1.0450    8.8790 c3        1 9AZ     -0.051400
     26 C26         6.8040    1.0940    9.2540 c3        1 9AZ     -0.089100
     27 O27         2.8300    0.7210   11.1220 oh        1 9AZ     -0.631800
     28 N28        -1.9320    0.3050    1.0810 nh        1 9AZ     -0.814200
     29 H1         -0.2130    0.3930   -0.9600 ha        1 9AZ      0.126000
     30 H2          2.2400    0.4150   -0.8080 ha        1 9AZ      0.128000
     31 H3          3.3950    0.2440    1.3900 ha        1 9AZ      0.153000
     32 H4         -1.7330    0.1250    3.6950 ha        1 9AZ      0.133000
     33 H5         -1.0360   -1.0150    6.4740 h1        1 9AZ      0.070700
     34 H6          4.1120   -0.2010    6.1070 ha        1 9AZ      0.185000
     35 H8          1.2660   -0.5330   10.8980 h1        1 9AZ      0.072200
     36 H9          2.9070   -1.3550   10.8170 h1        1 9AZ      0.072200
     37 H11         5.7280   -1.8480    7.6730 ho        1 9AZ      0.432000
     38 H12         4.7240    1.4860    9.7000 hc        1 9AZ      0.037200
     39 H13         5.1760    1.6450    7.9470 hc        1 9AZ      0.037200
     40 H14         7.4270    0.6310    8.4510 hc        1 9AZ      0.034367
     41 H15         6.9710    0.5270   10.2040 hc        1 9AZ      0.034367
     42 H16         7.1300    2.1520    9.3990 hc        1 9AZ      0.034367
     43 H17         3.7860    0.5910   11.2420 ho        1 9AZ      0.443000
     44 H18        -2.2740    0.0860    0.1700 hn        1 9AZ      0.384300
     45 H19        -2.4210   -0.1860    1.7970 hn        1 9AZ      0.384300
     46 H7         -0.9960    0.8060    6.6040 h1        1 9AZ      0.070700
@<TRIPOS>BOND
     1    1    2 ar  
     2    1    6 ar  
     3    1   29 1   
     4    2    3 ar  
     5    2   30 1   
     6    3    4 ar  
     7    3   31 1   
     8    4    5 ar  
     9    4    7 ar  
    10    5    6 ar  
    11    5   10 ar  
    12    6   28 1   
    13    7    8 ar  
    14    8    9 ar  
    15    8   11 1   
    16    9   10 ar  
    17    9   13 1   
    18   10   32 1   
    19   11   12 1   
    20   11   14 2   
    21   12   13 1   
    22   12   17 1   
    23   13   33 1   
    24   13   46 1   
    25   14   15 1   
    26   14   34 1   
    27   15   16 2   
    28   15   20 1   
    29   16   17 1   
    30   16   19 1   
    31   17   18 2   
    32   19   27 1   
    33   19   35 1   
    34   19   36 1   
    35   20   21 1   
    36   20   24 1   
    37   20   25 1   
    38   21   22 1   
    39   21   23 1   
    40   24   37 1   
    41   25   26 1   
    42   25   38 1   
    43   25   39 1   
    44   26   40 1   
    45   26   41 1   
    46   26   42 1   
    47   27   43 1   
    48   28   44 1   
    49   28   45 1   
@<TRIPOS>SUBSTRUCTURE
     1 9AZ         1 TEMP              0 ****  ****    0 ROOT
