@<TRIPOS>MOLECULE
9AZ
   46    42     1     0     0
SMALL
bcc


@<TRIPOS>ATOM
      1 C1         -2.1000    0.0460   -6.2380 c1        1 9AZ     -0.211000
      2 C2         -0.7940    0.5330   -6.1960 c1        1 9AZ     -0.114000
      3 C3         -0.1180    0.6440   -4.9540 c1        1 9AZ     -0.114000
      4 C4         -0.7600    0.2640   -3.7720 c1        1 9AZ      0.033000
      5 C5         -2.0630   -0.2220   -3.8130 c1        1 9AZ     -0.111000
      6 C6         -2.7400   -0.3320   -5.0570 c1        1 9AZ      0.065000
      7 N7         -0.1380    0.4780   -2.5530 n2        1 9AZ     -0.094000
      8 C8         -0.8060    0.2100   -1.3840 c1        1 9AZ      0.059000
      9 C9         -2.1160   -0.2780   -1.4240 c1        1 9AZ     -0.155000
     10 C10        -2.7360   -0.4910   -2.6380 c2        1 9AZ     -0.071000
     11 C11        -0.5080    0.6450    0.0730 c2        1 9AZ      0.014000
     12 N12        -1.6430    0.2500    0.8990 n3        1 9AZ     -0.254000
     13 C13        -2.6580   -0.3080    0.0250 c3        1 9AZ      0.029000
     14 C14         0.9160    0.5410    0.6290 c1        1 9AZ     -0.111000
     15 C15         1.1260    0.2710    2.0780 c1        1 9AZ      0.032000
     16 C16        -0.0470    0.0040    2.9510 c1        1 9AZ     -0.193000
     17 C17        -1.4560    0.0200    2.3560 c1        1 9AZ      0.345000
     18 O18        -2.4060   -0.1940    3.0580 o         1 9AZ     -0.433000
     19 C19         0.1490   -0.2100    4.4580 c3        1 9AZ      0.041000
     20 C20         2.5490    0.4160    2.7030 c3        1 9AZ      0.019000
     21 C21         3.2840    1.5780    2.0380 c2        1 9AZ      0.326000
     22 O22         2.6710    2.3320    1.2410 o         1 9AZ     -0.547000
     23 O23         4.4700    1.8590    2.3880 o         1 9AZ     -0.547000
     24 O24         2.4360    0.6580    4.0470 oh        1 9AZ     -0.363000
     25 C25         3.3430   -0.8900    2.4830 c3        1 9AZ     -0.137000
     26 C26         4.3050   -1.1100    3.6730 c3        1 9AZ     -0.203000
     27 O27        -0.9790   -0.9280    4.9900 oh        1 9AZ     -0.353000
     28 N28        -4.1030   -0.3910   -5.3290 n2        1 9AZ     -0.322000
     29 H1         -2.5740   -0.0300   -7.1070 ha        1 9AZ      0.125000
     30 H2         -0.3520    0.7950   -7.0100 ha        1 9AZ      0.143500
     31 H3          0.8080    0.9520   -4.9300 ha        1 9AZ      0.143500
     32 H4         -3.6650   -0.8150   -2.6660 ha        1 9AZ      0.132000
     33 H5         -2.8470   -1.2270    0.2860 h1        1 9AZ      0.109500
     34 H6          1.6770    0.7160    0.0510 ha        1 9AZ      0.226000
     35 H8          0.9750   -0.7330    4.6110 h1        1 9AZ      0.105000
     36 H9          0.2230    0.6640    4.9090 h1        1 9AZ      0.105000
     37 H11         2.2510    1.5190    4.1800 ho        1 9AZ      0.235000
     38 H12         3.8580   -0.8240    1.6530 hc        1 9AZ      0.078000
     39 H13         2.7110   -1.6560    2.4220 hc        1 9AZ      0.078000
     40 H14         4.9840   -0.3950    3.6800 hc        1 9AZ      0.071333
     41 H15         3.8000   -1.0890    4.5100 hc        1 9AZ      0.071333
     42 H16         4.7470   -1.9810    3.5810 hc        1 9AZ      0.071333
     43 H17        -1.1120   -0.6880    5.8510 ho        1 9AZ      0.215000
     44 H18        -4.6390   -0.9380   -4.8430 hn        1 9AZ      0.176500
     45 H19        -4.4530    0.1140   -5.9940 hn        1 9AZ      0.176500
     46 H7         -3.4670    0.2210    0.0840 h1        1 9AZ      0.109500
@<TRIPOS>BOND
     1    1    6 1   
     2    1   29 1   
     3    2    3 1   
     4    2   30 1   
     5    3   31 1   
     6    4    5 1   
     7    4    7 1   
     8    5   10 1   
     9    7    8 1   
    10    8   11 1   
    11    9   10 1   
    12    9   13 1   
    13   10   32 1   
    14   11   12 1   
    15   11   14 1   
    16   12   13 1   
    17   12   17 1   
    18   13   33 1   
    19   13   46 1   
    20   14   34 1   
    21   15   16 1   
    22   15   20 1   
    23   16   19 1   
    24   17   18 1   
    25   19   27 1   
    26   19   35 1   
    27   19   36 1   
    28   20   21 1   
    29   20   24 1   
    30   20   25 1   
    31   21   22 1   
    32   21   23 1   
    33   24   37 1   
    34   25   26 1   
    35   25   38 1   
    36   25   39 1   
    37   26   40 1   
    38   26   41 1   
    39   26   42 1   
    40   27   43 1   
    41   28   44 1   
    42   28   45 1   
@<TRIPOS>SUBSTRUCTURE
     1 9AZ         1 TEMP              0 ****  ****    0 ROOT
