@<TRIPOS>MOLECULE
9AZ
   47    50     1     0     0
SMALL
bcc


@<TRIPOS>ATOM
      1 C1          0.2450    0.2830    0.0020 ca        1 9AZ     -0.089000
      2 C2          1.6450    0.3260    0.0900 ca        1 9AZ     -0.134000
      3 C3          2.2830    0.2620    1.3100 ca        1 9AZ     -0.092300
      4 C4          1.5350    0.1530    2.5220 ca        1 9AZ      0.421600
      5 C5          0.1030    0.1110    2.4530 ca        1 9AZ     -0.132300
      6 C6         -0.5050    0.1770    1.1690 ca        1 9AZ     -0.072400
      7 N7          2.2350    0.0880    3.7180 nb        1 9AZ     -0.627000
      8 C8          1.5180   -0.0160    4.8210 ca        1 9AZ      0.530100
      9 C9          0.0450   -0.0590    4.8420 ca        1 9AZ     -0.137600
     10 C10        -0.6430    0.0040    3.6740 ca        1 9AZ     -0.155000
     11 C11         1.9690   -0.1170    6.2160 cc        1 9AZ     -0.145200
     12 N12         0.8280   -0.1990    7.0430 n         1 9AZ     -0.384000
     13 C13        -0.4070   -0.1750    6.2750 c3        1 9AZ      0.141300
     14 C14         3.2280   -0.1490    6.7360 cd        1 9AZ     -0.042000
     15 C15         3.4160   -0.2790    8.1660 cd        1 9AZ     -0.012200
     16 C16         2.3210   -0.3470    8.9870 cc        1 9AZ     -0.139400
     17 C17         0.9440   -0.3300    8.4310 c         1 9AZ      0.705700
     18 O18        -0.1150   -0.4280    9.0830 o         1 9AZ     -0.647500
     19 C19         2.3330   -0.4820   10.4860 c3        1 9AZ      0.170600
     20 C20         4.8740   -0.3200    8.5970 c3        1 9AZ      0.051000
     21 C21         5.1230   -1.3650    9.7440 c         1 9AZ      0.910600
     22 O22         5.1060   -0.9830   10.9430 o         1 9AZ     -0.806800
     23 O23         5.3550   -2.5400    9.3530 o         1 9AZ     -0.806800
     24 O24         5.6570   -0.7130    7.4680 oh        1 9AZ     -0.640800
     25 C25         5.3230    1.1000    8.9610 c3        1 9AZ     -0.051400
     26 C26         6.7640    1.1400    9.3950 c3        1 9AZ     -0.092100
     27 O27         2.8650    0.6590   11.1170 oh        1 9AZ     -0.623800
     28 N28        -1.9660    0.1280    1.0820 n4        1 9AZ     -0.697000
     29 H1         -0.2270    0.3340   -0.9920 ha        1 9AZ      0.146000
     30 H2          2.2330    0.4100   -0.8390 ha        1 9AZ      0.167000
     31 H3          3.3880    0.2940    1.3660 ha        1 9AZ      0.187000
     32 H4         -1.7400   -0.0270    3.6760 ha        1 9AZ      0.118000
     33 H5         -1.0410    0.7020    6.5840 h1        1 9AZ      0.085200
     34 H6          4.1160   -0.0850    6.0830 ha        1 9AZ      0.193000
     35 H8          2.9040   -1.4130   10.7630 h1        1 9AZ      0.080700
     36 H9          1.2770   -0.5630   10.8720 h1        1 9AZ      0.080700
     37 H11         5.8590   -1.6570    7.5710 ho        1 9AZ      0.438000
     38 H12         4.6640    1.4820    9.7820 hc        1 9AZ      0.036700
     39 H13         5.1810    1.7590    8.0630 hc        1 9AZ      0.036700
     40 H14         7.4240    0.7360    8.5890 hc        1 9AZ      0.038700
     41 H15         7.0690    2.1910    9.6180 hc        1 9AZ      0.038700
     42 H16         6.9020    0.5170   10.3140 hc        1 9AZ      0.038700
     43 H17         3.8040    0.4810   11.3000 ho        1 9AZ      0.450000
     44 H18        -2.3620    0.9170    1.6050 hn        1 9AZ      0.457800
     45 H19        -2.2990   -0.7500    1.4980 hn        1 9AZ      0.457800
     46 H7         -0.9950   -1.1190    6.4510 h1        1 9AZ      0.085200
     47 H283       -2.2660    0.1780    0.1040 hn        1 9AZ      0.457800
@<TRIPOS>BOND
     1    1    2 ar  
     2    1    6 ar  
     3    1   29 1   
     4    2    3 ar  
     5    2   30 1   
     6    3    4 ar  
     7    3   31 1   
     8    4    5 ar  
     9    4    7 ar  
    10    5    6 ar  
    11    5   10 ar  
    12    6   28 1   
    13    7    8 ar  
    14    8    9 ar  
    15    8   11 1   
    16    9   10 ar  
    17    9   13 1   
    18   10   32 1   
    19   11   12 1   
    20   11   14 2   
    21   12   13 1   
    22   12   17 1   
    23   13   33 1   
    24   13   46 1   
    25   14   15 1   
    26   14   34 1   
    27   15   16 2   
    28   15   20 1   
    29   16   17 1   
    30   16   19 1   
    31   17   18 2   
    32   19   27 1   
    33   19   35 1   
    34   19   36 1   
    35   20   21 1   
    36   20   24 1   
    37   20   25 1   
    38   21   22 1   
    39   21   23 1   
    40   24   37 1   
    41   25   26 1   
    42   25   38 1   
    43   25   39 1   
    44   26   40 1   
    45   26   41 1   
    46   26   42 1   
    47   27   43 1   
    48   28   44 1   
    49   28   45 1   
    50   28   47 1   
@<TRIPOS>SUBSTRUCTURE
     1 9AZ         1 TEMP              0 ****  ****    0 ROOT
