@<TRIPOS>MOLECULE
9B6
   50    54     1     0     0
SMALL
bcc


@<TRIPOS>ATOM
      1 C01         0.0330   -0.3480   -0.1650 c3        1 9B6      0.120700
      2 O05         1.4500   -0.2320   -0.0190 os        1 9B6     -0.436100
      3 C06         1.9560   -0.0610    1.2500 ca        1 9B6      0.659600
      4 N07         1.1640   -0.1220    2.3220 nb        1 9B6     -0.733000
      5 C08         1.7490    0.0600    3.5510 ca        1 9B6      0.350300
      6 C09         0.9820   -0.0060    4.7520 ca        1 9B6     -0.018700
      7 N10        -0.3690   -0.3190    4.9970 n         1 9B6     -0.246200
      8 C11        -1.4280   -0.2650    4.0650 ca        1 9B6      0.066600
      9 C12        -2.1340   -1.4500    3.7650 ca        1 9B6     -0.078000
     10 C14        -3.2000   -1.4370    2.8710 ca        1 9B6     -0.137000
     11 C16        -3.5970   -0.2510    2.2550 ca        1 9B6     -0.096000
     12 C18        -2.9270    0.9360    2.5340 ca        1 9B6     -0.165000
     13 C20        -1.8550    0.9320    3.4330 ca        1 9B6      0.119100
     14 O21        -1.2200    2.1090    3.8220 os        1 9B6     -0.366900
     15 C22        -0.9840    3.1080    2.8650 c3        1 9B6      0.824700
     16 F23        -2.0910    3.8750    2.6910 f         1 9B6     -0.213300
     17 F24         0.0020    3.8710    3.3950 f         1 9B6     -0.213300
     18 F25        -0.5880    2.6290    1.6600 f         1 9B6     -0.213300
     19 C26        -0.5850   -0.1920    6.4230 c         1 9B6      0.777500
     20 O27        -1.6550   -0.3620    7.0210 o         1 9B6     -0.592500
     21 N28         0.6900    0.0290    7.0440 n         1 9B6     -0.404100
     22 C30         1.6260    0.2140    6.0080 ca        1 9B6     -0.144700
     23 C31         3.0190    0.4910    6.0460 ca        1 9B6      0.427200
     24 N33         3.7530    0.5450    4.9470 nb        1 9B6     -0.641000
     25 C34         3.1550    0.3330    3.7260 ca        1 9B6      0.265300
     26 C35         3.9560    0.3800    2.5340 ca        1 9B6     -0.103300
     27 C37         3.3880    0.1820    1.2980 ca        1 9B6     -0.109300
     28 C38         4.1830    0.2330    0.0970 cc        1 9B6     -0.278600
     29 C39         4.4240   -0.8580   -0.8610 cc        1 9B6      0.356600
     30 C40         3.8690   -2.2190   -0.7550 c3        1 9B6     -0.137400
     31 N44         5.2360   -0.3990   -1.8350 nd        1 9B6     -0.367300
     32 O45         5.5350    0.8640   -1.5980 os        1 9B6     -0.118100
     33 C46         4.9060    1.3010   -0.4100 cd        1 9B6      0.291000
     34 C47         5.1350    2.6900   -0.0160 c3        1 9B6     -0.143400
     35 H011       -0.0950   -0.4200   -1.2750 h1        1 9B6      0.054367
     36 H012       -0.3390   -1.2700    0.3410 h1        1 9B6      0.054367
     37 H013       -0.4770    0.5600    0.2390 h1        1 9B6      0.054367
     38 H12        -1.8390   -2.3970    4.2480 ha        1 9B6      0.158000
     39 H14        -3.7340   -2.3750    2.6540 ha        1 9B6      0.145000
     40 H16        -4.4440   -0.2470    1.5530 ha        1 9B6      0.144000
     41 H18        -3.2340    1.8790    2.0560 ha        1 9B6      0.154000
     42 H28         0.7480    0.5230    7.9010 hn        1 9B6      0.341500
     43 H31         3.5390    0.6650    7.0050 h4        1 9B6      0.036100
     44 H35         5.0380    0.5760    2.6250 ha        1 9B6      0.165000
     45 H401        4.3470   -2.7520    0.1060 hc        1 9B6      0.062033
     46 H402        2.7670   -2.1510   -0.5700 hc        1 9B6      0.062033
     47 H403        4.0450   -2.8150   -1.6850 hc        1 9B6      0.062033
     48 H471        5.0150    2.7950    1.0910 hc        1 9B6      0.068700
     49 H472        4.3920    3.3570   -0.5250 hc        1 9B6      0.068700
     50 H473        6.1630    3.0190   -0.3090 hc        1 9B6      0.068700
@<TRIPOS>BOND
     1    1    2 1   
     2    1   35 1   
     3    1   36 1   
     4    1   37 1   
     5    2    3 1   
     6    3    4 ar  
     7    3   27 ar  
     8    4    5 ar  
     9    5    6 ar  
    10    5   25 ar  
    11    6    7 1   
    12    6   22 ar  
    13    7    8 1   
    14    7   19 1   
    15    8    9 ar  
    16    8   13 ar  
    17    9   10 ar  
    18    9   38 1   
    19   10   11 ar  
    20   10   39 1   
    21   11   12 ar  
    22   11   40 1   
    23   12   13 ar  
    24   12   41 1   
    25   13   14 1   
    26   14   15 1   
    27   15   16 1   
    28   15   17 1   
    29   15   18 1   
    30   19   20 2   
    31   19   21 1   
    32   21   22 1   
    33   21   42 1   
    34   22   23 ar  
    35   23   24 ar  
    36   23   43 1   
    37   24   25 ar  
    38   25   26 ar  
    39   26   27 ar  
    40   26   44 1   
    41   27   28 1   
    42   28   29 1   
    43   28   33 2   
    44   29   30 1   
    45   29   31 2   
    46   30   45 1   
    47   30   46 1   
    48   30   47 1   
    49   31   32 1   
    50   32   33 1   
    51   33   34 1   
    52   34   48 1   
    53   34   49 1   
    54   34   50 1   
@<TRIPOS>SUBSTRUCTURE
     1 9B6         1 TEMP              0 ****  ****    0 ROOT
