@<TRIPOS>MOLECULE
9B6
   50    48     1     0     0
SMALL
bcc


@<TRIPOS>ATOM
      1 C01        -0.8620   -0.6120   -2.8630 c3        1 9B6     -0.068000
      2 O05        -0.2420    0.5710   -2.3380 os        1 9B6     -0.201000
      3 C06         0.5940    0.3340   -1.2050 c2        1 9B6      0.159000
      4 N07        -0.0590    0.3670    0.0100 n1        1 9B6     -0.205000
      5 C08         0.6740    0.3940    1.1990 c1        1 9B6      0.020000
      6 C09        -0.0020    0.3970    2.4570 c2        1 9B6      0.055000
      7 N10        -1.4320    0.3760    2.8110 n         1 9B6     -0.194000
      8 C11        -2.5420    0.4040    1.8780 c2        1 9B6      0.073000
      9 C12        -2.9300    1.5900    1.3140 c2        1 9B6     -0.078000
     10 C14        -4.0160    1.6280    0.4510 c1        1 9B6     -0.138000
     11 C16        -4.7100    0.4660    0.1590 c1        1 9B6     -0.130500
     12 C18        -4.3200   -0.7320    0.7270 c1        1 9B6     -0.130500
     13 C20        -3.2380   -0.7690    1.5860 c1        1 9B6      0.074000
     14 O21        -2.9180   -1.9780    2.2810 os        1 9B6     -0.251000
     15 C22        -2.3720   -2.9710    1.4700 c3        1 9B6      0.540000
     16 F23        -1.3570   -2.4600    0.7540 f         1 9B6     -0.141667
     17 F24        -1.9060   -4.0010    2.2580 f         1 9B6     -0.141667
     18 F25        -3.3200   -3.4380    0.6330 f         1 9B6     -0.141667
     19 C26        -1.5320    0.3930    4.2100 c2        1 9B6      0.368000
     20 O27        -2.5710    0.5080    4.8560 o         1 9B6     -0.317000
     21 N28        -0.2140    0.4230    4.7420 n         1 9B6     -0.258000
     22 C30         0.7250    0.3940    3.6250 c2        1 9B6     -0.073000
     23 C31         2.1410    0.3880    3.5780 c2        1 9B6     -0.037000
     24 N33         2.7900    0.3860    2.3620 n1        1 9B6     -0.115000
     25 C34         2.0430    0.3880    1.1570 c1        1 9B6     -0.061000
     26 C35         2.7050    0.3550   -0.0800 c2        1 9B6     -0.040000
     27 C37         1.9800    0.3290   -1.2480 c2        1 9B6     -0.039000
     28 C38         2.8800    0.3450   -2.4730 c2        1 9B6     -0.154000
     29 C39         3.2900   -0.7550   -3.1820 c1        1 9B6     -0.083000
     30 C40         2.9550   -2.2020   -2.8550 c2        1 9B6     -0.165500
     31 N44         3.9490   -0.3240   -4.2750 n2        1 9B6     -0.029000
     32 O45         3.9550    1.0610   -4.2540 os        1 9B6     -0.063000
     33 C46         3.2990    1.4650   -3.1500 c1        1 9B6      0.024000
     34 C47         2.9490    2.9250   -2.7860 c2        1 9B6     -0.165500
     35 H011       -0.8800   -0.5670   -3.8460 h1        1 9B6      0.093333
     36 H012       -1.7920   -0.6810   -2.5160 h1        1 9B6      0.093333
     37 H013       -0.3480   -1.4050   -2.5800 h1        1 9B6      0.093333
     38 H12        -2.4600    2.3790    1.5120 ha        1 9B6      0.158000
     39 H14        -4.2870    2.4630    0.0560 ha        1 9B6      0.145000
     40 H16        -5.4720    0.4920   -0.4480 ha        1 9B6      0.149000
     41 H18        -4.8100   -1.5560    0.5200 ha        1 9B6      0.149000
     42 H28         0.0090    0.4390    5.6410 hn        1 9B6      0.255000
     43 H31         2.6740    0.2680    4.4350 h4        1 9B6      0.173000
     44 H35         3.6800    0.3510   -0.1110 ha        1 9B6      0.167000
     45 H401        3.4190   -2.8000   -3.4930 ha        1 9B6      0.105333
     46 H402        3.2470   -2.4060   -1.9480 ha        1 9B6      0.105333
     47 H403        2.0020   -2.3360   -2.9240 ha        1 9B6      0.105333
     48 H471        3.2780    3.5300   -3.4950 ha        1 9B6      0.105333
     49 H472        3.3840    3.1660   -1.9120 ha        1 9B6      0.105333
     50 H473        1.9730    3.0170   -2.7030 ha        1 9B6      0.105333
@<TRIPOS>BOND
     1    1    2 1   
     2    1   35 1   
     3    1   36 1   
     4    1   37 1   
     5    2    3 1   
     6    3    4 1   
     7    3   27 1   
     8    5    6 1   
     9    5   25 1   
    10    6    7 1   
    11    6   22 1   
    12    7    8 1   
    13    7   19 1   
    14    8    9 1   
    15    8   13 1   
    16    9   10 1   
    17    9   38 1   
    18   10   39 1   
    19   11   12 1   
    20   11   40 1   
    21   12   41 1   
    22   13   14 1   
    23   14   15 1   
    24   15   16 1   
    25   15   17 1   
    26   15   18 1   
    27   19   20 1   
    28   19   21 1   
    29   21   22 1   
    30   21   42 1   
    31   22   23 1   
    32   23   24 1   
    33   23   43 1   
    34   25   26 1   
    35   26   27 1   
    36   26   44 1   
    37   27   28 1   
    38   28   29 1   
    39   28   33 1   
    40   29   31 1   
    41   30   45 1   
    42   30   46 1   
    43   30   47 1   
    44   31   32 1   
    45   32   33 1   
    46   34   48 1   
    47   34   49 1   
    48   34   50 1   
@<TRIPOS>SUBSTRUCTURE
     1 9B6         1 TEMP              0 ****  ****    0 ROOT
