@<TRIPOS>MOLECULE
9B6
   50    54     1     0     0
SMALL
bcc


@<TRIPOS>ATOM
      1 C01         0.0300   -0.3340   -0.1670 c3        1 9B6      0.120700
      2 O05         1.4480   -0.2210   -0.0220 os        1 9B6     -0.436100
      3 C06         1.9550   -0.0570    1.2470 ca        1 9B6      0.659600
      4 N07         1.1640   -0.1210    2.3200 nb        1 9B6     -0.733000
      5 C08         1.7500    0.0540    3.5500 ca        1 9B6      0.350300
      6 C09         0.9830   -0.0180    4.7510 ca        1 9B6     -0.017700
      7 N10        -0.3680   -0.3300    4.9950 n         1 9B6     -0.246200
      8 C11        -1.4270   -0.2710    4.0640 ca        1 9B6      0.066600
      9 C12        -2.1340   -1.4530    3.7590 ca        1 9B6     -0.078000
     10 C14        -3.2020   -1.4340    2.8660 ca        1 9B6     -0.137000
     11 C16        -3.5980   -0.2450    2.2570 ca        1 9B6     -0.096000
     12 C18        -2.9260    0.9400    2.5410 ca        1 9B6     -0.165000
     13 C20        -1.8530    0.9300    3.4380 ca        1 9B6      0.119100
     14 O21        -1.2170    2.1050    3.8330 os        1 9B6     -0.366900
     15 C22        -0.9810    3.1080    2.8800 c3        1 9B6      0.824700
     16 F23        -2.0860    3.8770    2.7110 f         1 9B6     -0.213300
     17 F24         0.0070    3.8680    3.4130 f         1 9B6     -0.213300
     18 F25        -0.5860    2.6350    1.6730 f         1 9B6     -0.213300
     19 C26        -0.5820   -0.2100    6.4220 c         1 9B6      0.777500
     20 O27        -1.6520   -0.3810    7.0200 o         1 9B6     -0.592500
     21 N28         0.6940    0.0070    7.0430 ns        1 9B6     -0.404100
     22 C30         1.6290    0.1960    6.0070 ca        1 9B6     -0.144700
     23 C31         3.0220    0.4700    6.0450 ca        1 9B6      0.427200
     24 N33         3.7560    0.5290    4.9460 nb        1 9B6     -0.641000
     25 C34         3.1570    0.3230    3.7240 ca        1 9B6      0.265300
     26 C35         3.9560    0.3750    2.5320 ca        1 9B6     -0.103300
     27 C37         3.3870    0.1840    1.2950 ca        1 9B6     -0.109300
     28 C38         4.1810    0.2400    0.0950 cc        1 9B6     -0.278600
     29 C39         4.4200   -0.8460   -0.8700 cc        1 9B6      0.356600
     30 C40         3.8630   -2.2080   -0.7700 c3        1 9B6     -0.137400
     31 N44         5.2310   -0.3840   -1.8420 nd        1 9B6     -0.367300
     32 O45         5.5320    0.8780   -1.5990 os        1 9B6     -0.118100
     33 C46         4.9060    1.3090   -0.4080 cd        1 9B6      0.291000
     34 C47         5.1370    2.6950   -0.0070 c3        1 9B6     -0.143400
     35 H011       -0.0990   -0.4000   -1.2780 h1        1 9B6      0.054367
     36 H012       -0.3420   -1.2580    0.3350 h1        1 9B6      0.054367
     37 H013       -0.4790    0.5730    0.2420 h1        1 9B6      0.054367
     38 H12        -1.8410   -2.4020    4.2380 ha        1 9B6      0.158000
     39 H14        -3.7370   -2.3700    2.6450 ha        1 9B6      0.145000
     40 H16        -4.4460   -0.2360    1.5560 ha        1 9B6      0.144000
     41 H18        -3.2320    1.8860    2.0670 ha        1 9B6      0.154000
     42 H28         0.7530    0.4960    7.9030 hn        1 9B6      0.341500
     43 H31         3.5440    0.6390    7.0040 h4        1 9B6      0.036100
     44 H35         5.0390    0.5690    2.6230 ha        1 9B6      0.165000
     45 H401        4.3410   -2.7450    0.0870 hc        1 9B6      0.062033
     46 H402        2.7610   -2.1390   -0.5830 hc        1 9B6      0.062033
     47 H403        4.0360   -2.7990   -1.7030 hc        1 9B6      0.062033
     48 H471        5.0140    2.7950    1.1000 hc        1 9B6      0.068700
     49 H472        4.3970    3.3670   -0.5140 hc        1 9B6      0.068700
     50 H473        6.1670    3.0230   -0.2960 hc        1 9B6      0.068700
@<TRIPOS>BOND
     1    1    2 1   
     2    1   35 1   
     3    1   36 1   
     4    1   37 1   
     5    2    3 1   
     6    3    4 ar  
     7    3   27 ar  
     8    4    5 ar  
     9    5    6 ar  
    10    5   25 ar  
    11    6    7 1   
    12    6   22 ar  
    13    7    8 1   
    14    7   19 1   
    15    8    9 ar  
    16    8   13 ar  
    17    9   10 ar  
    18    9   38 1   
    19   10   11 ar  
    20   10   39 1   
    21   11   12 ar  
    22   11   40 1   
    23   12   13 ar  
    24   12   41 1   
    25   13   14 1   
    26   14   15 1   
    27   15   16 1   
    28   15   17 1   
    29   15   18 1   
    30   19   20 2   
    31   19   21 1   
    32   21   22 1   
    33   21   42 1   
    34   22   23 ar  
    35   23   24 ar  
    36   23   43 1   
    37   24   25 ar  
    38   25   26 ar  
    39   26   27 ar  
    40   26   44 1   
    41   27   28 1   
    42   28   29 1   
    43   28   33 2   
    44   29   30 1   
    45   29   31 2   
    46   30   45 1   
    47   30   46 1   
    48   30   47 1   
    49   31   32 1   
    50   32   33 1   
    51   33   34 1   
    52   34   48 1   
    53   34   49 1   
    54   34   50 1   
@<TRIPOS>SUBSTRUCTURE
     1 9B6         1 TEMP              0 ****  ****    0 ROOT
