@<TRIPOS>MOLECULE
9B6
   50    54     1     0     0
SMALL
bcc


@<TRIPOS>ATOM
      1 C01        -0.9560   -2.4820   -1.5370 c3        1 9B6      0.121700
      2 O05        -1.9960   -1.7240   -0.9150 os        1 9B6     -0.442100
      3 C06        -1.7000   -0.4470   -0.4930 ca        1 9B6      0.658600
      4 N07        -0.4810    0.0680   -0.6640 nb        1 9B6     -0.733000
      5 C08        -0.2660    1.3480   -0.2170 ca        1 9B6      0.348300
      6 C09         1.0020    1.9830   -0.3740 ca        1 9B6     -0.015700
      7 N10         2.1910    1.5800   -1.0110 n         1 9B6     -0.249200
      8 C11         2.5620    0.2650   -1.3610 ca        1 9B6      0.067600
      9 C12         2.7840   -0.0430   -2.7210 ca        1 9B6     -0.079000
     10 C14         3.1740   -1.3220   -3.1070 ca        1 9B6     -0.137000
     11 C16         3.3580   -2.3260   -2.1570 ca        1 9B6     -0.096000
     12 C18         3.1540   -2.0530   -0.8080 ca        1 9B6     -0.167000
     13 C20         2.7640   -0.7700   -0.4110 ca        1 9B6      0.121100
     14 O21         2.6470   -0.4210    0.9320 os        1 9B6     -0.365900
     15 C22         2.1100   -1.3500    1.8370 c3        1 9B6      0.825700
     16 F23         3.0630   -2.2270    2.2450 f         1 9B6     -0.213633
     17 F24         1.7080   -0.6100    2.8980 f         1 9B6     -0.213633
     18 F25         1.0560   -2.0470    1.3460 f         1 9B6     -0.213633
     19 C26         3.1610    2.6360   -0.8150 c         1 9B6      0.778500
     20 O27         4.3350    2.6380   -1.2080 o         1 9B6     -0.593500
     21 N28         2.4870    3.7440   -0.2010 n         1 9B6     -0.404100
     22 C30         1.1890    3.3070    0.1290 ca        1 9B6     -0.146700
     23 C31         0.1120    3.9760    0.7690 ca        1 9B6      0.428200
     24 N33        -1.0770    3.4130    0.9120 nb        1 9B6     -0.641000
     25 C34        -1.2810    2.1380    0.4350 ca        1 9B6      0.267300
     26 C35        -2.5740    1.5310    0.5840 ca        1 9B6     -0.105300
     27 C37        -2.8100    0.2520    0.1330 ca        1 9B6     -0.104300
     28 C38        -4.1100   -0.3490    0.2680 cc        1 9B6     -0.284600
     29 C39        -5.3860    0.2670   -0.1360 cc        1 9B6      0.339600
     30 C40        -5.5380    1.5980   -0.7530 c3        1 9B6     -0.137400
     31 N44        -6.3860   -0.5880    0.1570 nd        1 9B6     -0.364300
     32 O45        -5.8840   -1.6760    0.7080 os        1 9B6     -0.120100
     33 C46        -4.4770   -1.5760    0.8000 cd        1 9B6      0.314000
     34 C47        -3.7830   -2.7120    1.4030 c3        1 9B6     -0.146400
     35 H011       -0.1050   -2.6310   -0.8290 h1        1 9B6      0.054033
     36 H012       -1.4630   -3.4540   -1.7670 h1        1 9B6      0.054033
     37 H013       -0.6100   -1.9820   -2.4730 h1        1 9B6      0.054033
     38 H12         2.6510    0.7400   -3.4850 ha        1 9B6      0.158000
     39 H14         3.3410   -1.5370   -4.1730 ha        1 9B6      0.145000
     40 H16         3.6720   -3.3330   -2.4690 ha        1 9B6      0.144000
     41 H18         3.3000   -2.8380   -0.0500 ha        1 9B6      0.153000
     42 H28         2.9900    4.3800    0.3710 hn        1 9B6      0.342500
     43 H31         0.2320    4.9990    1.1650 h4        1 9B6      0.036100
     44 H35        -3.3830    2.1050    1.0680 ha        1 9B6      0.167000
     45 H401       -6.2930    1.5770   -1.5780 hc        1 9B6      0.060700
     46 H402       -5.8750    2.3390    0.0160 hc        1 9B6      0.060700
     47 H403       -4.5560    1.9350   -1.1690 hc        1 9B6      0.060700
     48 H471       -3.3520   -2.4130    2.3920 hc        1 9B6      0.071367
     49 H472       -4.4850   -3.5690    1.5600 hc        1 9B6      0.071367
     50 H473       -2.9470   -3.0390    0.7310 hc        1 9B6      0.071367
@<TRIPOS>BOND
     1    1    2 1   
     2    1   35 1   
     3    1   36 1   
     4    1   37 1   
     5    2    3 1   
     6    3    4 ar  
     7    3   27 ar  
     8    4    5 ar  
     9    5    6 ar  
    10    5   25 ar  
    11    6    7 1   
    12    6   22 ar  
    13    7    8 1   
    14    7   19 1   
    15    8    9 ar  
    16    8   13 ar  
    17    9   10 ar  
    18    9   38 1   
    19   10   11 ar  
    20   10   39 1   
    21   11   12 ar  
    22   11   40 1   
    23   12   13 ar  
    24   12   41 1   
    25   13   14 1   
    26   14   15 1   
    27   15   16 1   
    28   15   17 1   
    29   15   18 1   
    30   19   20 2   
    31   19   21 1   
    32   21   22 1   
    33   21   42 1   
    34   22   23 ar  
    35   23   24 ar  
    36   23   43 1   
    37   24   25 ar  
    38   25   26 ar  
    39   26   27 ar  
    40   26   44 1   
    41   27   28 1   
    42   28   29 1   
    43   28   33 2   
    44   29   30 1   
    45   29   31 2   
    46   30   45 1   
    47   30   46 1   
    48   30   47 1   
    49   31   32 1   
    50   32   33 1   
    51   33   34 1   
    52   34   48 1   
    53   34   49 1   
    54   34   50 1   
@<TRIPOS>SUBSTRUCTURE
     1 9B6         1 TEMP              0 ****  ****    0 ROOT
