@<TRIPOS>MOLECULE
9BB
   32    31     1     0     0
SMALL
bcc


@<TRIPOS>ATOM
      1 N          -1.3560    2.1300    4.1940 n3        1 9BB     -0.366000
      2 O8         -0.9410   -0.5050    1.8370 o         1 9BB     -0.402000
      3 O9          1.4400   -2.4240   -4.6070 o         1 9BB     -0.575500
      4 CA         -0.2800    1.2380    3.9530 c2        1 9BB      0.277000
      5 CB          0.1630    0.4350    4.9380 c1        1 9BB     -0.580000
      6 SG         -0.5980    0.4920    6.5370 s         1 9BB      0.105000
      7 O10        -0.3400   -1.7750   -5.6870 o         1 9BB     -0.575500
      8 O11        -0.2280    1.0100    0.3050 os        1 9BB     -0.282000
      9 N13         0.3300    1.1920    2.6740 n         1 9BB     -0.332000
     10 C48        -0.3060    0.5060    1.6120 c2        1 9BB      0.409000
     11 C49         0.1130   -0.0850   -0.7840 c3        1 9BB      0.057000
     12 C50        -1.0420   -0.3910   -1.4530 c3        1 9BB     -0.168000
     13 C51        -0.8540   -1.2970   -2.6470 c3        1 9BB     -0.139000
     14 C52         0.2070   -0.7570   -3.7760 c3        1 9BB     -0.183000
     15 C53         1.4800   -0.4460   -2.7560 c3        1 9BB     -0.139000
     16 C54         1.1530    0.4030   -1.5750 c3        1 9BB     -0.168000
     17 C55         0.4300   -1.6770   -4.6960 c2        1 9BB      0.335000
     18 HN         -1.6990    2.2140    5.0370 hn        1 9BB      0.239000
     19 H2         -1.7000    2.6270    3.5080 hn        1 9BB      0.239000
     20 HB          0.9040   -0.1790    4.7720 ha        1 9BB      0.139000
     21 HSG         0.1260    0.0170    7.3330 hs        1 9BB     -0.016000
     22 HN13        1.1100    1.6360    2.5260 hn        1 9BB      0.264000
     23 H49         0.4270   -0.8910   -0.3260 h1        1 9BB      0.116000
     24 H50        -1.4530    0.4450   -1.7600 hc        1 9BB      0.076000
     25 H50A       -1.6560   -0.8270   -0.8260 hc        1 9BB      0.076000
     26 H51        -1.7230   -1.4210   -3.0780 hc        1 9BB      0.090750
     27 H51A       -0.5430   -2.1670   -2.3250 hc        1 9BB      0.090750
     28 H52        -0.0380    0.0200   -4.3170 hc        1 9BB      0.077000
     29 H53         2.1830    0.0000   -3.2700 hc        1 9BB      0.090750
     30 H53A        1.8300   -1.3010   -2.4330 hc        1 9BB      0.090750
     31 H54         0.9070    1.2960   -1.8940 hc        1 9BB      0.076000
     32 H54A        1.9550    0.4810   -1.0180 hc        1 9BB      0.076000
@<TRIPOS>BOND
     1    1    4 1   
     2    1   18 1   
     3    1   19 1   
     4    2   10 1   
     5    3   17 1   
     6    4    5 1   
     7    4    9 1   
     8    5   20 1   
     9    6   21 1   
    10    7   17 1   
    11    8   10 1   
    12    8   11 1   
    13    9   10 1   
    14    9   22 1   
    15   11   12 1   
    16   11   16 1   
    17   11   23 1   
    18   12   13 1   
    19   12   24 1   
    20   12   25 1   
    21   13   14 1   
    22   13   26 1   
    23   13   27 1   
    24   14   15 1   
    25   14   17 1   
    26   14   28 1   
    27   15   16 1   
    28   15   29 1   
    29   15   30 1   
    30   16   31 1   
    31   16   32 1   
@<TRIPOS>SUBSTRUCTURE
     1 9BB         1 TEMP              0 ****  ****    0 ROOT
