@<TRIPOS>MOLECULE
9BB
   32    32     1     0     0
SMALL
bcc


@<TRIPOS>ATOM
      1 N           4.0160    0.9010    0.9880 nh        1 9BB     -0.854600
      2 O8          1.1910    1.0200    0.9040 o         1 9BB     -0.592000
      3 O9         -5.9610   -0.1170    0.6690 o         1 9BB     -0.842300
      4 CA          3.8070   -0.1530    0.1110 c2        1 9BB      0.357600
      5 CB          4.8600   -0.7590   -0.5530 c2        1 9BB     -0.336400
      6 SG          6.4520   -0.2560   -0.3820 sh        1 9BB     -0.308400
      7 O10        -5.7950    0.9630   -1.2800 o         1 9BB     -0.842300
      8 O11         0.2540   -0.8800    0.0760 os        1 9BB     -0.442900
      9 N13         2.5120   -0.6850   -0.0650 n         1 9BB     -0.487100
     10 C48         1.3270   -0.0860    0.3510 c         1 9BB      0.756100
     11 C49        -1.0680   -0.3180    0.3440 c3        1 9BB      0.167100
     12 C50        -1.4890    0.5490   -0.8320 c3        1 9BB     -0.090900
     13 C51        -2.9380    0.9670   -0.6780 c3        1 9BB     -0.057400
     14 C52        -3.8520   -0.2330   -0.5200 c3        1 9BB     -0.191700
     15 C53        -3.4140   -1.0900    0.6500 c3        1 9BB     -0.057400
     16 C54        -1.9710   -1.5340    0.5150 c3        1 9BB     -0.090900
     17 C55        -5.3190    0.2440   -0.3570 c         1 9BB      0.916600
     18 HN          3.2480    1.4820    1.2430 hn        1 9BB      0.442300
     19 H2          4.9120    1.3310    0.9100 hn        1 9BB      0.442300
     20 HB          4.6770   -1.6390   -1.1780 h4        1 9BB      0.139000
     21 HSG         6.6350    0.3030   -1.5690 hs        1 9BB      0.157800
     22 HN13        2.4480   -1.5650   -0.5270 hn        1 9BB      0.350500
     23 H49        -1.0190    0.2870    1.2890 h1        1 9BB      0.074700
     24 H50        -0.8230    1.4490   -0.8800 hc        1 9BB      0.036450
     25 H50A       -1.3580   -0.0290   -1.7840 hc        1 9BB      0.036450
     26 H51        -3.0420    1.6350    0.2170 hc        1 9BB      0.052950
     27 H51A       -3.2640    1.5540   -1.5760 hc        1 9BB      0.052950
     28 H52        -3.8120   -0.8460   -1.4600 hc        1 9BB      0.032700
     29 H53        -3.5550   -0.5110    1.6010 hc        1 9BB      0.052950
     30 H53A       -4.0790   -1.9900    0.7160 hc        1 9BB      0.052950
     31 H54        -1.8560   -2.2050   -0.3750 hc        1 9BB      0.036450
     32 H54A       -1.6510   -2.1100    1.4200 hc        1 9BB      0.036450
@<TRIPOS>BOND
     1    1    4 1   
     2    1   18 1   
     3    1   19 1   
     4    2   10 2   
     5    3   17 1   
     6    4    5 2   
     7    4    9 1   
     8    5    6 1   
     9    5   20 1   
    10    6   21 1   
    11    7   17 1   
    12    8   10 1   
    13    8   11 1   
    14    9   10 1   
    15    9   22 1   
    16   11   12 1   
    17   11   16 1   
    18   11   23 1   
    19   12   13 1   
    20   12   24 1   
    21   12   25 1   
    22   13   14 1   
    23   13   26 1   
    24   13   27 1   
    25   14   15 1   
    26   14   17 1   
    27   14   28 1   
    28   15   16 1   
    29   15   29 1   
    30   15   30 1   
    31   16   31 1   
    32   16   32 1   
@<TRIPOS>SUBSTRUCTURE
     1 9BB         1 TEMP              0 ****  ****    0 ROOT
