@<TRIPOS>MOLECULE
9BD
   46    40     1     0     0
SMALL
bcc


@<TRIPOS>ATOM
      1 C1         -8.0900   -1.0500   -0.1540 c3        1 9BD     -0.073000
      2 C2         -5.8250   -0.3200   -0.4070 c3        1 9BD     -0.029000
      3 C6         -0.1440   -1.3530   -0.8200 c1        1 9BD      0.037000
      4 C9         -1.4030    1.0850   -0.1600 c1        1 9BD      0.034000
      5 C12         2.8350    0.6610   -0.0100 c1        1 9BD     -0.254000
      6 C15         2.6330   -1.6300   -0.6380 c1        1 9BD     -0.215000
      7 C18         6.8770    2.3080    1.5690 c1        1 9BD     -0.150500
      8 O1         -6.7570   -1.4320   -0.2090 os        1 9BD     -0.280000
      9 C3         -4.4150   -0.8090   -0.2130 c3        1 9BD     -0.029000
     10 O2         -3.5370   -0.0810   -1.0590 os        1 9BD     -0.206000
     11 C4         -2.1790    0.0020   -0.5620 c2        1 9BD      0.084000
     12 C5         -1.5630   -1.2220   -0.8940 c2        1 9BD     -0.183000
     13 C7          0.6250   -0.2880   -0.4240 c1        1 9BD     -0.098000
     14 C8          0.0020    0.9560   -0.0850 c1        1 9BD     -0.092000
     15 O3         -2.1520    2.2550   -0.3690 os        1 9BD     -0.214000
     16 C10        -2.3170    3.0540    0.7920 c3        1 9BD     -0.077000
     17 C11         2.0460   -0.4320   -0.3320 c1        1 9BD      0.096000
     18 C13         4.2410    0.5370    0.0010 c1        1 9BD      0.189000
     19 N1          4.8210   -0.6510   -0.3030 n1        1 9BD     -0.249000
     20 C14         4.0350   -1.7470   -0.6250 c1        1 9BD      0.192000
     21 C16         1.8390   -2.7220   -1.0450 c2        1 9BD     -0.004000
     22 N2          0.4670   -2.5850   -1.1340 n2        1 9BD     -0.144000
     23 N3          5.0880   -2.6190   -0.8810 n3        1 9BD     -0.332000
     24 N4          5.1850    1.1300    0.8320 n2        1 9BD     -0.130500
     25 C17         6.1780    1.9250    0.4450 c1        1 9BD     -0.150500
     26 N5          6.2960    1.7360    2.6330 n2        1 9BD     -0.130500
     27 C19         5.2480    1.0040    2.1940 c1        1 9BD     -0.083000
     28 H1         -8.3490   -0.6640   -0.9950 h1        1 9BD      0.074667
     29 H1A        -8.6480   -1.8390    0.0300 h1        1 9BD      0.074667
     30 H1B        -8.2080   -0.4020    0.5460 h1        1 9BD      0.074667
     31 H2         -5.9250    0.0260   -1.3010 h1        1 9BD      0.087000
     32 H2A        -6.0260    0.4270    0.2760 h1        1 9BD      0.087000
     33 H12         2.4240    1.5040    0.2030 ha        1 9BD      0.154000
     34 H18         7.6420    2.8810    1.5860 DU        1 9BD      0.193333
     35 H3         -4.3690   -1.7380   -0.4300 h1        1 9BD      0.100500
     36 H3A        -4.1550   -0.6820    0.7000 h1        1 9BD      0.100500
     37 H5         -2.1010   -1.9710   -1.1710 ha        1 9BD      0.160000
     38 H8          0.5570    1.7260    0.2000 ha        1 9BD      0.152000
     39 H10        -1.4080    3.3490    1.1310 h1        1 9BD      0.086667
     40 H10A       -2.7610    2.5470    1.4680 h1        1 9BD      0.086667
     41 H10B       -2.8470    3.8330    0.5740 h1        1 9BD      0.086667
     42 H16         2.2740   -3.6010   -1.2820 h4        1 9BD      0.155000
     43 HN3         4.9280   -3.4140   -1.2270 hn        1 9BD      0.215500
     44 HN3A        5.9140   -2.3730   -0.7080 hn        1 9BD      0.215500
     45 H17         6.3790    2.1980   -0.4900 DU        1 9BD      0.193333
     46 H19         4.6440    0.4790    2.7480 DU        1 9BD      0.193333
@<TRIPOS>BOND
     1    1    8 1   
     2    1   28 1   
     3    1   29 1   
     4    1   30 1   
     5    2    8 1   
     6    2    9 1   
     7    2   31 1   
     8    2   32 1   
     9    3   12 1   
    10    3   22 1   
    11    4   11 1   
    12    4   15 1   
    13    5   18 1   
    14    5   33 1   
    15    6   17 1   
    16    6   21 1   
    17    7   25 1   
    18    7   26 1   
    19    9   10 1   
    20    9   35 1   
    21    9   36 1   
    22   10   11 1   
    23   11   12 1   
    24   12   37 1   
    25   13   14 1   
    26   13   17 1   
    27   14   38 1   
    28   15   16 1   
    29   16   39 1   
    30   16   40 1   
    31   16   41 1   
    32   19   20 1   
    33   20   23 1   
    34   21   22 1   
    35   21   42 1   
    36   23   43 1   
    37   23   44 1   
    38   24   25 1   
    39   24   27 1   
    40   26   27 1   
@<TRIPOS>SUBSTRUCTURE
     1 9BD         1 TEMP              0 ****  ****    0 ROOT
