@<TRIPOS>MOLECULE
9BD
   46    49     1     0     0
SMALL
bcc


@<TRIPOS>ATOM
      1 C1          8.2710   -0.5560   -0.9860 c3        1 9BD      0.117700
      2 C2          6.4670   -0.0200    0.4470 c3        1 9BD      0.122400
      3 C6          0.9640    1.4990    0.1200 ca        1 9BD      0.414600
      4 C9          1.8990   -1.1500    0.3330 ca        1 9BD      0.112100
      5 C12        -2.3510   -0.3050    0.0380 ca        1 9BD     -0.318300
      6 C15        -1.7650    2.0520   -0.0950 ca        1 9BD     -0.338600
      7 C18        -6.6760   -2.0060   -0.0110 cc        1 9BD      0.282200
      8 O1          7.0720    0.1820   -0.8280 os        1 9BD     -0.423600
      9 C3          5.0990    0.6530    0.3860 c3        1 9BD      0.119400
     10 O2          4.1460   -0.4210    0.4280 os        1 9BD     -0.305900
     11 C4          2.8250   -0.0550    0.3230 ca        1 9BD      0.137100
     12 C5          2.3620    1.2420    0.2190 ca        1 9BD     -0.238300
     13 C7          0.0480    0.4110    0.1280 ca        1 9BD     -0.140300
     14 C8          0.5420   -0.9090    0.2360 ca        1 9BD     -0.168000
     15 C10         1.5920   -3.5060    0.4440 c3        1 9BD      0.107700
     16 C11        -1.3640    0.7000    0.0220 ca        1 9BD      0.090000
     17 C13        -3.7060    0.0640   -0.0840 ca        1 9BD      0.575800
     18 N1         -4.1180    1.3660   -0.2200 nb        1 9BD     -0.774000
     19 C14        -3.1760    2.3430   -0.2090 ca        1 9BD      0.712200
     20 C16        -0.7400    3.0650   -0.0760 ca        1 9BD      0.451200
     21 N2          0.5430    2.8240    0.0220 nb        1 9BD     -0.664000
     22 N3         -3.6150    3.6650   -0.2510 nh        1 9BD     -0.934500
     23 N4         -4.7090   -0.9280   -0.0770 na        1 9BD     -0.257700
     24 C17        -6.0940   -0.7350    0.0790 cd        1 9BD     -0.207600
     25 N5         -5.6900   -2.9770   -0.2280 nc        1 9BD     -0.655000
     26 C19        -4.5210   -2.3190   -0.2690 cd        1 9BD      0.402400
     27 H1          9.0240   -0.2520   -0.2180 h1        1 9BD      0.035033
     28 H1A         8.0720   -1.6540   -0.9110 h1        1 9BD      0.035033
     29 H1B         8.6280   -0.2910   -2.0120 h1        1 9BD      0.035033
     30 H2          6.3620   -1.1170    0.6620 h1        1 9BD      0.049200
     31 H2A         7.1030    0.4610    1.2360 h1        1 9BD      0.049200
     32 H12        -2.0670   -1.3570    0.1550 ha        1 9BD      0.150000
     33 H18        -7.7280   -2.2780    0.0670 h4        1 9BD      0.046100
     34 H3          4.9420    1.3190    1.2720 h1        1 9BD      0.059200
     35 H3A         4.9800    1.2330   -0.5670 h1        1 9BD      0.059200
     36 H5          3.0580    2.0940    0.2110 ha        1 9BD      0.162000
     37 H8         -0.1630   -1.7530    0.2420 ha        1 9BD      0.143000
     38 H10         2.2800   -4.3840    0.5370 h1        1 9BD      0.046700
     39 H10A        0.8950   -3.4570    1.3160 h1        1 9BD      0.046700
     40 H10B        1.0200   -3.5530   -0.5140 h1        1 9BD      0.046700
     41 H16        -1.0080    4.1360   -0.1350 h4        1 9BD      0.018100
     42 HN3        -2.9890    4.3140   -0.6670 hn        1 9BD      0.420800
     43 HN3A       -4.5780    3.8190   -0.4490 hn        1 9BD      0.420800
     44 H17        -6.5300    0.2510    0.2380 h4        1 9BD      0.196000
     45 H19        -3.5370   -2.7670   -0.4370 h5        1 9BD      0.062100
     46 O3          2.4810   -2.3940    0.4460 os        1 9BD     -0.299900
@<TRIPOS>BOND
     1    1    8 1   
     2    1   27 1   
     3    1   28 1   
     4    1   29 1   
     5    2    8 1   
     6    2    9 1   
     7    2   30 1   
     8    2   31 1   
     9    3   12 ar  
    10    3   13 ar  
    11    3   21 ar  
    12    4   11 ar  
    13    4   14 ar  
    14    4   46 1   
    15    5   16 ar  
    16    5   17 ar  
    17    5   32 1   
    18    6   16 ar  
    19    6   19 ar  
    20    6   20 ar  
    21    7   24 2   
    22    7   25 1   
    23    7   33 1   
    24    9   10 1   
    25    9   34 1   
    26    9   35 1   
    27   10   11 1   
    28   11   12 ar  
    29   12   36 1   
    30   13   14 ar  
    31   13   16 ar  
    32   14   37 1   
    33   15   38 1   
    34   15   39 1   
    35   15   40 1   
    36   15   46 1   
    37   17   18 ar  
    38   17   23 1   
    39   18   19 ar  
    40   19   22 1   
    41   20   21 ar  
    42   20   41 1   
    43   22   42 1   
    44   22   43 1   
    45   23   24 1   
    46   23   26 1   
    47   24   44 1   
    48   25   26 2   
    49   26   45 1   
@<TRIPOS>SUBSTRUCTURE
     1 9BD         1 TEMP              0 ****  ****    0 ROOT
