@<TRIPOS>MOLECULE
9BD
   46    45     1     0     0
SMALL
bcc


@<TRIPOS>ATOM
      1 C1          0.1460    0.8950    1.0350 c3        1 9BD      0.116700
      2 C2          4.0050   -2.4490    0.6380 c1        1 9BD     -0.169000
      3 C6          7.2340    0.9320    1.1370 ca        1 9BD      0.002800
      4 C9          5.5440    3.1410    1.5420 ca        1 9BD      0.048100
      5 C12         9.8750    3.5910    1.6400 cc        1 9BD     -0.375600
      6 C15        10.0180    1.2080    1.2110 cd        1 9BD     -0.428700
      7 C18        15.7380    5.2240    2.4410 c1        1 9BD     -0.169000
      8 O1          1.3530    1.0410    0.3170 oh        1 9BD     -0.629800
      9 C3          3.1820   -1.6300    0.3470 c1        1 9BD     -0.169000
     10 O2          3.6290    1.7510    1.2710 oh        1 9BD     -0.504100
     11 C4          4.9950    1.8550    1.3020 ca        1 9BD      0.153100
     12 C5          5.8320    0.7620    1.0980 ca        1 9BD     -0.252000
     13 C7          7.7910    2.2200    1.3800 ca        1 9BD     -0.111800
     14 C8          6.9230    3.3090    1.5730 ca        1 9BD     -0.063000
     15 C10         3.8990    4.6630    0.8010 c3        1 9BD      0.115700
     16 C11         9.2360    2.3670    1.4170 cd        1 9BD      0.125800
     17 C13        11.2940    3.6210    1.6470 cc        1 9BD      0.723500
     18 N1         12.0840    2.5210    1.4760 nd        1 9BD     -0.809000
     19 C14        11.4580    1.3220    1.2500 cd        1 9BD      0.623600
     20 C16         9.4230   -0.0780    0.9650 c1        1 9BD     -0.033900
     21 N2          8.0950   -0.1640    0.9380 nu        1 9BD     -0.151500
     22 N3         12.2190    0.1980    1.0680 nv        1 9BD     -0.508100
     23 N4         11.9710    4.8630    1.7780 nu        1 9BD     -0.607800
     24 C17        15.2450    4.1830    2.1180 c1        1 9BD     -0.169000
     25 N5         10.8300    6.7900    2.9520 n1        1 9BD     -0.380800
     26 C19        11.3510    5.8770    2.4410 c1        1 9BD      0.337600
     27 H1          1.5770    1.9810    0.3150 ho        1 9BD      0.416000
     28 H1A         0.2670    1.2480    2.0890 h1        1 9BD      0.033367
     29 H1B        -0.6810    1.4600    0.5370 h1        1 9BD      0.033367
     30 H2         -0.0730   -0.2020    1.0180 h1        1 9BD      0.033367
     31 H2A         4.7260   -3.1810    0.8980 ha        1 9BD      0.171000
     32 H12         9.3030    4.5140    1.7980 ha        1 9BD      0.156000
     33 H18        16.1790    6.1460    2.7270 ha        1 9BD      0.171000
     34 H3          3.3920    0.8170    1.1250 ho        1 9BD      0.444000
     35 H3A         2.4400   -0.9110    0.0830 ha        1 9BD      0.171000
     36 H5          5.3900   -0.2310    0.9100 ha        1 9BD      0.152000
     37 H8          7.3230    4.3160    1.7690 ha        1 9BD      0.161000
     38 H10         4.5060    4.9670   -0.0860 h1        1 9BD      0.042700
     39 H10A        3.3640    5.5430    1.2380 h1        1 9BD      0.042700
     40 H10B        3.1770    3.8570    0.5210 h1        1 9BD      0.042700
     41 H16         7.6740   -1.0510    0.7650 hn        1 9BD      0.299700
     42 HN3        11.7430   -0.6570    0.8950 hn        1 9BD      0.300200
     43 HN3A       13.2060    0.2370    1.0640 hn        1 9BD      0.300200
     44 H17        14.8090    3.2560    1.8310 ha        1 9BD      0.171000
     45 H19        12.9710    4.8380    1.8870 hn        1 9BD      0.466800
     46 O3          4.7470    4.2280    1.8630 os        1 9BD     -0.324900
@<TRIPOS>BOND
     1    1    8 1   
     2    1   28 1   
     3    1   29 1   
     4    1   30 1   
     5    2    9 3   
     6    2   31 1   
     7    3   12 ar  
     8    3   13 ar  
     9    3   21 1   
    10    4   11 ar  
    11    4   14 ar  
    12    4   46 1   
    13    5   16 2   
    14    5   17 1   
    15    5   32 1   
    16    6   16 1   
    17    6   19 1   
    18    6   20 2   
    19    7   24 3   
    20    7   33 1   
    21    8   27 1   
    22    9   35 1   
    23   10   11 1   
    24   10   34 1   
    25   11   12 ar  
    26   12   36 1   
    27   13   14 ar  
    28   13   16 1   
    29   14   37 1   
    30   15   38 1   
    31   15   39 1   
    32   15   40 1   
    33   15   46 1   
    34   17   18 2   
    35   17   23 1   
    36   18   19 1   
    37   19   22 2   
    38   20   21 2   
    39   21   41 1   
    40   22   42 1   
    41   22   43 1   
    42   23   26 1   
    43   23   45 1   
    44   24   44 1   
    45   25   26 3   
@<TRIPOS>SUBSTRUCTURE
     1 9BD         1 TEMP              0 ****  ****    0 ROOT
