@<TRIPOS>MOLECULE
9BE
   20    20     1     0     0
SMALL
bcc


@<TRIPOS>ATOM
      1 S01        -0.0730    0.0130   -0.1030 s         1 9BE      0.126600
      2 C02         1.4200    0.0200   -0.0510 c         1 9BE      0.043200
      3 N03         2.2890    0.0180    1.1500 n4        1 9BE     -0.625800
      4 C04         1.5700    0.0080    2.4720 c3        1 9BE      0.166100
      5 C05         2.5510    0.0040    3.5910 ca        1 9BE     -0.195300
      6 C06         3.0030   -1.2120    4.1200 ca        1 9BE     -0.100500
      7 C07         3.8890   -1.2140    5.1950 ca        1 9BE     -0.117000
      8 C08         4.3250   -0.0060    5.7450 ca        1 9BE     -0.075000
      9 C09         3.8730    1.2060    5.2200 ca        1 9BE     -0.117000
     10 C10         2.9870    1.2140    4.1440 ca        1 9BE     -0.100500
     11 H2          2.1150    0.0280   -0.9290 hx        1 9BE      0.093200
     12 H3          0.9140   -0.9090    2.5040 hx        1 9BE      0.111700
     13 H4          0.9100    0.9220    2.5150 hx        1 9BE      0.111700
     14 H5          2.6470   -2.1670    3.7030 ha        1 9BE      0.139000
     15 H6          4.2390   -2.1700    5.6170 ha        1 9BE      0.162000
     16 H7          5.0220   -0.0110    6.5990 ha        1 9BE      0.163000
     17 H8          4.2110    2.1580    5.6600 ha        1 9BE      0.162000
     18 H9          2.6190    2.1720    3.7470 ha        1 9BE      0.139000
     19 H1          2.9050   -0.8070    1.1130 hn        1 9BE      0.456800
     20 H032        2.8980    0.8490    1.1210 hn        1 9BE      0.456800
@<TRIPOS>BOND
     1    1    2 2   
     2    2    3 1   
     3    2   11 1   
     4    3    4 1   
     5    3   19 1   
     6    3   20 1   
     7    4    5 1   
     8    4   12 1   
     9    4   13 1   
    10    5    6 ar  
    11    5   10 ar  
    12    6    7 ar  
    13    6   14 1   
    14    7    8 ar  
    15    7   15 1   
    16    8    9 ar  
    17    8   16 1   
    18    9   10 ar  
    19    9   17 1   
    20   10   18 1   
@<TRIPOS>SUBSTRUCTURE
     1 9BE         1 TEMP              0 ****  ****    0 ROOT
