@<TRIPOS>MOLECULE
9BE
   20    20     1     0     0
SMALL
bcc


@<TRIPOS>ATOM
      1 S01        -0.0730    0.0180   -0.1030 s         1 9BE      0.126600
      2 C02         1.4200    0.0220   -0.0510 c         1 9BE      0.043200
      3 N03         2.2890    0.0170    1.1500 n4        1 9BE     -0.625800
      4 C04         1.5700    0.0060    2.4720 c3        1 9BE      0.166100
      5 C05         2.5510    0.0030    3.5910 ca        1 9BE     -0.195300
      6 C06         2.9990   -1.2130    4.1240 ca        1 9BE     -0.101000
      7 C07         3.8850   -1.2130    5.2000 ca        1 9BE     -0.117000
      8 C08         4.3250   -0.0050    5.7450 ca        1 9BE     -0.075000
      9 C09         3.8770    1.2070    5.2160 ca        1 9BE     -0.117000
     10 C10         2.9910    1.2140    4.1400 ca        1 9BE     -0.101000
     11 H2          2.1150    0.0290   -0.9290 hx        1 9BE      0.093200
     12 H3          0.9150   -0.9120    2.5040 hx        1 9BE      0.111700
     13 H4          0.9090    0.9200    2.5150 hx        1 9BE      0.111700
     14 H5          2.6400   -2.1680    3.7110 ha        1 9BE      0.139000
     15 H6          4.2320   -2.1690    5.6250 ha        1 9BE      0.162000
     16 H7          5.0220   -0.0090    6.5990 ha        1 9BE      0.163000
     17 H8          4.2170    2.1590    5.6530 ha        1 9BE      0.162000
     18 H9          2.6260    2.1720    3.7390 ha        1 9BE      0.139000
     19 H1          2.9040   -0.8090    1.1120 hn        1 9BE      0.456800
     20 H032        2.8990    0.8470    1.1220 hn        1 9BE      0.456800
@<TRIPOS>BOND
     1    1    2 2   
     2    2    3 1   
     3    2   11 1   
     4    3    4 1   
     5    3   19 1   
     6    3   20 1   
     7    4    5 1   
     8    4   12 1   
     9    4   13 1   
    10    5    6 ar  
    11    5   10 ar  
    12    6    7 ar  
    13    6   14 1   
    14    7    8 ar  
    15    7   15 1   
    16    8    9 ar  
    17    8   16 1   
    18    9   10 ar  
    19    9   17 1   
    20   10   18 1   
@<TRIPOS>SUBSTRUCTURE
     1 9BE         1 TEMP              0 ****  ****    0 ROOT
