@<TRIPOS>MOLECULE
9BM
   58    53     1     0     0
SMALL
bcc


@<TRIPOS>ATOM
      1 C01         0.5340    1.6760    5.3320 c3        1 9BM     -0.160000
      2 C02         1.8910    0.9730    5.3680 c2        1 9BM     -0.068000
      3 N01         2.6790    0.8210    6.4580 n2        1 9BM     -0.054000
      4 O01         3.8410    0.1560    6.0620 os        1 9BM     -0.077000
      5 C03         3.7500   -0.0930    4.7300 c1        1 9BM     -0.023000
      6 C04         4.8120   -0.7760    3.8700 c2        1 9BM     -0.160000
      7 C05         2.5450    0.4090    4.2850 c1        1 9BM     -0.106000
      8 C06         1.9910    0.2930    2.8530 c1        1 9BM     -0.074000
      9 C07         0.8350   -0.4230    2.5320 c1        1 9BM      0.053500
     10 C09         0.9800    0.3650    0.2740 c1        1 9BM      0.053500
     11 C10         0.4970    0.3690   -1.0370 c1        1 9BM      0.101000
     12 N02        -0.7820    0.4050   -1.7240 n3        1 9BM     -0.247000
     13 C11        -1.1160   -0.6260   -2.6890 c2        1 9BM      0.120000
     14 C12        -0.1230   -1.4710   -3.1750 c2        1 9BM     -0.179000
     15 C13        -0.4510   -2.4900   -4.0680 c1        1 9BM     -0.109000
     16 C14        -1.7740   -2.6640   -4.4750 c1        1 9BM     -0.152000
     17 C15        -2.7690   -1.8190   -3.9890 c1        1 9BM     -0.152000
     18 C16        -2.4440   -0.8000   -3.0970 c1        1 9BM     -0.102000
     19 C17        -3.5360    0.2000   -2.6330 c3        1 9BM     -0.003000
     20 C19        -4.9190   -0.3140   -3.0640 c3        1 9BM     -0.209667
     21 C18        -3.2780    1.5740   -3.2730 c3        1 9BM     -0.209667
     22 C20        -3.4930    0.3310   -1.1040 c3        1 9BM     -0.209667
     23 C21         1.1600    1.0770   -2.0090 c1        1 9BM     -0.186000
     24 C22         2.3170    1.7940   -1.6860 c1        1 9BM     -0.014000
     25 N1          2.7910    1.7890   -0.3970 n1        1 9BM     -0.175000
     26 C23         2.1230    1.0730    0.5890 c1        1 9BM     -0.074000
     27 C24         2.6300    1.0350    1.8880 c2        1 9BM     -0.045000
     28 C1          1.1800    2.0510   -3.1820 c2        1 9BM      0.369000
     29 C00         1.0160   -2.6390    3.3760 c3        1 9BM     -0.065000
     30 O1          0.7840    3.2400   -3.0220 o         1 9BM     -0.553500
     31 O02         1.6350    1.6820   -4.3010 o         1 9BM     -0.553500
     32 O05         0.9460   -1.2520    3.6750 o         1 9BM     -0.217000
     33 N07         0.3360   -0.3850    1.2520 n2        1 9BM     -0.175000
     34 H011        0.4390    2.1590    4.4840 hc        1 9BM      0.100000
     35 H012       -0.1830    1.0080    5.4100 hc        1 9BM      0.100000
     36 H013        0.4740    2.3110    6.0810 hc        1 9BM      0.100000
     37 H041        4.3750   -1.2960    3.1620 ha        1 9BM      0.102667
     38 H042        5.3530   -1.3760    4.4310 ha        1 9BM      0.102667
     39 H043        5.3930   -0.0940    3.4640 ha        1 9BM      0.102667
     40 H24         3.4400    1.5420    2.1150 ha        1 9BM      0.149000
     41 H02        -1.3550    1.1050   -1.5850 hn        1 9BM      0.273000
     42 H12         0.8070   -1.3490   -2.8900 ha        1 9BM      0.137000
     43 H13         0.2540   -3.0740   -4.4270 ha        1 9BM      0.116000
     44 H14        -2.0050   -3.3860   -5.1010 ha        1 9BM      0.115500
     45 H15        -3.7000   -1.9410   -4.2750 ha        1 9BM      0.115500
     46 H181       -2.5360    2.0180   -2.8080 hc        1 9BM      0.076889
     47 H182       -4.0880    2.1280   -3.1990 hc        1 9BM      0.076889
     48 H183       -3.0460    1.4560   -4.2210 hc        1 9BM      0.076889
     49 H191       -5.1070   -1.1680   -2.6140 hc        1 9BM      0.076889
     50 H192       -4.9300   -0.4480   -4.0380 hc        1 9BM      0.076889
     51 H193       -5.6070    0.3450   -2.8160 hc        1 9BM      0.076889
     52 H201       -4.3950    0.5350   -0.7670 hc        1 9BM      0.076889
     53 H202       -2.8800    1.0550   -0.8550 hc        1 9BM      0.076889
     54 H203       -3.1800   -0.5140   -0.7110 hc        1 9BM      0.076889
     55 H22         2.7910    2.3000   -2.3810 ha        1 9BM      0.191000
     56 H001        1.1480   -3.1480    4.2070 h1        1 9BM      0.087333
     57 H002        1.7690   -2.8050    2.7670 h1        1 9BM      0.087333
     58 H003        0.1800   -2.9240    2.9480 h1        1 9BM      0.087333
@<TRIPOS>BOND
     1    1    2 1   
     2    1   34 1   
     3    1   35 1   
     4    1   36 1   
     5    2    3 1   
     6    2    7 1   
     7    3    4 1   
     8    4    5 1   
     9    5    7 1   
    10    6   37 1   
    11    6   38 1   
    12    6   39 1   
    13    8    9 1   
    14    8   27 1   
    15    9   33 1   
    16   10   26 1   
    17   10   33 1   
    18   11   12 1   
    19   11   23 1   
    20   12   13 1   
    21   12   41 1   
    22   13   14 1   
    23   13   18 1   
    24   14   15 1   
    25   14   42 1   
    26   15   43 1   
    27   16   17 1   
    28   16   44 1   
    29   17   45 1   
    30   18   19 1   
    31   19   20 1   
    32   19   21 1   
    33   19   22 1   
    34   20   49 1   
    35   20   50 1   
    36   20   51 1   
    37   21   46 1   
    38   21   47 1   
    39   21   48 1   
    40   22   52 1   
    41   22   53 1   
    42   22   54 1   
    43   23   28 1   
    44   24   25 1   
    45   24   55 1   
    46   26   27 1   
    47   27   40 1   
    48   28   30 1   
    49   28   31 1   
    50   29   32 1   
    51   29   56 1   
    52   29   57 1   
    53   29   58 1   
@<TRIPOS>SUBSTRUCTURE
     1 9BM         1 TEMP              0 ****  ****    0 ROOT
