@<TRIPOS>MOLECULE
9BM
   59    62     1     0     0
SMALL
bcc


@<TRIPOS>ATOM
      1 C01         0.6080    0.8040    0.2820 c3        1 9BM     -0.137400
      2 C02         2.0230    0.3900    0.2780 cc        1 9BM      0.342600
      3 N01         2.8100    0.2600    1.3650 nd        1 9BM     -0.362300
      4 O01         4.0090   -0.1450    0.9920 os        1 9BM     -0.117100
      5 C03         4.0580   -0.3060   -0.4100 cd        1 9BM      0.313000
      6 C04         5.3290   -0.7540   -0.9760 c3        1 9BM     -0.145400
      7 C05         2.8090    0.0250   -0.9140 cc        1 9BM     -0.289600
      8 C06         2.3420    0.0400   -2.2740 ca        1 9BM     -0.108300
      9 C07         2.3700   -1.1500   -3.1030 ca        1 9BM      0.668600
     10 C09         1.3430   -0.0850   -4.8920 ca        1 9BM      0.339300
     11 C10         0.7910   -0.0820   -6.2310 ca        1 9BM     -0.050700
     12 N02         0.6430   -1.3150   -7.0150 n4        1 9BM     -0.524800
     13 C11         0.0030   -2.4730   -6.3830 ca        1 9BM     -0.002400
     14 C12         0.8790   -3.4610   -5.8810 ca        1 9BM     -0.093000
     15 C13         0.3910   -4.6040   -5.2640 ca        1 9BM     -0.138000
     16 C14        -0.9840   -4.7660   -5.1200 ca        1 9BM     -0.095000
     17 C15        -1.8490   -3.8180   -5.6520 ca        1 9BM     -0.135000
     18 C16        -1.4000   -2.6770   -6.3430 ca        1 9BM     -0.003300
     19 C17        -2.4290   -1.8170   -7.0450 c3        1 9BM     -0.020700
     20 C19        -3.8320   -2.4310   -6.9670 c3        1 9BM     -0.105100
     21 C18        -2.0850   -1.6890   -8.5310 c3        1 9BM     -0.105100
     22 C20        -2.5320   -0.4460   -6.3860 c3        1 9BM     -0.105100
     23 C21         0.4730    1.1310   -6.8260 ca        1 9BM     -0.197900
     24 C22         0.5590    2.3240   -6.0310 ca        1 9BM      0.430200
     25 N1          0.9490    2.3580   -4.7740 nb        1 9BM     -0.625000
     26 C23         1.3560    1.1750   -4.1970 ca        1 9BM      0.261300
     27 C24         1.8420    1.1870   -2.8480 ca        1 9BM     -0.094300
     28 C1          0.0430    1.3160   -8.2850 c         1 9BM      0.910200
     29 C00         3.0960   -3.4420   -3.2540 c3        1 9BM      0.116700
     30 O1         -0.4540    2.4130   -8.6080 o         1 9BM     -0.772300
     31 O02         0.2350    0.3340   -9.0720 o         1 9BM     -0.772300
     32 O05         2.9770   -2.2330   -2.5060 os        1 9BM     -0.436100
     33 N07         1.8770   -1.2240   -4.3430 nb        1 9BM     -0.769000
     34 H011       -0.0370   -0.0480    0.6180 hc        1 9BM      0.061367
     35 H012        0.2970    1.1040   -0.7490 hc        1 9BM      0.061367
     36 H013        0.4410    1.6660    0.9750 hc        1 9BM      0.061367
     37 H041        5.8100    0.0820   -1.5450 hc        1 9BM      0.071033
     38 H042        6.0290   -1.0860   -0.1680 hc        1 9BM      0.071033
     39 H043        5.1430   -1.6080   -1.6770 hc        1 9BM      0.071033
     40 H24         1.8190    2.1330   -2.2800 ha        1 9BM      0.174000
     41 H02         0.1210   -1.0590   -7.9110 hn        1 9BM      0.483300
     42 H12         1.9740   -3.3360   -5.9620 ha        1 9BM      0.148000
     43 H13         1.0870   -5.3720   -4.8940 ha        1 9BM      0.145000
     44 H14        -1.3880   -5.6470   -4.5990 ha        1 9BM      0.146000
     45 H15        -2.9280   -4.0000   -5.5170 ha        1 9BM      0.155000
     46 H181       -1.3410   -2.4610   -8.8420 hc        1 9BM      0.050478
     47 H182       -1.6840   -0.6710   -8.7770 hc        1 9BM      0.050478
     48 H183       -2.9960   -1.8350   -9.1620 hc        1 9BM      0.050478
     49 H191       -4.2010   -2.4560   -5.9140 hc        1 9BM      0.050478
     50 H192       -4.5420   -1.8010   -7.5590 hc        1 9BM      0.050478
     51 H193       -3.8410   -3.4610   -7.3960 hc        1 9BM      0.050478
     52 H201       -1.6690    0.2060   -6.6570 hc        1 9BM      0.050478
     53 H202       -3.4600    0.0720   -6.7350 hc        1 9BM      0.050478
     54 H203       -2.5800   -0.5490   -5.2760 hc        1 9BM      0.050478
     55 H22         0.2590    3.2810   -6.5130 h4        1 9BM      0.080100
     56 H001        2.0880   -3.8410   -3.5200 h1        1 9BM      0.052367
     57 H002        3.7090   -3.2780   -4.1730 h1        1 9BM      0.052367
     58 H003        3.6230   -4.1250   -2.5390 h1        1 9BM      0.052367
     59 H022        1.5930   -1.5910   -7.2950 hn        1 9BM      0.483300
@<TRIPOS>BOND
     1    1    2 1   
     2    1   34 1   
     3    1   35 1   
     4    1   36 1   
     5    2    3 2   
     6    2    7 1   
     7    3    4 1   
     8    4    5 1   
     9    5    6 1   
    10    5    7 2   
    11    6   37 1   
    12    6   38 1   
    13    6   39 1   
    14    7    8 1   
    15    8    9 ar  
    16    8   27 ar  
    17    9   32 1   
    18    9   33 ar  
    19   10   11 ar  
    20   10   26 ar  
    21   10   33 ar  
    22   11   12 1   
    23   11   23 ar  
    24   12   13 1   
    25   12   41 1   
    26   12   59 1   
    27   13   14 ar  
    28   13   18 ar  
    29   14   15 ar  
    30   14   42 1   
    31   15   16 ar  
    32   15   43 1   
    33   16   17 ar  
    34   16   44 1   
    35   17   18 ar  
    36   17   45 1   
    37   18   19 1   
    38   19   20 1   
    39   19   21 1   
    40   19   22 1   
    41   20   49 1   
    42   20   50 1   
    43   20   51 1   
    44   21   46 1   
    45   21   47 1   
    46   21   48 1   
    47   22   52 1   
    48   22   53 1   
    49   22   54 1   
    50   23   24 ar  
    51   23   28 1   
    52   24   25 ar  
    53   24   55 1   
    54   25   26 ar  
    55   26   27 ar  
    56   27   40 1   
    57   28   30 1   
    58   28   31 1   
    59   29   32 1   
    60   29   56 1   
    61   29   57 1   
    62   29   58 1   
@<TRIPOS>SUBSTRUCTURE
     1 9BM         1 TEMP              0 ****  ****    0 ROOT
