@<TRIPOS>MOLECULE
9BM
   58    61     1     0     0
SMALL
bcc


@<TRIPOS>ATOM
      1 C01         4.9250    0.3910    2.2410 c3        1 9BM     -0.136400
      2 C02         5.3320    0.5640    0.8350 cc        1 9BM      0.354600
      3 N01         6.5920    0.5390    0.3570 nd        1 9BM     -0.389300
      4 O01         6.5700    0.7360   -0.9480 os        1 9BM     -0.134100
      5 C03         5.2360    0.9060   -1.3910 cd        1 9BM      0.266000
      6 C04         5.0390    1.1310   -2.8210 c3        1 9BM     -0.136400
      7 C05         4.4080    0.8040   -0.2860 cc        1 9BM     -0.236600
      8 C06         2.9740    0.9250   -0.2330 ca        1 9BM     -0.147300
      9 C07         2.1250   -0.1600    0.2050 ca        1 9BM      0.623600
     10 C09         0.1720    1.0540   -0.1350 ca        1 9BM      0.310300
     11 C10        -1.2840    1.1670   -0.0880 ca        1 9BM      0.117300
     12 N02        -2.0680    0.1150    0.4190 nh        1 9BM     -0.615000
     13 C11        -2.1360   -1.1390   -0.2010 ca        1 9BM      0.201600
     14 C12        -1.4280   -1.3930   -1.4010 ca        1 9BM     -0.179000
     15 C13        -1.4160   -2.6520   -1.9830 ca        1 9BM     -0.109000
     16 C14        -2.1330   -3.6900   -1.3990 ca        1 9BM     -0.194000
     17 C15        -2.8720   -3.4470   -0.2440 ca        1 9BM     -0.110000
     18 C16        -2.9100   -2.1960    0.3790 ca        1 9BM     -0.109300
     19 C17        -3.7870   -1.9990    1.5940 c3        1 9BM      0.004300
     20 C19        -5.0220   -1.1820    1.2100 c3        1 9BM     -0.091767
     21 C18        -4.3010   -3.3350    2.1410 c3        1 9BM     -0.091767
     22 C20        -3.0350   -1.3160    2.7370 c3        1 9BM     -0.091767
     23 C21        -1.8500    2.3920   -0.4370 ca        1 9BM     -0.271900
     24 C22        -0.9930    3.4550   -0.8610 ca        1 9BM      0.451200
     25 N1          0.3230    3.3900   -0.9420 nb        1 9BM     -0.701000
     26 C23         0.9190    2.2020   -0.5750 ca        1 9BM      0.262300
     27 C24         2.3450    2.0900   -0.6180 ca        1 9BM     -0.110300
     28 C1         -3.3410    2.7080   -0.4020 c         1 9BM      0.920200
     29 C00         2.0180   -2.4410    0.9570 c3        1 9BM      0.124700
     30 O1         -4.0980    2.0260    0.3500 o         1 9BM     -0.818800
     31 O02        -3.7380    3.6640   -1.1210 o         1 9BM     -0.818800
     32 O05         2.8020   -1.3060    0.5890 os        1 9BM     -0.459100
     33 N07         0.7950   -0.1080    0.2520 nb        1 9BM     -0.701000
     34 H011        4.5250    1.3590    2.6350 hc        1 9BM      0.060700
     35 H012        4.1110   -0.3780    2.2910 hc        1 9BM      0.060700
     36 H013        5.7760    0.0650    2.8870 hc        1 9BM      0.060700
     37 H041        5.8440    1.7890   -3.2320 hc        1 9BM      0.063367
     38 H042        5.0650    0.1550   -3.3690 hc        1 9BM      0.063367
     39 H043        4.0430    1.6140   -2.9910 hc        1 9BM      0.063367
     40 H24         2.9380    2.9530   -0.9610 ha        1 9BM      0.149000
     41 H02        -2.9510    0.4440    0.7940 hn        1 9BM      0.477800
     42 H12        -0.8780   -0.5750   -1.8910 ha        1 9BM      0.137000
     43 H13        -0.8490   -2.8190   -2.9100 ha        1 9BM      0.116000
     44 H14        -2.1300   -4.6920   -1.8490 ha        1 9BM      0.113000
     45 H15        -3.4420   -4.2940    0.1660 ha        1 9BM      0.118000
     46 H181       -3.4510   -4.0160    2.3810 hc        1 9BM      0.037589
     47 H182       -4.8860   -3.1570    3.0760 hc        1 9BM      0.037589
     48 H183       -4.9820   -3.8320    1.4090 hc        1 9BM      0.037589
     49 H191       -5.5810   -1.7020    0.3950 hc        1 9BM      0.037589
     50 H192       -5.6930   -1.0880    2.0990 hc        1 9BM      0.037589
     51 H193       -4.7710   -0.1510    0.8590 hc        1 9BM      0.037589
     52 H201       -3.2540   -0.2210    2.7690 hc        1 9BM      0.037589
     53 H202       -3.3480   -1.7400    3.7240 hc        1 9BM      0.037589
     54 H203       -1.9340   -1.4640    2.6330 hc        1 9BM      0.037589
     55 H22        -1.4780    4.4070   -1.1650 h4        1 9BM      0.054100
     56 H001        1.4010   -2.2160    1.8600 h1        1 9BM      0.048033
     57 H002        1.3660   -2.7640    0.1110 h1        1 9BM      0.048033
     58 H003        2.7920   -3.2170    1.1850 h1        1 9BM      0.048033
@<TRIPOS>BOND
     1    1    2 1   
     2    1   34 1   
     3    1   35 1   
     4    1   36 1   
     5    2    3 2   
     6    2    7 1   
     7    3    4 1   
     8    4    5 1   
     9    5    6 1   
    10    5    7 2   
    11    6   37 1   
    12    6   38 1   
    13    6   39 1   
    14    7    8 1   
    15    8    9 ar  
    16    8   27 ar  
    17    9   32 1   
    18    9   33 ar  
    19   10   11 ar  
    20   10   26 ar  
    21   10   33 ar  
    22   11   12 1   
    23   11   23 ar  
    24   12   13 1   
    25   12   41 1   
    26   13   14 ar  
    27   13   18 ar  
    28   14   15 ar  
    29   14   42 1   
    30   15   16 ar  
    31   15   43 1   
    32   16   17 ar  
    33   16   44 1   
    34   17   18 ar  
    35   17   45 1   
    36   18   19 1   
    37   19   20 1   
    38   19   21 1   
    39   19   22 1   
    40   20   49 1   
    41   20   50 1   
    42   20   51 1   
    43   21   46 1   
    44   21   47 1   
    45   21   48 1   
    46   22   52 1   
    47   22   53 1   
    48   22   54 1   
    49   23   24 ar  
    50   23   28 1   
    51   24   25 ar  
    52   24   55 1   
    53   25   26 ar  
    54   26   27 ar  
    55   27   40 1   
    56   28   30 1   
    57   28   31 1   
    58   29   32 1   
    59   29   56 1   
    60   29   57 1   
    61   29   58 1   
@<TRIPOS>SUBSTRUCTURE
     1 9BM         1 TEMP              0 ****  ****    0 ROOT
