@<TRIPOS>MOLECULE
9BM
   58    61     1     0     0
SMALL
bcc


@<TRIPOS>ATOM
      1 C01         1.0040    0.6490    0.6190 c3        1 9BM     -0.136400
      2 C02         2.4430    0.3840    0.4380 cc        1 9BM      0.354600
      3 N01         3.3690    0.2940    1.4130 nd        1 9BM     -0.389300
      4 O01         4.5500    0.0540    0.8750 os        1 9BM     -0.134100
      5 C03         4.4350   -0.0240   -0.5350 cd        1 9BM      0.266000
      6 C04         5.6610   -0.2910   -1.2840 c3        1 9BM     -0.136400
      7 C05         3.1040    0.1800   -0.8610 cc        1 9BM     -0.236600
      8 C06         2.5030    0.2100   -2.1700 ca        1 9BM     -0.147300
      9 C07         1.4810   -0.7310   -2.5690 ca        1 9BM      0.623600
     10 C09         1.3040    0.1650   -4.7060 ca        1 9BM      0.310300
     11 C10         0.6950    0.1840   -6.0350 ca        1 9BM      0.117300
     12 N02        -0.3500   -0.6990   -6.3560 nu        1 9BM     -0.615000
     13 C11        -0.1770   -2.0880   -6.4020 ca        1 9BM      0.201600
     14 C12         1.0910   -2.6680   -6.1500 ca        1 9BM     -0.179000
     15 C13         1.2650   -4.0430   -6.1070 ca        1 9BM     -0.109000
     16 C14         0.1820   -4.8830   -6.3420 ca        1 9BM     -0.194000
     17 C15        -1.0620   -4.3310   -6.6370 ca        1 9BM     -0.110000
     18 C16        -1.2830   -2.9510   -6.6860 ca        1 9BM     -0.109300
     19 C17        -2.6490   -2.4330   -7.0760 c3        1 9BM      0.004300
     20 C19        -2.6010   -1.8750   -8.4980 c3        1 9BM     -0.091767
     21 C18        -3.6960   -3.5520   -7.0810 c3        1 9BM     -0.091767
     22 C20        -3.1530   -1.3640   -6.1040 c3        1 9BM     -0.091767
     23 C21         1.0980    1.1850   -6.9170 ca        1 9BM     -0.271900
     24 C22         2.1050    2.1110   -6.5010 ca        1 9BM      0.451200
     25 N1          2.6980    2.1160   -5.3210 nb        1 9BM     -0.701000
     26 C23         2.3030    1.1580   -4.4130 ca        1 9BM      0.262300
     27 C24         2.8950    1.1390   -3.1100 ca        1 9BM     -0.110300
     28 C1          0.5410    1.3890   -8.3220 c         1 9BM      0.920200
     29 C00         0.1670   -2.6440   -1.9440 c3        1 9BM      0.124700
     30 O1         -0.6080    0.9370   -8.6000 o         1 9BM     -0.818800
     31 O02         1.2620    2.0290   -9.1330 o         1 9BM     -0.818800
     32 O05         1.1150   -1.6390   -1.5880 os        1 9BM     -0.459100
     33 N07         0.9080   -0.7610   -3.7710 nb        1 9BM     -0.701000
     34 H011        0.4190   -0.1180    0.0470 hc        1 9BM      0.060700
     35 H012        0.7580    1.6620    0.2110 hc        1 9BM      0.060700
     36 H013        0.7020    0.6120    1.6940 hc        1 9BM      0.060700
     37 H041        5.5310    0.0390   -2.3450 hc        1 9BM      0.063367
     38 H042        6.5270    0.2530   -0.8310 hc        1 9BM      0.063367
     39 H043        5.8850   -1.3880   -1.2720 hc        1 9BM      0.063367
     40 H24         3.6700    1.8830   -2.8650 ha        1 9BM      0.149000
     41 H02        -0.9510   -0.3290   -7.0850 hn        1 9BM      0.477800
     42 H12         1.9650   -2.0160   -5.9890 ha        1 9BM      0.137000
     43 H13         2.2600   -4.4620   -5.8990 ha        1 9BM      0.116000
     44 H14         0.3050   -5.9740   -6.3090 ha        1 9BM      0.113000
     45 H15        -1.8810   -5.0370   -6.8390 ha        1 9BM      0.118000
     46 H181       -3.7400   -4.0560   -6.0870 hc        1 9BM      0.037589
     47 H182       -3.4720   -4.3060   -7.8730 hc        1 9BM      0.037589
     48 H183       -4.7030   -3.1220   -7.3040 hc        1 9BM      0.037589
     49 H191       -1.9140   -0.9990   -8.6000 hc        1 9BM      0.037589
     50 H192       -2.2600   -2.6690   -9.2050 hc        1 9BM      0.037589
     51 H193       -3.6250   -1.5440   -8.8000 hc        1 9BM      0.037589
     52 H201       -4.2550   -1.4650   -5.9440 hc        1 9BM      0.037589
     53 H202       -2.6510   -1.4600   -5.1130 hc        1 9BM      0.037589
     54 H203       -2.9750   -0.3370   -6.5060 hc        1 9BM      0.037589
     55 H22         2.4280    2.8760   -7.2380 h4        1 9BM      0.054100
     56 H001        0.5490   -3.2710   -2.7850 h1        1 9BM      0.048033
     57 H002        0.0770   -3.2480   -1.0050 h1        1 9BM      0.048033
     58 H003       -0.8120   -2.1830   -2.2170 h1        1 9BM      0.048033
@<TRIPOS>BOND
     1    1    2 1   
     2    1   34 1   
     3    1   35 1   
     4    1   36 1   
     5    2    3 2   
     6    2    7 1   
     7    3    4 1   
     8    4    5 1   
     9    5    6 1   
    10    5    7 2   
    11    6   37 1   
    12    6   38 1   
    13    6   39 1   
    14    7    8 1   
    15    8    9 ar  
    16    8   27 ar  
    17    9   32 1   
    18    9   33 ar  
    19   10   11 ar  
    20   10   26 ar  
    21   10   33 ar  
    22   11   12 1   
    23   11   23 ar  
    24   12   13 1   
    25   12   41 1   
    26   13   14 ar  
    27   13   18 ar  
    28   14   15 ar  
    29   14   42 1   
    30   15   16 ar  
    31   15   43 1   
    32   16   17 ar  
    33   16   44 1   
    34   17   18 ar  
    35   17   45 1   
    36   18   19 1   
    37   19   20 1   
    38   19   21 1   
    39   19   22 1   
    40   20   49 1   
    41   20   50 1   
    42   20   51 1   
    43   21   46 1   
    44   21   47 1   
    45   21   48 1   
    46   22   52 1   
    47   22   53 1   
    48   22   54 1   
    49   23   24 ar  
    50   23   28 1   
    51   24   25 ar  
    52   24   55 1   
    53   25   26 ar  
    54   26   27 ar  
    55   27   40 1   
    56   28   30 1   
    57   28   31 1   
    58   29   32 1   
    59   29   56 1   
    60   29   57 1   
    61   29   58 1   
@<TRIPOS>SUBSTRUCTURE
     1 9BM         1 TEMP              0 ****  ****    0 ROOT
