@<TRIPOS>MOLECULE
9CA
   22    14     1     0     0
SMALL
bcc


@<TRIPOS>ATOM
      1 C9A         1.2910   -0.0000   -0.6790 c1        1 9CA     -0.016500
      2 C1          2.6960   -0.0000   -0.6790 c1        1 9CA     -0.128000
      3 C2          3.3900   -0.0000    0.5230 c1        1 9CA     -0.128000
      4 C3          2.6960   -0.0000    1.7260 c1        1 9CA     -0.128000
      5 C4          1.3080   -0.0000    1.7270 c1        1 9CA     -0.128000
      6 C4A         0.6050   -0.0000    0.5110 c1        1 9CA     -0.016500
      7 C4B        -0.7610   -0.0000    0.2200 c1        1 9CA     -0.016500
      8 C5         -1.8990   -0.0000    1.0430 c1        1 9CA     -0.119000
      9 C6         -3.1660    0.0000    0.4770 c1        1 9CA     -0.128000
     10 C7         -3.3090    0.0000   -0.9050 c1        1 9CA     -0.128000
     11 C8         -2.1850    0.0000   -1.7190 c1        1 9CA     -0.119000
     12 C8A        -0.9020    0.0000   -1.1470 c1        1 9CA     -0.016500
     13 N9          0.3640   -0.0000   -1.7090 DU        1 9CA     -0.245000
     14 H1          3.1840   -0.0000   -1.5240 ha        1 9CA      0.132333
     15 H2          4.3660   -0.0000    0.5220 ha        1 9CA      0.132333
     16 H3          3.1850   -0.0000    2.5710 ha        1 9CA      0.132333
     17 H4          0.8210   -0.0000    2.5720 ha        1 9CA      0.132333
     18 H5         -1.7980   -0.0000    2.0140 ha        1 9CA      0.135000
     19 H6         -3.9560    0.0000    1.0500 ha        1 9CA      0.132333
     20 H7         -4.2000    0.0000   -1.3030 ha        1 9CA      0.132333
     21 H8         -2.2860    0.0000   -2.6900 ha        1 9CA      0.135000
     22 HN9         0.5540   -0.0000   -2.6010 DU        1 9CA      0.252000
@<TRIPOS>BOND
     1    1    6 1   
     2    2    3 1   
     3    2   14 1   
     4    3   15 1   
     5    4    5 1   
     6    4   16 1   
     7    5   17 1   
     8    7    8 1   
     9    8   18 1   
    10    9   10 1   
    11    9   19 1   
    12   10   20 1   
    13   11   12 1   
    14   11   21 1   
@<TRIPOS>SUBSTRUCTURE
     1 9CA         1 TEMP              0 ****  ****    0 ROOT
