@<TRIPOS>MOLECULE
9CA
   22    24     1     0     0
SMALL
bcc


@<TRIPOS>ATOM
      1 C9A         1.1360   -0.8680   -0.0330 ca        1 9CA     -0.018200
      2 C1          2.4900   -1.2110   -0.0240 ca        1 9CA     -0.155000
      3 C2          3.4250   -0.1770   -0.0010 ca        1 9CA     -0.103000
      4 C3          3.0330    1.1650    0.0110 ca        1 9CA     -0.160000
      5 C4          1.6850    1.5220    0.0030 ca        1 9CA     -0.077000
      6 C4A         0.7270    0.5190   -0.0140 cp        1 9CA     -0.076000
      7 C4B        -0.7270    0.5190   -0.0130 cp        1 9CA     -0.076000
      8 C5         -1.6850    1.5220    0.0030 ca        1 9CA     -0.077000
      9 C6         -3.0330    1.1650    0.0110 ca        1 9CA     -0.160000
     10 C7         -3.4250   -0.1770   -0.0000 ca        1 9CA     -0.103000
     11 C8         -2.4900   -1.2110   -0.0230 ca        1 9CA     -0.155000
     12 C8A        -1.1360   -0.8680   -0.0330 ca        1 9CA     -0.018200
     13 N9         -0.0000   -1.7010   -0.1240 na        1 9CA     -0.177300
     14 H1          2.8120   -2.2610   -0.0380 ha        1 9CA      0.136000
     15 H2          4.4970   -0.4260    0.0080 ha        1 9CA      0.131000
     16 H3          3.8020    1.9510    0.0250 ha        1 9CA      0.132000
     17 H4          1.3840    2.5790    0.0090 ha        1 9CA      0.136000
     18 H5         -1.3840    2.5790    0.0090 ha        1 9CA      0.136000
     19 H6         -3.8020    1.9510    0.0260 ha        1 9CA      0.132000
     20 H7         -4.4970   -0.4260    0.0090 ha        1 9CA      0.131000
     21 H8         -2.8120   -2.2610   -0.0380 ha        1 9CA      0.136000
     22 HN9         0.0000   -2.6220    0.2370 hn        1 9CA      0.283700
@<TRIPOS>BOND
     1    1    2 ar  
     2    1    6 ar  
     3    1   13 1   
     4    2    3 ar  
     5    2   14 1   
     6    3    4 ar  
     7    3   15 1   
     8    4    5 ar  
     9    4   16 1   
    10    5    6 ar  
    11    5   17 1   
    12    6    7 1   
    13    7    8 ar  
    14    7   12 ar  
    15    8    9 ar  
    16    8   18 1   
    17    9   10 ar  
    18    9   19 1   
    19   10   11 ar  
    20   10   20 1   
    21   11   12 ar  
    22   11   21 1   
    23   12   13 1   
    24   13   22 1   
@<TRIPOS>SUBSTRUCTURE
     1 9CA         1 TEMP              0 ****  ****    0 ROOT
