@<TRIPOS>MOLECULE
9CL
   15    13     1     0     0
SMALL
bcc


@<TRIPOS>ATOM
      1 C          -2.2010   -0.0480    0.0030 c3        1 9CL     -0.074000
      2 C1         -0.6880   -0.0480    0.0030 c2        1 9CL     -0.097000
      3 C2          0.0050   -0.0480    1.2040 c2        1 9CL     -0.109000
      4 C3          1.3910   -0.0480    1.2040 c1        1 9CL     -0.131000
      5 C4          2.0840   -0.0480    0.0040 c1        1 9CL     -0.125000
      6 C5          1.3910   -0.0480   -1.1970 c1        1 9CL     -0.125000
      7 C6          0.0050   -0.0480   -1.1970 c1        1 9CL     -0.109000
      8 CL1        -2.7820    1.5910   -0.1150 cl        1 9CL     -0.120000
      9 H          -2.5270   -0.5650   -0.7580 h1        1 9CL      0.109000
     10 HA         -2.5270   -0.4490    0.8320 h1        1 9CL      0.109000
     11 H2         -0.4830   -0.0480    2.0490 ha        1 9CL      0.135000
     12 H3          1.8790   -0.0480    2.0490 ha        1 9CL      0.134000
     13 H4          3.0600   -0.0480    0.0040 ha        1 9CL      0.133500
     14 H5          1.8790   -0.0480   -2.0420 ha        1 9CL      0.133500
     15 H6         -0.4830   -0.0480   -2.0420 ha        1 9CL      0.135000
@<TRIPOS>BOND
     1    1    2 1   
     2    1    8 1   
     3    1    9 1   
     4    1   10 1   
     5    2    3 1   
     6    2    7 1   
     7    3    4 1   
     8    3   11 1   
     9    4   12 1   
    10    5    6 1   
    11    5   13 1   
    12    6   14 1   
    13    7   15 1   
@<TRIPOS>SUBSTRUCTURE
     1 9CL         1 TEMP              0 ****  ****    0 ROOT
