@<TRIPOS>MOLECULE
9CL
   15    15     1     0     0
SMALL
bcc


@<TRIPOS>ATOM
      1 C           1.3670   -0.0050    0.9420 c3        1 9CL      0.085300
      2 C1         -0.0380   -0.0020    0.4690 ca        1 9CL     -0.104300
      3 C2         -0.7070    1.2080    0.2530 ca        1 9CL     -0.109000
      4 C3         -2.0330    1.2090   -0.1770 ca        1 9CL     -0.131000
      5 C4         -2.6990    0.0030   -0.3950 ca        1 9CL     -0.119000
      6 C5         -2.0350   -1.2060   -0.1820 ca        1 9CL     -0.131000
      7 C6         -0.7100   -1.2100    0.2470 ca        1 9CL     -0.109000
      8 CL1         2.5060   -0.0030   -0.4010 cl        1 9CL     -0.193400
      9 H           1.5960    0.9080    1.5450 h1        1 9CL      0.069700
     10 HA          1.5940   -0.9200    1.5410 h1        1 9CL      0.069700
     11 H2         -0.1820    2.1610    0.4190 ha        1 9CL      0.135000
     12 H3         -2.5530    2.1630   -0.3460 ha        1 9CL      0.134000
     13 H4         -3.7450    0.0050   -0.7350 ha        1 9CL      0.133000
     14 H5         -2.5580   -2.1580   -0.3560 ha        1 9CL      0.134000
     15 H6         -0.1870   -2.1650    0.4090 ha        1 9CL      0.135000
@<TRIPOS>BOND
     1    1    2 1   
     2    1    8 1   
     3    1    9 1   
     4    1   10 1   
     5    2    3 ar  
     6    2    7 ar  
     7    3    4 ar  
     8    3   11 1   
     9    4    5 ar  
    10    4   12 1   
    11    5    6 ar  
    12    5   13 1   
    13    6    7 ar  
    14    6   14 1   
    15    7   15 1   
@<TRIPOS>SUBSTRUCTURE
     1 9CL         1 TEMP              0 ****  ****    0 ROOT
