@<TRIPOS>MOLECULE
9CR
   49    42     1     0     0
SMALL
bcc


@<TRIPOS>ATOM
      1 C1          0.8740    2.5110   -0.4480 c3        1 9CR     -0.012000
      2 C2          2.4780    2.5340   -0.2630 c3        1 9CR     -0.148000
      3 C3          2.8870    2.8990    0.8380 c3        1 9CR     -0.153000
      4 C4          2.3480    2.0470    2.1150 c3        1 9CR     -0.117000
      5 C5          0.9190    1.9200    2.1000 c1        1 9CR     -0.126000
      6 C6          0.2180    1.8050    0.5990 c1        1 9CR     -0.039000
      7 C7         -1.2490    1.4580    0.4740 c1        1 9CR     -0.127000
      8 C8         -1.6350    0.1680    0.4250 c1        1 9CR     -0.127000
      9 C9         -0.6010   -0.9340    0.4950 c1        1 9CR     -0.156000
     10 C10        -0.5650   -1.8850   -0.4580 c1        1 9CR     -0.053000
     11 C11        -1.5580   -1.8520   -1.5980 c1        1 9CR     -0.127000
     12 C12        -1.9230   -2.9970   -2.2080 c1        1 9CR     -0.127000
     13 C13        -1.3390   -4.3160   -1.7520 c1        1 9CR     -0.162000
     14 C14        -2.1080   -5.1970   -1.0820 c1        1 9CR     -0.121000
     15 C15        -3.5550   -4.8680   -0.7860 c1        1 9CR      0.342000
     16 C16         0.3440    3.9260   -0.5290 c3        1 9CR     -0.201500
     17 C17         0.4750    1.9830   -1.8080 c3        1 9CR     -0.201500
     18 C18         0.1050    2.4020    3.2800 c2        1 9CR     -0.170500
     19 C19         0.3930   -0.9670    1.6360 c2        1 9CR     -0.170500
     20 C20         0.1070   -4.6460   -2.0470 c3        1 9CR     -0.167000
     21 O1         -3.8980   -4.5300    0.3770 o         1 9CR     -0.565500
     22 O2         -4.4160   -4.9370   -1.7020 o         1 9CR     -0.565500
     23 H1          2.8550    3.1330   -0.9410 hc        1 9CR      0.078500
     24 H2          2.8170    1.6300   -0.4290 hc        1 9CR      0.078500
     25 H3          3.8660    2.8510    0.8310 hc        1 9CR      0.072500
     26 H4          2.6260    3.8350    0.9650 hc        1 9CR      0.072500
     27 H5          2.8860    1.2440    2.2700 hc        1 9CR      0.078000
     28 H6          2.5500    2.5440    2.9350 hc        1 9CR      0.078000
     29 H7         -1.9170    2.1690    0.4290 ha        1 9CR      0.131000
     30 H8         -2.5820   -0.0560    0.3450 ha        1 9CR      0.131000
     31 H9          0.1030   -2.5960   -0.4130 ha        1 9CR      0.122000
     32 H10        -1.9350   -1.0010   -1.8930 ha        1 9CR      0.131000
     33 H11        -2.5640   -2.9750   -2.9440 ha        1 9CR      0.131000
     34 H12        -1.7310   -6.0490   -0.7880 ha        1 9CR      0.102000
     35 H13        -0.5730    3.9130   -0.8740 hc        1 9CR      0.076167
     36 H14         0.3510    4.3290    0.3650 hc        1 9CR      0.076167
     37 H15         0.9120    4.4540   -1.1290 hc        1 9CR      0.076167
     38 H16         0.8170    2.5820   -2.5040 hc        1 9CR      0.076167
     39 H17        -0.5020    1.9380   -1.8670 hc        1 9CR      0.076167
     40 H18         0.8510    1.0870   -1.9340 hc        1 9CR      0.076167
     41 H19         0.2980    3.3490    3.4450 ha        1 9CR      0.074167
     42 H20        -0.8490    2.2920    3.0850 ha        1 9CR      0.074167
     43 H21         0.3390    1.8770    4.0740 ha        1 9CR      0.074167
     44 H22         0.0760   -0.3900    2.3620 ha        1 9CR      0.074167
     45 H23         0.4820   -1.8860    1.9650 ha        1 9CR      0.074167
     46 H24         1.2640   -0.6480    1.3200 ha        1 9CR      0.074167
     47 H25         0.1520   -5.4540   -2.5990 hc        1 9CR      0.061667
     48 H26         0.5860   -4.7970   -1.2060 hc        1 9CR      0.061667
     49 H27         0.5210   -3.8990   -2.5280 hc        1 9CR      0.061667
@<TRIPOS>BOND
     1    1    2 1   
     2    1    6 1   
     3    1   16 1   
     4    1   17 1   
     5    2    3 1   
     6    2   23 1   
     7    2   24 1   
     8    3    4 1   
     9    3   25 1   
    10    3   26 1   
    11    4    5 1   
    12    4   27 1   
    13    4   28 1   
    14    5    6 1   
    15    7    8 1   
    16    7   29 1   
    17    8   30 1   
    18    9   10 1   
    19   10   31 1   
    20   11   12 1   
    21   11   32 1   
    22   12   33 1   
    23   13   14 1   
    24   13   20 1   
    25   14   34 1   
    26   15   21 1   
    27   15   22 1   
    28   16   35 1   
    29   16   36 1   
    30   16   37 1   
    31   17   38 1   
    32   17   39 1   
    33   17   40 1   
    34   18   41 1   
    35   18   42 1   
    36   18   43 1   
    37   19   44 1   
    38   19   45 1   
    39   19   46 1   
    40   20   47 1   
    41   20   48 1   
    42   20   49 1   
@<TRIPOS>SUBSTRUCTURE
     1 9CR         1 TEMP              0 ****  ****    0 ROOT
