@<TRIPOS>MOLECULE
9CR
   49    49     1     0     0
SMALL
bcc


@<TRIPOS>ATOM
      1 C1         -0.5340    0.6110    0.1120 c3        1 9CR      0.001200
      2 C2          0.7930    0.9720   -0.5620 c3        1 9CR     -0.070400
      3 C3          1.8850    1.2800    0.4350 c3        1 9CR     -0.072400
      4 C4          1.4870    2.4390    1.3220 c3        1 9CR     -0.040200
      5 C5          0.0860    2.3390    1.8160 c2        1 9CR     -0.113400
      6 C6         -0.8560    1.5680    1.2310 ce        1 9CR     -0.058200
      7 C7         -2.2090    1.5350    1.7820 ce        1 9CR     -0.145000
      8 C8         -3.3520    2.0550    1.3220 cf        1 9CR     -0.079000
      9 C9         -3.6720    2.7480    0.0850 cf        1 9CR     -0.167200
     10 C10        -3.1430    3.8980   -0.3820 ce        1 9CR     -0.046000
     11 C11        -2.1070    4.7050    0.2070 ce        1 9CR     -0.238000
     12 C12        -1.7870    5.9080   -0.3180 cf        1 9CR     -0.032000
     13 C13        -0.7720    6.8100    0.1870 cf        1 9CR     -0.158200
     14 C14        -0.5000    7.9860   -0.4150 ce        1 9CR     -0.139200
     15 C15        -1.1060    8.5420   -1.6850 c         1 9CR      0.889800
     16 C16        -0.4510   -0.8000    0.6950 c3        1 9CR     -0.084600
     17 C17        -1.6160    0.6230   -0.9610 c3        1 9CR     -0.084600
     18 C18        -0.1950    3.1810    3.0060 c3        1 9CR     -0.062900
     19 C19        -4.7940    2.1040   -0.6600 c3        1 9CR     -0.041900
     20 C20        -0.0210    6.3940    1.4010 c3        1 9CR     -0.047900
     21 O1         -0.3480    9.2660   -2.3920 o         1 9CR     -0.830300
     22 O2         -2.3100    8.2900   -1.9790 o         1 9CR     -0.830300
     23 H1          0.6310    1.8690   -1.2180 hc        1 9CR      0.043700
     24 H2          1.1110    0.1220   -1.2200 hc        1 9CR      0.043700
     25 H3          2.8320    1.5340   -0.1100 hc        1 9CR      0.031700
     26 H4          2.0960    0.3750    1.0630 hc        1 9CR      0.031700
     27 H5          2.1910    2.5010    2.1950 hc        1 9CR      0.048200
     28 H6          1.5830    3.4030    0.7490 hc        1 9CR      0.048200
     29 H7         -2.2440    1.0080    2.7570 ha        1 9CR      0.104000
     30 H8         -4.2560    1.9040    1.9500 ha        1 9CR      0.100000
     31 H9         -3.5580    4.3070   -1.3270 ha        1 9CR      0.119000
     32 H10        -1.5930    4.2950    1.0910 ha        1 9CR      0.121000
     33 H11        -2.3310    6.2960   -1.2090 ha        1 9CR      0.180000
     34 H12         0.2800    8.6430    0.0080 ha        1 9CR      0.102000
     35 H13         0.3710   -0.8690    1.4460 hc        1 9CR      0.034033
     36 H14        -0.2570   -1.5390   -0.1190 hc        1 9CR      0.034033
     37 H15        -1.4140   -1.0620    1.1960 hc        1 9CR      0.034033
     38 H16        -1.8030    1.6670   -1.3120 hc        1 9CR      0.034033
     39 H17        -1.3000   -0.0040   -1.8290 hc        1 9CR      0.034033
     40 H18        -2.5710    0.2160   -0.5500 hc        1 9CR      0.034033
     41 H19        -1.2910    3.3260    3.1670 hc        1 9CR      0.041367
     42 H20         0.2760    4.1900    2.8900 hc        1 9CR      0.041367
     43 H21         0.2360    2.6950    3.9170 hc        1 9CR      0.041367
     44 H22        -4.5320    1.0480   -0.9210 hc        1 9CR      0.027367
     45 H23        -5.0250    2.6510   -1.6060 hc        1 9CR      0.027367
     46 H24        -5.7170    2.0880   -0.0290 hc        1 9CR      0.027367
     47 H25         0.6720    7.1980    1.7490 hc        1 9CR      0.022033
     48 H26        -0.7270    6.1530    2.2350 hc        1 9CR      0.022033
     49 H27         0.5860    5.4790    1.1810 hc        1 9CR      0.022033
@<TRIPOS>BOND
     1    1    2 1   
     2    1    6 1   
     3    1   16 1   
     4    1   17 1   
     5    2    3 1   
     6    2   23 1   
     7    2   24 1   
     8    3    4 1   
     9    3   25 1   
    10    3   26 1   
    11    4    5 1   
    12    4   27 1   
    13    4   28 1   
    14    5    6 2   
    15    5   18 1   
    16    6    7 1   
    17    7    8 2   
    18    7   29 1   
    19    8    9 1   
    20    8   30 1   
    21    9   10 2   
    22    9   19 1   
    23   10   11 1   
    24   10   31 1   
    25   11   12 2   
    26   11   32 1   
    27   12   13 1   
    28   12   33 1   
    29   13   14 2   
    30   13   20 1   
    31   14   15 1   
    32   14   34 1   
    33   15   21 1   
    34   15   22 1   
    35   16   35 1   
    36   16   36 1   
    37   16   37 1   
    38   17   38 1   
    39   17   39 1   
    40   17   40 1   
    41   18   41 1   
    42   18   42 1   
    43   18   43 1   
    44   19   44 1   
    45   19   45 1   
    46   19   46 1   
    47   20   47 1   
    48   20   48 1   
    49   20   49 1   
@<TRIPOS>SUBSTRUCTURE
     1 9CR         1 TEMP              0 ****  ****    0 ROOT
