@<TRIPOS>MOLECULE
9CR
   49    49     1     0     0
SMALL
bcc


@<TRIPOS>ATOM
      1 C1          4.4170    0.1800   -0.7510 c3        1 9CR     -0.006800
      2 C2          4.9570    1.5960   -0.9680 c3        1 9CR     -0.069400
      3 C3          5.0240    2.3810    0.3200 c3        1 9CR     -0.074400
      4 C4          3.6510    2.5090    0.9410 c3        1 9CR     -0.038200
      5 C5          2.8640    1.2440    0.9090 c2        1 9CR     -0.112400
      6 C6          3.1850    0.1920    0.1240 ce        1 9CR     -0.069200
      7 C7          2.4010   -1.0370    0.0760 ce        1 9CR     -0.166000
      8 C8          1.0630   -1.0840   -0.0520 cf        1 9CR     -0.084000
      9 C9          0.2830   -2.3040   -0.1210 cf        1 9CR     -0.150200
     10 C10        -1.0710   -2.3200   -0.0970 ce        1 9CR     -0.059000
     11 C11        -1.9490   -1.1870    0.0150 ce        1 9CR     -0.230000
     12 C12        -3.2930   -1.3160    0.0190 cf        1 9CR     -0.033000
     13 C13        -4.2420   -0.2260    0.1330 cf        1 9CR     -0.163200
     14 C14        -5.5650   -0.4890    0.1680 ce        1 9CR     -0.124200
     15 C15        -6.6850    0.5130    0.3460 c         1 9CR      0.892800
     16 C16         5.4940   -0.6840   -0.1010 c3        1 9CR     -0.081600
     17 C17         4.0800   -0.4040   -2.1200 c3        1 9CR     -0.081600
     18 C18         1.6740    1.2590    1.7970 c3        1 9CR     -0.062900
     19 C19         1.0330   -3.5830   -0.2250 c3        1 9CR     -0.044900
     20 C20        -3.7030    1.1550    0.2080 c3        1 9CR     -0.049900
     21 O1         -6.7020    1.5620   -0.3570 o         1 9CR     -0.827300
     22 O2         -7.5740    0.2120    1.1940 o         1 9CR     -0.827300
     23 H1          5.9760    1.5340   -1.4300 hc        1 9CR      0.038200
     24 H2          4.2890    2.1330   -1.6930 hc        1 9CR      0.038200
     25 H3          5.7190    1.8730    1.0390 hc        1 9CR      0.035200
     26 H4          5.4410    3.4030    0.1190 hc        1 9CR      0.035200
     27 H5          3.7590    2.8590    2.0030 hc        1 9CR      0.044200
     28 H6          3.0620    3.2960    0.3940 hc        1 9CR      0.044200
     29 H7          2.9970   -1.9640    0.1310 ha        1 9CR      0.118000
     30 H8          0.4910   -0.1410   -0.1250 ha        1 9CR      0.131000
     31 H9         -1.5800   -3.3020   -0.1650 ha        1 9CR      0.108000
     32 H10        -1.4920   -0.1890    0.1050 ha        1 9CR      0.128000
     33 H11        -3.7410   -2.3250   -0.0660 ha        1 9CR      0.103000
     34 H12        -5.9230   -1.5310    0.1060 ha        1 9CR      0.098000
     35 H13         6.4190   -0.6750   -0.7250 hc        1 9CR      0.033033
     36 H14         5.7430   -0.3000    0.9160 hc        1 9CR      0.033033
     37 H15         5.1410   -1.7390   -0.0050 hc        1 9CR      0.033033
     38 H16         4.9720   -0.3440   -2.7890 hc        1 9CR      0.033033
     39 H17         3.7750   -1.4740   -2.0270 hc        1 9CR      0.033033
     40 H18         3.2400    0.1630   -2.5880 hc        1 9CR      0.033033
     41 H19         1.8830    1.8400    2.7290 hc        1 9CR      0.045367
     42 H20         0.8120    1.7430    1.2720 hc        1 9CR      0.045367
     43 H21         1.3670    0.2240    2.0900 hc        1 9CR      0.045367
     44 H22         1.6260   -3.7610    0.7070 hc        1 9CR      0.029700
     45 H23         0.3460   -4.4520   -0.3720 hc        1 9CR      0.029700
     46 H24         1.7430   -3.5490   -1.0890 hc        1 9CR      0.029700
     47 H25        -3.0420    1.3620   -0.6700 hc        1 9CR      0.038700
     48 H26        -4.5410    1.9000    0.2040 hc        1 9CR      0.038700
     49 H27        -3.0990    1.2880    1.1400 hc        1 9CR      0.038700
@<TRIPOS>BOND
     1    1    2 1   
     2    1    6 1   
     3    1   16 1   
     4    1   17 1   
     5    2    3 1   
     6    2   23 1   
     7    2   24 1   
     8    3    4 1   
     9    3   25 1   
    10    3   26 1   
    11    4    5 1   
    12    4   27 1   
    13    4   28 1   
    14    5    6 2   
    15    5   18 1   
    16    6    7 1   
    17    7    8 2   
    18    7   29 1   
    19    8    9 1   
    20    8   30 1   
    21    9   10 2   
    22    9   19 1   
    23   10   11 1   
    24   10   31 1   
    25   11   12 2   
    26   11   32 1   
    27   12   13 1   
    28   12   33 1   
    29   13   14 2   
    30   13   20 1   
    31   14   15 1   
    32   14   34 1   
    33   15   21 1   
    34   15   22 1   
    35   16   35 1   
    36   16   36 1   
    37   16   37 1   
    38   17   38 1   
    39   17   39 1   
    40   17   40 1   
    41   18   41 1   
    42   18   42 1   
    43   18   43 1   
    44   19   44 1   
    45   19   45 1   
    46   19   46 1   
    47   20   47 1   
    48   20   48 1   
    49   20   49 1   
@<TRIPOS>SUBSTRUCTURE
     1 9CR         1 TEMP              0 ****  ****    0 ROOT
