@<TRIPOS>MOLECULE
9CR
   49    49     1     0     0
SMALL
bcc


@<TRIPOS>ATOM
      1 C1         -0.5440    0.6060    0.1160 c3        1 9CR      0.001200
      2 C2          0.7780    0.9620   -0.5710 c3        1 9CR     -0.070400
      3 C3          1.8800    1.2720    0.4150 c3        1 9CR     -0.072400
      4 C4          1.4920    2.4350    1.3010 c3        1 9CR     -0.040200
      5 C5          0.0960    2.3400    1.8080 c2        1 9CR     -0.113400
      6 C6         -0.8540    1.5690    1.2350 ce        1 9CR     -0.058200
      7 C7         -2.2020    1.5410    1.7980 ce        1 9CR     -0.145000
      8 C8         -3.3480    2.0620    1.3460 cf        1 9CR     -0.079000
      9 C9         -3.6780    2.7510    0.1100 cf        1 9CR     -0.167200
     10 C10        -3.1510    3.8970   -0.3670 ce        1 9CR     -0.046000
     11 C11        -2.1070    4.7050    0.2100 ce        1 9CR     -0.238000
     12 C12        -1.7900    5.9050   -0.3230 cf        1 9CR     -0.032000
     13 C13        -0.7680    6.8070    0.1700 cf        1 9CR     -0.158200
     14 C14        -0.5000    7.9800   -0.4390 ce        1 9CR     -0.139200
     15 C15        -1.1170    8.5320   -1.7050 c         1 9CR      0.889800
     16 C16        -0.4580   -0.8020    0.7040 c3        1 9CR     -0.084600
     17 C17        -1.6350    0.6170   -0.9470 c3        1 9CR     -0.084600
     18 C18        -0.1730    3.1870    2.9970 c3        1 9CR     -0.062900
     19 C19        -4.8070    2.1050   -0.6230 c3        1 9CR     -0.041900
     20 C20        -0.0080    6.3930    1.3780 c3        1 9CR     -0.047900
     21 O1         -0.3630    9.2530   -2.4220 o         1 9CR     -0.830300
     22 O2         -2.3240    8.2820   -1.9880 o         1 9CR     -0.830300
     23 H1          0.6120    1.8570   -1.2290 hc        1 9CR      0.043700
     24 H2          1.0870    0.1090   -1.2290 hc        1 9CR      0.043700
     25 H3          2.0940    0.3690    1.0440 hc        1 9CR      0.031700
     26 H4          2.8220    1.5220   -0.1410 hc        1 9CR      0.031700
     27 H5          1.5850    3.3970    0.7230 hc        1 9CR      0.048200
     28 H6          2.2040    2.4990    2.1670 hc        1 9CR      0.048200
     29 H7         -2.2290    1.0180    2.7760 ha        1 9CR      0.104000
     30 H8         -4.2460    1.9150    1.9840 ha        1 9CR      0.100000
     31 H9         -3.5730    4.3030   -1.3090 ha        1 9CR      0.119000
     32 H10        -1.5860    4.2970    1.0910 ha        1 9CR      0.121000
     33 H11        -2.3410    6.2910   -1.2100 ha        1 9CR      0.180000
     34 H12         0.2850    8.6370   -0.0260 ha        1 9CR      0.102000
     35 H13         0.3700   -0.8700    1.4480 hc        1 9CR      0.034033
     36 H14        -1.4170   -1.0600    1.2150 hc        1 9CR      0.034033
     37 H15        -0.2730   -1.5440   -0.1090 hc        1 9CR      0.034033
     38 H16        -2.5870    0.2130   -0.5250 hc        1 9CR      0.034033
     39 H17        -1.3290   -0.0150   -1.8140 hc        1 9CR      0.034033
     40 H18        -1.8240    1.6600   -1.3000 hc        1 9CR      0.034033
     41 H19         0.2990    4.1940    2.8730 hc        1 9CR      0.041367
     42 H20         0.2650    2.7030    3.9070 hc        1 9CR      0.041367
     43 H21        -1.2680    3.3350    3.1680 hc        1 9CR      0.041367
     44 H22        -5.0470    2.6500   -1.5680 hc        1 9CR      0.027367
     45 H23        -4.5500    1.0480   -0.8830 hc        1 9CR      0.027367
     46 H24        -5.7250    2.0930    0.0180 hc        1 9CR      0.027367
     47 H25         0.6900    7.1980    1.7180 hc        1 9CR      0.022033
     48 H26        -0.7060    6.1570    2.2200 hc        1 9CR      0.022033
     49 H27         0.5960    5.4760    1.1560 hc        1 9CR      0.022033
@<TRIPOS>BOND
     1    1    2 1   
     2    1    6 1   
     3    1   16 1   
     4    1   17 1   
     5    2    3 1   
     6    2   23 1   
     7    2   24 1   
     8    3    4 1   
     9    3   25 1   
    10    3   26 1   
    11    4    5 1   
    12    4   27 1   
    13    4   28 1   
    14    5    6 2   
    15    5   18 1   
    16    6    7 1   
    17    7    8 2   
    18    7   29 1   
    19    8    9 1   
    20    8   30 1   
    21    9   10 2   
    22    9   19 1   
    23   10   11 1   
    24   10   31 1   
    25   11   12 2   
    26   11   32 1   
    27   12   13 1   
    28   12   33 1   
    29   13   14 2   
    30   13   20 1   
    31   14   15 1   
    32   14   34 1   
    33   15   21 1   
    34   15   22 1   
    35   16   35 1   
    36   16   36 1   
    37   16   37 1   
    38   17   38 1   
    39   17   39 1   
    40   17   40 1   
    41   18   41 1   
    42   18   42 1   
    43   18   43 1   
    44   19   44 1   
    45   19   45 1   
    46   19   46 1   
    47   20   47 1   
    48   20   48 1   
    49   20   49 1   
@<TRIPOS>SUBSTRUCTURE
     1 9CR         1 TEMP              0 ****  ****    0 ROOT
