@<TRIPOS>MOLECULE
9D9
   20    19     1     0     0
SMALL
bcc


@<TRIPOS>ATOM
      1 O2P        -1.8520    3.2630    0.4750 o         1 9D9     -0.931833
      2 P          -0.3420    3.2630    0.4750 p5        1 9D9      1.185700
      3 O3P         0.1610    3.2630    1.8980 o         1 9D9     -0.931833
      4 O1P         0.1610    4.4960   -0.2370 o         1 9D9     -0.931833
      5 C14         0.2630    1.7810   -0.3810 c3        1 9D9      0.256400
      6 F1          1.6020    1.7840   -0.3860 f         1 9D9     -0.292300
      7 F2         -0.1880    1.7780   -1.6420 f         1 9D9     -0.292300
      8 C13        -0.2370    0.5460    0.3350 c3        1 9D9     -0.152400
      9 C12         0.2080   -0.6890   -0.4180 c3        1 9D9     -0.067400
     10 C11        -0.1670   -1.9240    0.3720 c3        1 9D9     -0.080400
     11 C10         0.2760   -3.1580   -0.3830 c3        1 9D9     -0.084100
     12 H13        -1.2120    0.5670    0.3790 hc        1 9D9      0.093700
     13 H13A        0.1290    0.5240    1.2400 hc        1 9D9      0.093700
     14 H12        -0.2320   -0.7140   -1.2890 hc        1 9D9      0.019700
     15 H12A        1.1750   -0.6630   -0.5430 hc        1 9D9      0.019700
     16 H11         0.2740   -1.8990    1.2420 hc        1 9D9      0.033700
     17 H11A       -1.1340   -1.9490    0.4970 hc        1 9D9      0.033700
     18 H10        -0.1750   -3.1900   -1.2480 hc        1 9D9      0.009367
     19 H10A        0.0470   -3.9540    0.1340 hc        1 9D9      0.009367
     20 H10B        1.2420   -3.1260   -0.5200 hc        1 9D9      0.009367
@<TRIPOS>BOND
     1    1    2 1   
     2    2    3 1   
     3    2    4 1   
     4    2    5 1   
     5    5    6 1   
     6    5    7 1   
     7    5    8 1   
     8    8    9 1   
     9    8   12 1   
    10    8   13 1   
    11    9   10 1   
    12    9   14 1   
    13    9   15 1   
    14   10   11 1   
    15   10   16 1   
    16   10   17 1   
    17   11   18 1   
    18   11   19 1   
    19   11   20 1   
@<TRIPOS>SUBSTRUCTURE
     1 9D9         1 TEMP              0 ****  ****    0 ROOT
