@<TRIPOS>MOLECULE
9D9
   20    19     1     0     0
SMALL
bcc


@<TRIPOS>ATOM
      1 O2P         0.0560    0.3970    0.0020 o         1 9D9     -0.931833
      2 P           1.5270    0.0750    0.1170 p5        1 9D9      1.185700
      3 O3P         2.1230    0.3960    1.4660 o         1 9D9     -0.931833
      4 O1P         1.9670   -1.2200   -0.5050 o         1 9D9     -0.931833
      5 C14         2.2670    1.4150   -0.9280 c3        1 9D9      0.256400
      6 F1          3.6350    1.3060   -1.0020 f         1 9D9     -0.292300
      7 F2          1.8830    1.3060   -2.2430 f         1 9D9     -0.292300
      8 C13         1.7810    2.6870   -0.2410 c3        1 9D9     -0.152400
      9 C12         2.2360    3.9750   -0.8830 c3        1 9D9     -0.067400
     10 C11         1.7110    5.1870   -0.1410 c3        1 9D9     -0.080400
     11 C10         2.1610    6.4780   -0.7770 c3        1 9D9     -0.084100
     12 H13         0.6600    2.6040   -0.2270 hc        1 9D9      0.093700
     13 H13A        2.1400    2.6030    0.8210 hc        1 9D9      0.093700
     14 H12         3.3570    4.0030   -0.9040 hc        1 9D9      0.019700
     15 H12A        1.8840    4.0040   -1.9480 hc        1 9D9      0.019700
     16 H11         0.5900    5.1490   -0.1190 hc        1 9D9      0.033700
     17 H11A        2.0620    5.1490    0.9230 hc        1 9D9      0.033700
     18 H10         1.7640    7.3580   -0.2150 hc        1 9D9      0.009367
     19 H10A        3.2760    6.5420   -0.7870 hc        1 9D9      0.009367
     20 H10B        1.8010    6.5430   -1.8320 hc        1 9D9      0.009367
@<TRIPOS>BOND
     1    1    2 1   
     2    2    3 1   
     3    2    4 1   
     4    2    5 1   
     5    5    6 1   
     6    5    7 1   
     7    5    8 1   
     8    8    9 1   
     9    8   12 1   
    10    8   13 1   
    11    9   10 1   
    12    9   14 1   
    13    9   15 1   
    14   10   11 1   
    15   10   16 1   
    16   10   17 1   
    17   11   18 1   
    18   11   19 1   
    19   11   20 1   
@<TRIPOS>SUBSTRUCTURE
     1 9D9         1 TEMP              0 ****  ****    0 ROOT
