@<TRIPOS>MOLECULE
9D9
   20    19     1     0     0
SMALL
bcc


@<TRIPOS>ATOM
      1 O2P        -1.5060    1.2250   -1.2600 o         1 9D9     -0.931833
      2 P          -1.7140    0.4190   -0.0010 p5        1 9D9      1.185700
      3 O3P        -1.5120    1.2040    1.2730 o         1 9D9     -0.931833
      4 O1P        -2.8810   -0.5280   -0.0110 o         1 9D9     -0.931833
      5 C14        -0.1980   -0.6470   -0.0060 c3        1 9D9      0.256400
      6 F1         -0.1810   -1.5140    1.0600 f         1 9D9     -0.292300
      7 F2         -0.1760   -1.4960   -1.0860 f         1 9D9     -0.292300
      8 C13         0.9350    0.3750    0.0050 c3        1 9D9     -0.152400
      9 C12         2.3250   -0.2100    0.0040 c3        1 9D9     -0.067400
     10 C11         3.3880    0.8690    0.0150 c3        1 9D9     -0.080400
     11 C10         4.7810    0.2920    0.0140 c3        1 9D9     -0.084100
     12 H13         0.7560    1.0220   -0.8960 hc        1 9D9      0.093700
     13 H13A        0.7510    1.0060    0.9170 hc        1 9D9      0.093700
     14 H12         2.4510   -0.8720    0.9010 hc        1 9D9      0.019700
     15 H12A        2.4550   -0.8570   -0.9040 hc        1 9D9      0.019700
     16 H11         3.2530    1.5290   -0.8810 hc        1 9D9      0.033700
     17 H11A        3.2490    1.5140    0.9230 hc        1 9D9      0.033700
     18 H10         4.9400   -0.3520    0.9130 hc        1 9D9      0.009367
     19 H10A        4.9440   -0.3370   -0.8950 hc        1 9D9      0.009367
     20 H10B        5.5480    1.1030    0.0220 hc        1 9D9      0.009367
@<TRIPOS>BOND
     1    1    2 1   
     2    2    3 1   
     3    2    4 1   
     4    2    5 1   
     5    5    6 1   
     6    5    7 1   
     7    5    8 1   
     8    8    9 1   
     9    8   12 1   
    10    8   13 1   
    11    9   10 1   
    12    9   14 1   
    13    9   15 1   
    14   10   11 1   
    15   10   16 1   
    16   10   17 1   
    17   11   18 1   
    18   11   19 1   
    19   11   20 1   
@<TRIPOS>SUBSTRUCTURE
     1 9D9         1 TEMP              0 ****  ****    0 ROOT
