@<TRIPOS>MOLECULE
9DA
   16     9     1     0     0
SMALL
bcc


@<TRIPOS>ATOM
      1 N1         -0.2090   -0.0520   -2.0870 n1        1 9DA     -0.223000
      2 C2          1.1590   -0.0520   -2.0870 c1        1 9DA     -0.026000
      3 N3          1.8430   -0.0520   -0.9050 n1        1 9DA     -0.147000
      4 C4          1.1650   -0.0520    0.2740 c1        1 9DA     -0.069500
      5 C5         -0.1910   -0.0520    0.2760 c1        1 9DA     -0.069500
      6 C6         -0.8820   -0.0520   -0.9230 c1        1 9DA      0.129000
      7 N6         -2.2160    0.1710   -1.3510 n3        1 9DA     -0.314000
      8 N7         -0.6190   -0.0520    1.5950 n1        1 9DA     -0.189000
      9 C8          0.4810   -0.0520    2.3950 c1        1 9DA     -0.066000
     10 C9          1.5920   -0.0520    1.5890 c1        1 9DA     -0.191000
     11 HC2         1.6470   -0.0520   -2.9320 ha        1 9DA      0.188000
     12 HN61       -2.8190    0.5520   -0.7840 hn        1 9DA      0.193000
     13 HN62       -2.4660   -0.0510   -2.2000 hn        1 9DA      0.193000
     14 HN7        -1.4860   -0.0520    1.8770 DU        1 9DA      0.197667
     15 HC8         0.4800   -0.0520    3.3710 DU        1 9DA      0.197667
     16 HC9         2.5200   -0.0520    1.8910 DU        1 9DA      0.197667
@<TRIPOS>BOND
     1    1    6 1   
     2    2    3 1   
     3    2   11 1   
     4    4    5 1   
     5    6    7 1   
     6    7   12 1   
     7    7   13 1   
     8    8    9 1   
     9    9   10 1   
@<TRIPOS>SUBSTRUCTURE
     1 9DA         1 TEMP              0 ****  ****    0 ROOT
