@<TRIPOS>MOLECULE
9DA
   16    17     1     0     0
SMALL
bcc


@<TRIPOS>ATOM
      1 N1         -0.0580   -0.1100   -0.0350 nb        1 9DA     -0.749000
      2 C2          1.3080   -0.1090    0.0280 ca        1 9DA      0.636900
      3 N3          2.1130   -0.0470    1.1090 nb        1 9DA     -0.673000
      4 C4          1.4520    0.0010    2.2940 ca        1 9DA      0.448100
      5 C5         -0.0020   -0.0090    2.3640 ca        1 9DA     -0.324800
      6 C6         -0.7430   -0.0630    1.1410 ca        1 9DA      0.650200
      7 N6         -2.1460   -0.1480    1.1830 nv        1 9DA     -0.916500
      8 N7         -0.3830    0.0790    3.7030 na        1 9DA     -0.166400
      9 C8          0.7820    0.0780    4.4770 cc        1 9DA     -0.093100
     10 C9          1.9160    0.0640    3.6670 cd        1 9DA     -0.300800
     11 HC2         1.8150   -0.1560   -0.9590 h5        1 9DA      0.051100
     12 HN61       -2.5910   -0.1390    0.2880 hn        1 9DA      0.397800
     13 HN62       -2.5520    0.5050    1.8180 hn        1 9DA      0.397800
     14 HN7        -1.2830   -0.1460    4.0370 hn        1 9DA      0.299700
     15 HC8         0.7180    0.1150    5.5670 h4        1 9DA      0.170000
     16 HC9         2.9540    0.0950    3.9840 ha        1 9DA      0.173000
@<TRIPOS>BOND
     1    1    2 ar  
     2    1    6 ar  
     3    2    3 ar  
     4    2   11 1   
     5    3    4 ar  
     6    4    5 ar  
     7    4   10 1   
     8    5    6 ar  
     9    5    8 1   
    10    6    7 1   
    11    7   12 1   
    12    7   13 1   
    13    8    9 1   
    14    8   14 1   
    15    9   10 2   
    16    9   15 1   
    17   10   16 1   
@<TRIPOS>SUBSTRUCTURE
     1 9DA         1 TEMP              0 ****  ****    0 ROOT
