@<TRIPOS>MOLECULE
9DA
   16    17     1     0     0
SMALL
bcc


@<TRIPOS>ATOM
      1 N1         -0.3310    0.0200    2.0280 nb        1 9DA     -0.749000
      2 C2         -1.5820   -0.0020    1.4770 ca        1 9DA      0.636900
      3 N3         -1.9420   -0.0310    0.1780 nb        1 9DA     -0.673000
      4 C4         -0.8990   -0.0170   -0.6910 ca        1 9DA      0.448100
      5 C5          0.4820    0.0220   -0.2320 ca        1 9DA     -0.324800
      6 C6          0.7330    0.0360    1.1770 ca        1 9DA      0.650200
      7 N6          2.0540    0.1470    1.6460 nh        1 9DA     -0.916500
      8 N7          1.3210   -0.0020   -1.3460 na        1 9DA     -0.166400
      9 C8          0.5120    0.0120   -2.4870 cc        1 9DA     -0.093100
     10 C9         -0.8360   -0.0280   -2.1400 cd        1 9DA     -0.300800
     11 HC2        -2.4110   -0.0050    2.2170 h5        1 9DA      0.051100
     12 HN61        2.6810   -0.4710    1.1780 hn        1 9DA      0.397800
     13 HN62        2.1480    0.1070    2.6400 hn        1 9DA      0.397800
     14 HN7         2.2740    0.2530   -1.3260 hn        1 9DA      0.299700
     15 HC8         0.9650    0.0220   -3.4820 h4        1 9DA      0.170000
     16 HC9        -1.6900   -0.0640   -2.8100 ha        1 9DA      0.173000
@<TRIPOS>BOND
     1    1    2 ar  
     2    1    6 ar  
     3    2    3 ar  
     4    2   11 1   
     5    3    4 ar  
     6    4    5 ar  
     7    4   10 1   
     8    5    6 ar  
     9    5    8 1   
    10    6    7 1   
    11    7   12 1   
    12    7   13 1   
    13    8    9 1   
    14    8   14 1   
    15    9   10 2   
    16    9   15 1   
    17   10   16 1   
@<TRIPOS>SUBSTRUCTURE
     1 9DA         1 TEMP              0 ****  ****    0 ROOT
