@<TRIPOS>MOLECULE
9DA
   17    18     1     0     0
SMALL
bcc


@<TRIPOS>ATOM
      1 N1          0.0000    0.0000   -0.0540 nb        1 9DA     -0.666000
      2 C2          1.3550    0.0000    0.0160 ca        1 9DA      0.649900
      3 N3          2.1330    0.0000    1.1350 nb        1 9DA     -0.581000
      4 C4          1.4720    0.0000    2.2980 ca        1 9DA      0.476100
      5 C5         -0.0160    0.0000    2.3640 ca        1 9DA     -0.249800
      6 C6         -0.6820    0.0000    1.1250 ca        1 9DA      0.443200
      7 N6         -2.1550   -0.0000    1.0520 n4        1 9DA     -0.816300
      8 N7         -0.3880   -0.0000    3.6950 na        1 9DA     -0.192400
      9 C8          0.7810   -0.0000    4.4790 cc        1 9DA     -0.040100
     10 C9          1.9170    0.0000    3.6830 cd        1 9DA     -0.266800
     11 HC2         1.8890    0.0010   -0.9640 h5        1 9DA      0.100100
     12 HN61       -2.5160    0.8400    1.5150 hn        1 9DA      0.470800
     13 HN62       -2.5160   -0.8400    1.5150 hn        1 9DA      0.470800
     14 HN7        -1.3060   -0.0000    4.0530 hn        1 9DA      0.312700
     15 HC8         0.7020   -0.0000    5.5730 h4        1 9DA      0.207000
     16 HC9         2.9580    0.0000    4.0070 ha        1 9DA      0.210000
     17 H63        -2.4670   -0.0000    0.0680 hn        1 9DA      0.470800
@<TRIPOS>BOND
     1    1    2 ar  
     2    1    6 ar  
     3    2    3 ar  
     4    2   11 1   
     5    3    4 ar  
     6    4    5 ar  
     7    4   10 1   
     8    5    6 ar  
     9    5    8 1   
    10    6    7 1   
    11    7   12 1   
    12    7   13 1   
    13    7   17 1   
    14    8    9 1   
    15    8   14 1   
    16    9   10 2   
    17    9   15 1   
    18   10   16 1   
@<TRIPOS>SUBSTRUCTURE
     1 9DA         1 TEMP              0 ****  ****    0 ROOT
