@<TRIPOS>MOLECULE
9DA
   16    17     1     0     0
SMALL
bcc


@<TRIPOS>ATOM
      1 N1         -0.0540   -0.1020   -0.0360 nb        1 9DA     -0.749000
      2 C2          1.3120   -0.0910    0.0290 ca        1 9DA      0.636900
      3 N3          2.1140   -0.0280    1.1110 nb        1 9DA     -0.673000
      4 C4          1.4520    0.0100    2.2960 ca        1 9DA      0.448100
      5 C5         -0.0020   -0.0120    2.3640 ca        1 9DA     -0.324800
      6 C6         -0.7420   -0.0670    1.1400 ca        1 9DA      0.650200
      7 N6         -2.1440   -0.1620    1.1800 nh        1 9DA     -0.916500
      8 N7         -0.3850    0.0670    3.7030 na        1 9DA     -0.166400
      9 C8          0.7790    0.0720    4.4780 cc        1 9DA     -0.093100
     10 C9          1.9130    0.0700    3.6700 cd        1 9DA     -0.300800
     11 HC2         1.8200   -0.1300   -0.9570 h5        1 9DA      0.051100
     12 HN61       -2.5880   -0.1530    0.2850 hn        1 9DA      0.397800
     13 HN62       -2.5550    0.4850    1.8170 hn        1 9DA      0.397800
     14 HN7        -1.2840   -0.1660    4.0350 hn        1 9DA      0.299700
     15 HC8         0.7130    0.1040    5.5680 h4        1 9DA      0.170000
     16 HC9         2.9510    0.1090    3.9880 ha        1 9DA      0.173000
@<TRIPOS>BOND
     1    1    2 ar  
     2    1    6 ar  
     3    2    3 ar  
     4    2   11 1   
     5    3    4 ar  
     6    4    5 ar  
     7    4   10 1   
     8    5    6 ar  
     9    5    8 1   
    10    6    7 1   
    11    7   12 1   
    12    7   13 1   
    13    8    9 1   
    14    8   14 1   
    15    9   10 2   
    16    9   15 1   
    17   10   16 1   
@<TRIPOS>SUBSTRUCTURE
     1 9DA         1 TEMP              0 ****  ****    0 ROOT
