@<TRIPOS>MOLECULE
9DG
   17    13     1     0     0
SMALL
bcc


@<TRIPOS>ATOM
      1 C9          0.3630   -0.0020   -2.3100 c1        1 9DG     -0.086500
      2 C8          1.7410   -0.0020   -2.3100 c1        1 9DG     -0.146500
      3 N7          2.1630   -0.0020   -1.0110 n2        1 9DG     -0.137000
      4 C5          1.0480   -0.0020   -0.1980 c1        1 9DG     -0.146500
      5 C6          0.8910   -0.0020    1.2980 c1        1 9DG      0.377000
      6 O6          1.8730    0.0460    2.0120 o         1 9DG     -0.370000
      7 N1         -0.3890   -0.0020    1.8670 n3        1 9DG     -0.330000
      8 C2         -1.5410   -0.0020    1.0290 c2        1 9DG      0.184000
      9 N2         -2.8380   -0.0030    1.6050 n3        1 9DG     -0.316000
     10 N3         -1.3910   -0.0020   -0.4070 n1        1 9DG     -0.201000
     11 C4         -0.0620   -0.0020   -1.0010 c1        1 9DG     -0.086500
     12 H9         -0.2110   -0.0020   -3.0990 DU        1 9DG      0.202000
     13 H8          2.3140   -0.0020   -3.1000 DU        1 9DG      0.202000
     14 HN7         3.0310   -0.0020   -0.7300 DU        1 9DG      0.202000
     15 HN1        -0.4840   -0.0110    2.7740 hn        1 9DG      0.250000
     16 HN21       -2.9330    0.0010    2.5120 hn        1 9DG      0.201000
     17 HN22       -3.5750   -0.0070    1.0690 hn        1 9DG      0.201000
@<TRIPOS>BOND
     1    1    2 1   
     2    1   11 1   
     3    2    3 1   
     4    3    4 1   
     5    4   11 1   
     6    5    6 1   
     7    5    7 1   
     8    7    8 1   
     9    7   15 1   
    10    8    9 1   
    11    8   10 1   
    12    9   16 1   
    13    9   17 1   
@<TRIPOS>SUBSTRUCTURE
     1 9DG         1 TEMP              0 ****  ****    0 ROOT
