@<TRIPOS>MOLECULE
9DG
   18    19     1     0     0
SMALL
bcc


@<TRIPOS>ATOM
      1 C9         -0.0340    0.0110   -0.0610 cc        1 9DG     -0.125000
      2 C8          1.3740    0.0090   -0.0440 cd        1 9DG     -0.091300
      3 N7          1.8390    0.0040    1.2680 na        1 9DG     -0.097100
      4 C5          0.7510    0.0030    2.1120 cd        1 9DG     -0.182900
      5 C6          0.6930   -0.0020    3.5670 c         1 9DG      0.744100
      6 O6          1.6400   -0.0060    4.3600 o         1 9DG     -0.553500
      7 N1         -0.6310   -0.0020    4.0860 n         1 9DG     -0.494400
      8 C2         -1.7310    0.0030    3.2110 cd        1 9DG      0.463800
      9 N2         -3.0940    0.0030    3.8350 n4        1 9DG     -0.790600
     10 N3         -1.7050    0.0070    1.8810 nc        1 9DG     -0.484100
     11 C4         -0.4520    0.0070    1.3130 cc        1 9DG      0.077400
     12 H9         -0.6760    0.0150   -0.9390 ha        1 9DG      0.195000
     13 H8          2.0710    0.0110   -0.8880 h4        1 9DG      0.207000
     14 HN7         2.7880    0.0020    1.5600 hn        1 9DG      0.340700
     15 HN1        -0.7410   -0.0050    5.0770 hn        1 9DG      0.350500
     16 HN21       -3.8110    0.0060    3.0930 hn        1 9DG      0.479800
     17 HN22       -3.2060    0.8420    4.4150 hn        1 9DG      0.479800
     18 H23        -3.2080   -0.8400    4.4100 hn        1 9DG      0.479800
@<TRIPOS>BOND
     1    1    2 2   
     2    1   11 1   
     3    1   12 1   
     4    2    3 1   
     5    2   13 1   
     6    3    4 1   
     7    3   14 1   
     8    4    5 1   
     9    4   11 2   
    10    5    6 2   
    11    5    7 1   
    12    7    8 1   
    13    7   15 1   
    14    8    9 1   
    15    8   10 2   
    16    9   16 1   
    17    9   17 1   
    18    9   18 1   
    19   10   11 1   
@<TRIPOS>SUBSTRUCTURE
     1 9DG         1 TEMP              0 ****  ****    0 ROOT
