@<TRIPOS>MOLECULE
9DG
   17    18     1     0     0
SMALL
bcc


@<TRIPOS>ATOM
      1 C9          1.6790    0.0180   -1.7690 cc        1 9DG     -0.190000
      2 C8          0.6910    0.0220   -2.7710 cd        1 9DG     -0.110300
      3 N7         -0.5720    0.0110   -2.1990 na        1 9DG     -0.138100
      4 C5         -0.4170    0.0010   -0.8190 cd        1 9DG     -0.251900
      5 C6         -1.4130   -0.0230    0.2330 c         1 9DG      0.740100
      6 O6         -2.6500   -0.0330    0.0860 o         1 9DG     -0.645500
      7 N1         -0.8670   -0.0230    1.5310 n         1 9DG     -0.490400
      8 C2          0.5330   -0.0430    1.7570 cd        1 9DG      0.630800
      9 N2          0.9470   -0.1780    3.1140 nh        1 9DG     -0.877800
     10 N3          1.4610    0.0010    0.7840 nc        1 9DG     -0.628100
     11 C4          0.9850    0.0040   -0.5090 cc        1 9DG      0.156400
     12 H9          2.7540    0.0240   -1.9140 ha        1 9DG      0.169000
     13 H8          0.8170    0.0310   -3.8550 h4        1 9DG      0.172000
     14 HN7        -1.4410    0.0070   -2.6680 hn        1 9DG      0.314700
     15 HN1        -1.4990   -0.1120    2.2960 hn        1 9DG      0.336500
     16 HN21        1.9410   -0.1610    3.2220 hn        1 9DG      0.405800
     17 HN22        0.4870    0.4540    3.7340 hn        1 9DG      0.405800
@<TRIPOS>BOND
     1    1    2 2   
     2    1   11 1   
     3    1   12 1   
     4    2    3 1   
     5    2   13 1   
     6    3    4 1   
     7    3   14 1   
     8    4    5 1   
     9    4   11 2   
    10    5    6 2   
    11    5    7 1   
    12    7    8 1   
    13    7   15 1   
    14    8    9 1   
    15    8   10 2   
    16    9   16 1   
    17    9   17 1   
    18   10   11 1   
@<TRIPOS>SUBSTRUCTURE
     1 9DG         1 TEMP              0 ****  ****    0 ROOT
