@<TRIPOS>MOLECULE
9DI
   32    29     1     0     0
SMALL
bcc


@<TRIPOS>ATOM
      1 C9          0.3310    0.1040   -0.5300 c1        1 9DI     -0.157000
      2 C4          1.6820   -0.1800   -0.5920 c1        1 9DI     -0.016000
      3 N3          2.6450   -0.6010    0.4300 n1        1 9DI     -0.171000
      4 C2          4.0230   -0.8300    0.0740 c1        1 9DI      0.049000
      5 N1          4.4540   -0.6470   -1.2850 n2        1 9DI     -0.324000
      6 C6          3.5370   -0.2450   -2.2620 c2        1 9DI      0.364000
      7 O6          3.9000   -0.1050   -3.4210 o         1 9DI     -0.358000
      8 C5          2.0920   -0.0050   -1.8890 c2        1 9DI     -0.184000
      9 N7          0.9990    0.3870   -2.6330 n2        1 9DI     -0.128000
     10 C8         -0.0870    0.4540   -1.7940 c1        1 9DI     -0.054000
     11 C5'        -2.6330   -0.8200   -0.1880 c3        1 9DI     -0.032000
     12 O5'        -3.2820   -2.0880   -0.3630 oh        1 9DI     -0.323000
     13 C4'        -2.1510   -0.6880    1.2590 c3        1 9DI     -0.021000
     14 O4'        -0.5740   -0.9990    1.3530 os        1 9DI     -0.286000
     15 C1'         0.0340    0.1020    1.0100 c2        1 9DI      0.074000
     16 C2'        -0.9440    1.2260    1.3630 c3        1 9DI     -0.015000
     17 O2'        -0.5100    1.8980    2.4560 oh        1 9DI     -0.333000
     18 C3'        -2.3050    0.5170    1.6670 c3        1 9DI      0.024000
     19 O3'        -2.5830    0.5350    3.1290 oh        1 9DI     -0.319000
     20 H2          4.6660   -1.1130    0.7580 ha        1 9DI      0.184000
     21 HN1         5.3220   -0.7910   -1.5100 hn        1 9DI      0.255000
     22 HN7         0.9970    0.5690   -3.5210 DU        1 9DI      0.229000
     23 H8         -0.9680    0.7800   -2.0300 DU        1 9DI      0.229000
     24 H5'1       -1.8750   -0.7580   -0.7880 h1        1 9DI      0.089000
     25 H5'2       -3.2750   -0.0880   -0.3900 h1        1 9DI      0.089000
     26 HO5'       -3.8960   -2.0240   -1.0150 ho        1 9DI      0.208000
     27 H4'        -2.6640   -1.3220    1.8540 h1        1 9DI      0.143000
     28 H1'         0.8790    0.2060    1.5250 h4        1 9DI      0.126000
     29 H2'        -1.0420    1.8300    0.6160 h1        1 9DI      0.103000
     30 HO2'       -0.4180    2.7580    2.2570 ho        1 9DI      0.234000
     31 H3'        -3.0310    0.9500    1.1780 h1        1 9DI      0.094000
     32 HO3'       -3.3220    0.9900    3.2810 ho        1 9DI      0.229000
@<TRIPOS>BOND
     1    1    2 1   
     2    1   10 1   
     3    2    8 1   
     4    3    4 1   
     5    4   20 1   
     6    5    6 1   
     7    5   21 1   
     8    6    7 1   
     9    6    8 1   
    10    8    9 1   
    11    9   10 1   
    12   11   12 1   
    13   11   13 1   
    14   11   24 1   
    15   11   25 1   
    16   12   26 1   
    17   13   14 1   
    18   13   18 1   
    19   13   27 1   
    20   14   15 1   
    21   15   16 1   
    22   15   28 1   
    23   16   17 1   
    24   16   18 1   
    25   16   29 1   
    26   17   30 1   
    27   18   19 1   
    28   18   31 1   
    29   19   32 1   
@<TRIPOS>SUBSTRUCTURE
     1 9DI         1 TEMP              0 ****  ****    0 ROOT
