@<TRIPOS>MOLECULE
9DI
   32    34     1     0     0
SMALL
bcc


@<TRIPOS>ATOM
      1 C9         -0.1640   -0.4230    0.4190 cc        1 9DI     -0.166300
      2 C4          1.1410    0.0790    0.0830 cc        1 9DI      0.132400
      3 N3          2.0580    0.8350    0.7950 nc        1 9DI     -0.573100
      4 C2          3.1840    1.1070    0.1670 cd        1 9DI      0.464800
      5 N1          3.5370    0.7220   -1.1260 n         1 9DI     -0.485400
      6 C6          2.6660   -0.0440   -1.9250 c         1 9DI      0.726100
      7 O6          2.9910   -0.3800   -3.0790 o         1 9DI     -0.640500
      8 C5          1.4130   -0.3670   -1.2570 cd        1 9DI     -0.235900
      9 N7          0.3300   -1.1050   -1.7140 na        1 9DI     -0.131100
     10 C8         -0.6180   -1.1460   -0.7060 cd        1 9DI     -0.086300
     11 C5'        -3.7420    0.3620    0.1280 c3        1 9DI      0.113400
     12 O5'        -4.6980   -0.6700   -0.0450 oh        1 9DI     -0.590800
     13 C4'        -3.1820    0.2210    1.5440 c3        1 9DI      0.133100
     14 O4'        -2.2120   -0.8330    1.5920 os        1 9DI     -0.408600
     15 C1'        -0.8790   -0.3060    1.7060 c3        1 9DI      0.185400
     16 C2'        -1.0040    1.1440    2.2210 c3        1 9DI      0.092100
     17 O2'        -0.6670    1.2590    3.5860 oh        1 9DI     -0.585800
     18 C3'        -2.4900    1.5200    2.0010 c3        1 9DI      0.081100
     19 O3'        -3.1060    1.9250    3.2090 oh        1 9DI     -0.594800
     20 H2          3.9440    1.7070    0.7130 h5        1 9DI      0.054800
     21 HN1         4.4220    0.9790   -1.5010 hn        1 9DI      0.339500
     22 HN7         0.2770   -1.5380   -2.6000 hn        1 9DI      0.318700
     23 H8         -1.5640   -1.6850   -0.8160 h4        1 9DI      0.194000
     24 H5'1       -2.9200    0.2560   -0.6290 h1        1 9DI      0.031200
     25 H5'2       -4.2360    1.3650    0.0130 h1        1 9DI      0.031200
     26 HO5'       -5.0940   -0.5330   -0.9140 ho        1 9DI      0.399000
     27 H1'        -0.3740   -0.9570    2.4780 h1        1 9DI      0.093700
     28 H2'        -0.3040    1.8440    1.6930 h1        1 9DI      0.112700
     29 HO2'       -1.2300    0.6430    4.0770 ho        1 9DI      0.413000
     30 H3'        -2.5870    2.3380    1.2390 h1        1 9DI      0.055700
     31 HO3'       -2.5230    2.5810    3.6170 ho        1 9DI      0.420000
     32 H4'        -3.9980   -0.0900    2.2540 h1        1 9DI      0.110700
@<TRIPOS>BOND
     1    1    2 1   
     2    1   10 2   
     3    1   15 1   
     4    2    3 1   
     5    2    8 2   
     6    3    4 2   
     7    4    5 1   
     8    4   20 1   
     9    5    6 1   
    10    5   21 1   
    11    6    7 2   
    12    6    8 1   
    13    8    9 1   
    14    9   10 1   
    15    9   22 1   
    16   10   23 1   
    17   11   12 1   
    18   11   13 1   
    19   11   24 1   
    20   11   25 1   
    21   12   26 1   
    22   13   14 1   
    23   13   18 1   
    24   13   32 1   
    25   14   15 1   
    26   15   16 1   
    27   15   27 1   
    28   16   17 1   
    29   16   18 1   
    30   16   28 1   
    31   17   29 1   
    32   18   19 1   
    33   18   30 1   
    34   19   31 1   
@<TRIPOS>SUBSTRUCTURE
     1 9DI         1 TEMP              0 ****  ****    0 ROOT
