@<TRIPOS>MOLECULE
9DI
   32    34     1     0     0
SMALL
bcc


@<TRIPOS>ATOM
      1 C9         -0.1210   -0.3230    0.1270 cc        1 9DI     -0.157300
      2 C4          1.2350    0.1370   -0.0050 cc        1 9DI      0.122400
      3 N3          2.0770    0.7950    0.8780 nc        1 9DI     -0.594100
      4 C2          3.2830    1.0640    0.4190 cd        1 9DI      0.470800
      5 N1          3.7840    0.7600   -0.8460 ns        1 9DI     -0.485400
      6 C6          2.9960    0.0940   -1.8080 c         1 9DI      0.727100
      7 O6          3.4580   -0.1680   -2.9330 o         1 9DI     -0.636500
      8 C5          1.6570   -0.2200   -1.3310 cd        1 9DI     -0.230900
      9 N7          0.6110   -0.8650   -1.9750 na        1 9DI     -0.132100
     10 C8         -0.4610   -0.9320   -1.0990 cd        1 9DI     -0.075300
     11 C5'        -4.3610    0.3980    0.5280 c3        1 9DI      0.128400
     12 O5'        -5.2970   -0.6530    0.6990 oh        1 9DI     -0.593800
     13 C4'        -3.2710    0.2000    1.5800 c3        1 9DI      0.101100
     14 O4'        -2.2870   -0.6920    1.0390 os        1 9DI     -0.413600
     15 C1'        -0.9600   -0.2240    1.3350 c3        1 9DI      0.184400
     16 C2'        -1.0640    1.2190    1.8810 c3        1 9DI      0.092100
     17 O2'        -0.5420    1.2960    3.1940 oh        1 9DI     -0.603800
     18 C3'        -2.5760    1.5270    1.9510 c3        1 9DI      0.129100
     19 O3'        -3.0050    2.0150    3.1970 oh        1 9DI     -0.577800
     20 H2          3.9880    1.5890    1.0990 h5        1 9DI      0.053800
     21 HN1         4.7160    1.0080   -1.0870 hn        1 9DI      0.340500
     22 HN7         0.6490   -1.2190   -2.8970 hn        1 9DI      0.318700
     23 H8         -1.4080   -1.4050   -1.3720 h4        1 9DI      0.192000
     24 H5'1       -4.8710    1.3850    0.6930 h1        1 9DI      0.034200
     25 H5'2       -3.9210    0.3660   -0.5030 h1        1 9DI      0.034200
     26 HO5'       -5.9320   -0.5760   -0.0220 ho        1 9DI      0.400000
     27 H1'        -0.5510   -0.9060    2.1370 h1        1 9DI      0.077700
     28 H2'        -0.5380    1.9480    1.2100 h1        1 9DI      0.070700
     29 HO2'        0.4180    1.2160    3.1140 ho        1 9DI      0.429000
     30 H3'        -2.8380    2.3430    1.2230 h1        1 9DI      0.083700
     31 HO3'       -2.6060    1.4700    3.8890 ho        1 9DI      0.424000
     32 H4'        -3.7050   -0.2940    2.4920 h1        1 9DI      0.085700
@<TRIPOS>BOND
     1    1    2 1   
     2    1   10 2   
     3    1   15 1   
     4    2    3 1   
     5    2    8 2   
     6    3    4 2   
     7    4    5 1   
     8    4   20 1   
     9    5    6 1   
    10    5   21 1   
    11    6    7 2   
    12    6    8 1   
    13    8    9 1   
    14    9   10 1   
    15    9   22 1   
    16   10   23 1   
    17   11   12 1   
    18   11   13 1   
    19   11   24 1   
    20   11   25 1   
    21   12   26 1   
    22   13   14 1   
    23   13   18 1   
    24   13   32 1   
    25   14   15 1   
    26   15   16 1   
    27   15   27 1   
    28   16   17 1   
    29   16   18 1   
    30   16   28 1   
    31   17   29 1   
    32   18   19 1   
    33   18   30 1   
    34   19   31 1   
@<TRIPOS>SUBSTRUCTURE
     1 9DI         1 TEMP              0 ****  ****    0 ROOT
