@<TRIPOS>MOLECULE
9DI
   32    34     1     0     0
SMALL
bcc


@<TRIPOS>ATOM
      1 C9         -0.2450   -0.3020    0.4180 cc        1 9DI     -0.169300
      2 C4          1.1250    0.0250    0.1250 cc        1 9DI      0.131400
      3 N3          2.1080    0.6530    0.8740 nc        1 9DI     -0.572100
      4 C2          3.2780    0.7830    0.2820 cd        1 9DI      0.465800
      5 N1          3.6190    0.3630   -1.0040 n         1 9DI     -0.485400
      6 C6          2.6830   -0.2810   -1.8360 c         1 9DI      0.726100
      7 O6          2.9990   -0.6500   -2.9820 o         1 9DI     -0.637500
      8 C5          1.3770   -0.4440   -1.2100 cd        1 9DI     -0.231900
      9 N7          0.2210   -1.0280   -1.7060 na        1 9DI     -0.128100
     10 C8         -0.7560   -0.9480   -0.7290 cd        1 9DI     -0.088300
     11 C5'        -3.8330    0.3970    0.0870 c3        1 9DI      0.115400
     12 O5'        -4.3980   -0.8670   -0.1950 oh        1 9DI     -0.598800
     13 C4'        -3.2550    0.4540    1.5000 c3        1 9DI      0.090100
     14 O4'        -2.2870   -0.5950    1.6490 os        1 9DI     -0.430600
     15 C1'        -0.9520   -0.0630    1.6920 c3        1 9DI      0.191400
     16 C2'        -1.0700    1.4390    2.0400 c3        1 9DI      0.092100
     17 O2'        -0.7280    1.7080    3.3810 oh        1 9DI     -0.583800
     18 C3'        -2.5560    1.7940    1.7830 c3        1 9DI      0.086100
     19 O3'        -3.1580    2.3530    2.9350 oh        1 9DI     -0.595800
     20 H2          4.0910    1.2790    0.8560 h5        1 9DI      0.055800
     21 HN1         4.5400    0.5090   -1.3500 hn        1 9DI      0.339500
     22 HN7         0.1340   -1.4360   -2.6030 hn        1 9DI      0.320700
     23 H8         -1.7620   -1.3480   -0.8830 h4        1 9DI      0.185000
     24 H5'1       -4.6760    1.1300   -0.0190 h1        1 9DI      0.051200
     25 H5'2       -3.0320    0.6220   -0.6680 h1        1 9DI      0.051200
     26 HO5'       -3.8010   -1.5380    0.1640 ho        1 9DI      0.412000
     27 H1'        -0.4380   -0.6260    2.5240 h1        1 9DI      0.097700
     28 H2'        -0.3650    2.0650    1.4330 h1        1 9DI      0.110700
     29 HO2'       -1.2960    1.1630    3.9420 ho        1 9DI      0.414000
     30 H3'        -2.6580    2.5050    0.9210 h1        1 9DI      0.060700
     31 HO3'       -2.5710    3.0570    3.2470 ho        1 9DI      0.422000
     32 H4'        -4.0530    0.2360    2.2620 h1        1 9DI      0.103700
@<TRIPOS>BOND
     1    1    2 1   
     2    1   10 2   
     3    1   15 1   
     4    2    3 1   
     5    2    8 2   
     6    3    4 2   
     7    4    5 1   
     8    4   20 1   
     9    5    6 1   
    10    5   21 1   
    11    6    7 2   
    12    6    8 1   
    13    8    9 1   
    14    9   10 1   
    15    9   22 1   
    16   10   23 1   
    17   11   12 1   
    18   11   13 1   
    19   11   24 1   
    20   11   25 1   
    21   12   26 1   
    22   13   14 1   
    23   13   18 1   
    24   13   32 1   
    25   14   15 1   
    26   15   16 1   
    27   15   27 1   
    28   16   17 1   
    29   16   18 1   
    30   16   28 1   
    31   17   29 1   
    32   18   19 1   
    33   18   30 1   
    34   19   31 1   
@<TRIPOS>SUBSTRUCTURE
     1 9DI         1 TEMP              0 ****  ****    0 ROOT
