@<TRIPOS>MOLECULE
9DI
   32    34     1     0     0
SMALL
bcc


@<TRIPOS>ATOM
      1 C9          0.3350    0.5000   -0.0340 cc        1 9DI     -0.169300
      2 C4         -0.1600    0.2930   -1.3680 cc        1 9DI      0.131400
      3 N3         -1.4400    0.3340   -1.8980 nc        1 9DI     -0.573100
      4 C2         -1.5280    0.1020   -3.1930 cd        1 9DI      0.465800
      5 N1         -0.4780   -0.1830   -4.0670 n         1 9DI     -0.485400
      6 C6          0.8540   -0.2510   -3.6130 c         1 9DI      0.726100
      7 O6          1.7810   -0.5080   -4.4030 o         1 9DI     -0.637500
      8 C5          0.9870    0.0050   -2.1860 cd        1 9DI     -0.232900
      9 N7          2.1230    0.0310   -1.3910 na        1 9DI     -0.128100
     10 C8          1.7350    0.3310   -0.0960 cd        1 9DI     -0.088300
     11 C5'         1.4770   -0.9530    3.1460 c3        1 9DI      0.116400
     12 O5'         2.6440   -0.2250    3.4700 oh        1 9DI     -0.598800
     13 C4'         0.2290   -0.0750    3.2110 c3        1 9DI      0.061100
     14 O4'         0.3920    1.0260    2.3070 os        1 9DI     -0.427600
     15 C1'        -0.4560    0.8790    1.1550 c3        1 9DI      0.222400
     16 C2'        -1.5320   -0.1720    1.5070 c3        1 9DI      0.091100
     17 O2'        -2.7400    0.5260    1.7460 oh        1 9DI     -0.589800
     18 C3'        -1.0440   -0.8430    2.8160 c3        1 9DI      0.092100
     19 O3'        -2.0340   -0.7890    3.8170 oh        1 9DI     -0.590800
     20 H2         -2.5390    0.1320   -3.6530 h5        1 9DI      0.054800
     21 HN1        -0.6590   -0.3350   -5.0330 hn        1 9DI      0.339500
     22 HN7         3.0430   -0.1290   -1.7150 hn        1 9DI      0.320700
     23 H8          2.4590    0.4110    0.7210 h4        1 9DI      0.185000
     24 H5'1        1.5850   -1.3910    2.1160 h1        1 9DI      0.051200
     25 H5'2        1.4190   -1.7750    3.9080 h1        1 9DI      0.051200
     26 HO5'        2.5850    0.6280    3.0190 ho        1 9DI      0.411000
     27 H1'        -0.9270    1.8930    1.0030 h1        1 9DI      0.108700
     28 H2'        -1.6650   -0.9200    0.6830 h1        1 9DI      0.075700
     29 HO2'       -3.4290   -0.1440    1.8550 ho        1 9DI      0.415000
     30 H3'        -0.8420   -1.9380    2.6730 h1        1 9DI      0.092700
     31 HO3'       -2.2870    0.1390    3.9290 ho        1 9DI      0.420000
     32 H4'         0.1340    0.3890    4.2320 h1        1 9DI      0.091700
@<TRIPOS>BOND
     1    1    2 1   
     2    1   10 2   
     3    1   15 1   
     4    2    3 1   
     5    2    8 2   
     6    3    4 2   
     7    4    5 1   
     8    4   20 1   
     9    5    6 1   
    10    5   21 1   
    11    6    7 2   
    12    6    8 1   
    13    8    9 1   
    14    9   10 1   
    15    9   22 1   
    16   10   23 1   
    17   11   12 1   
    18   11   13 1   
    19   11   24 1   
    20   11   25 1   
    21   12   26 1   
    22   13   14 1   
    23   13   18 1   
    24   13   32 1   
    25   14   15 1   
    26   15   16 1   
    27   15   27 1   
    28   16   17 1   
    29   16   18 1   
    30   16   28 1   
    31   17   29 1   
    32   18   19 1   
    33   18   30 1   
    34   19   31 1   
@<TRIPOS>SUBSTRUCTURE
     1 9DI         1 TEMP              0 ****  ****    0 ROOT
