@<TRIPOS>MOLECULE
9DN
   43    44     1     0     0
SMALL
bcc


@<TRIPOS>ATOM
      1 N           1.9090   -0.3620    0.7780 n3        1 9DN     -0.898100
      2 CA          2.5120   -1.3320   -0.1100 c3        1 9DN      0.078500
      3 C           1.6530   -2.6590   -0.2060 c         1 9DN      0.913600
      4 O           1.0200   -3.0180    0.8210 o         1 9DN     -0.814800
      5 CB          3.9100   -1.7750    0.3230 c3        1 9DN     -0.144400
      6 CG          4.9570   -0.6950    0.4590 c         1 9DN      0.647100
      7 OD1         5.8590   -0.7740    1.3270 o         1 9DN     -0.661100
      8 ND2         4.9820    0.3520   -0.4350 n         1 9DN     -0.660000
      9 OXT         1.6880   -3.2500   -1.3140 o         1 9DN     -0.814800
     10 S1          1.4720    1.1020    0.3570 sy        1 9DN      1.492200
     11 O2          2.3270    1.6230   -0.6640 o         1 9DN     -0.682300
     12 O3          1.3660    1.9440    1.4960 o         1 9DN     -0.682300
     13 N1         -4.8990   -0.1550   -0.2110 nh        1 9DN     -0.640000
     14 C1         -0.0810    0.9200   -0.3410 ca        1 9DN     -0.343500
     15 C2         -0.1660    1.0090   -1.7170 ca        1 9DN      0.003000
     16 C3         -1.3910    0.8460   -2.3930 ca        1 9DN     -0.170000
     17 C4         -2.5300    0.5530   -1.6850 ca        1 9DN     -0.050000
     18 C5         -2.4960    0.4290   -0.2690 ca        1 9DN     -0.053000
     19 C6         -1.2650    0.6490    0.4080 ca        1 9DN      0.079000
     20 C7         -1.2450    0.5990    1.8320 ca        1 9DN     -0.144000
     21 C8         -2.3860    0.3220    2.5380 ca        1 9DN     -0.096000
     22 C9         -3.6020    0.0560    1.8760 ca        1 9DN     -0.183000
     23 C10        -3.6770    0.0940    0.4910 ca        1 9DN      0.127600
     24 C11        -4.9470   -1.4500   -0.8590 c3        1 9DN      0.165600
     25 C12        -6.1030    0.1550    0.5220 c3        1 9DN      0.165600
     26 H           1.5360   -0.8250    1.5840 hn        1 9DN      0.475800
     27 H111       -5.1840   -2.2850   -0.1440 h1        1 9DN      0.034700
     28 H112       -5.7460   -1.4160   -1.6450 h1        1 9DN      0.034700
     29 H113       -3.9590   -1.6670   -1.3440 h1        1 9DN      0.034700
     30 H121       -5.9950    1.1560    1.0140 h1        1 9DN      0.034700
     31 H122       -6.9510    0.1980   -0.2130 h1        1 9DN      0.034700
     32 H123       -6.3600   -0.6070    1.3080 h1        1 9DN      0.034700
     33 H2          0.7450    1.2120   -2.3120 ha        1 9DN      0.159000
     34 H3         -1.4170    0.9390   -3.4880 ha        1 9DN      0.131000
     35 H4         -3.4830    0.4190   -2.2220 ha        1 9DN      0.139000
     36 H7         -0.3060    0.8010    2.3730 ha        1 9DN      0.159000
     37 H8         -2.3630    0.2860    3.6380 ha        1 9DN      0.129000
     38 H9         -4.4830   -0.1910    2.4870 ha        1 9DN      0.125000
     39 HA          2.5590   -0.8880   -1.1480 h1        1 9DN      0.051700
     40 HB1C        3.8420   -2.3070    1.3090 hc        1 9DN      0.087700
     41 HB2C        4.2690   -2.5150   -0.4440 hc        1 9DN      0.087700
     42 HD21        4.1810    0.5560   -0.9850 hn        1 9DN      0.306500
     43 HD22        5.5960    1.1070   -0.2470 hn        1 9DN      0.306500
@<TRIPOS>BOND
     1    1    2 1   
     2    1   10 1   
     3    1   26 1   
     4    2    3 1   
     5    2    5 1   
     6    2   39 1   
     7    3    4 1   
     8    3    9 1   
     9    5    6 1   
    10    5   40 1   
    11    5   41 1   
    12    6    7 2   
    13    6    8 1   
    14    8   42 1   
    15    8   43 1   
    16   10   11 2   
    17   10   12 2   
    18   10   14 1   
    19   13   23 1   
    20   13   24 1   
    21   13   25 1   
    22   14   15 ar  
    23   14   19 ar  
    24   15   16 ar  
    25   15   33 1   
    26   16   17 ar  
    27   16   34 1   
    28   17   18 ar  
    29   17   35 1   
    30   18   19 ar  
    31   18   23 ar  
    32   19   20 ar  
    33   20   21 ar  
    34   20   36 1   
    35   21   22 ar  
    36   21   37 1   
    37   22   23 ar  
    38   22   38 1   
    39   24   27 1   
    40   24   28 1   
    41   24   29 1   
    42   25   30 1   
    43   25   31 1   
    44   25   32 1   
@<TRIPOS>SUBSTRUCTURE
     1 9DN         1 TEMP              0 ****  ****    0 ROOT
