@<TRIPOS>MOLECULE
9DP
   58    61     1     0     0
SMALL
bcc


@<TRIPOS>ATOM
      1 C1          0.4820    1.1210   -0.2750 ca        1 9DP      0.042400
      2 N1          3.7130    0.1580    1.3020 ns        1 9DP     -0.470100
      3 O1          3.4920   -1.2130    3.1700 o         1 9DP     -0.601100
      4 Cl1        -0.1520    1.5210   -1.8010 cl        1 9DP     -0.078400
      5 C2          1.8290    0.7660   -0.1310 ca        1 9DP     -0.039600
      6 N2          5.5580   -1.1770    2.0950 ns        1 9DP     -0.415100
      7 O2         12.5140    4.2930    3.1780 o         1 9DP     -0.831800
      8 Cl2         2.8450    0.7310   -1.4970 cl        1 9DP     -0.077400
      9 C3         -0.3700    1.1490    0.8310 ca        1 9DP     -0.147000
     10 N3          8.0340   -2.1070    4.5630 nc        1 9DP     -0.476800
     11 O3         12.9430    4.8320    1.0440 o         1 9DP     -0.831800
     12 C4          0.1330    0.8260    2.0880 ca        1 9DP     -0.100000
     13 N4          7.6260   -1.4440    3.4720 na        1 9DP      0.148300
     14 C5          1.4690    0.4820    2.2590 ca        1 9DP     -0.133000
     15 N5         11.9810    2.2150    0.3780 n7        1 9DP     -0.805200
     16 C6          2.3480    0.4440    1.1540 ca        1 9DP      0.096600
     17 C7          4.2130   -0.7580    2.2570 c         1 9DP      0.770100
     18 C8          6.2460   -1.6970    3.2000 cc        1 9DP     -0.001700
     19 C9          5.7870   -2.5300    4.2400 cd        1 9DP     -0.275300
     20 C10         6.9490   -2.7560    5.0740 cd        1 9DP      0.306600
     21 C11         6.9400   -3.5840    6.3210 c3        1 9DP     -0.071300
     22 C12         8.3170   -3.6530    6.9690 c3        1 9DP     -0.083767
     23 C13         5.9560   -2.9680    7.3110 c3        1 9DP     -0.083767
     24 C14         6.4860   -4.9970    5.9680 c3        1 9DP     -0.083767
     25 C15         8.5700   -1.1790    1.2160 ca        1 9DP     -0.174000
     26 C16         8.5040   -0.7730    2.5640 ca        1 9DP     -0.022200
     27 C17         9.2900    0.3030    3.0120 ca        1 9DP     -0.116000
     28 C18         9.3910   -0.4840    0.3350 ca        1 9DP     -0.134000
     29 C19        10.1580    0.6010    0.7660 ca        1 9DP     -0.061300
     30 C20        10.1130    0.9940    2.1160 ca        1 9DP     -0.026300
     31 C21        11.0100    1.3340   -0.2320 c3        1 9DP      0.212100
     32 C22        11.4000    3.0230    1.4410 c3        1 9DP      0.037500
     33 C23        10.9370    2.1370    2.5990 c3        1 9DP     -0.030100
     34 C24        12.3860    4.1360    1.9360 c         1 9DP      0.929600
     35 HN1         4.2840    0.3750    0.5120 hn        1 9DP      0.326500
     36 HN2         6.1300   -0.6710    1.4460 hn        1 9DP      0.320500
     37 H3         -1.4270    1.4250    0.7080 ha        1 9DP      0.148000
     38 H4         -0.5340    0.8460    2.9630 ha        1 9DP      0.142000
     39 H5          1.8410    0.2290    3.2670 ha        1 9DP      0.180000
     40 HN5        12.4150    2.8150   -0.3000 hn        1 9DP      0.389800
     41 H9          4.7760   -2.8910    4.3910 ha        1 9DP      0.182000
     42 H12         8.2670   -4.2810    7.8910 hc        1 9DP      0.036811
     43 H12A        9.0580   -4.1060    6.2680 hc        1 9DP      0.036811
     44 H12B        8.6690   -2.6320    7.2500 hc        1 9DP      0.036811
     45 H13         6.2870   -1.9420    7.5970 hc        1 9DP      0.036811
     46 H13A        5.8990   -3.5970    8.2310 hc        1 9DP      0.036811
     47 H13B        4.9390   -2.9010    6.8550 hc        1 9DP      0.036811
     48 H14         6.4280   -5.6190    6.8930 hc        1 9DP      0.036811
     49 H14A        7.2080   -5.4700    5.2610 hc        1 9DP      0.036811
     50 H14B        5.4790   -4.9710    5.4870 hc        1 9DP      0.036811
     51 H15         8.0000   -2.0500    0.8610 ha        1 9DP      0.133000
     52 H17         9.2710    0.6100    4.0700 ha        1 9DP      0.155000
     53 H18         9.4440   -0.8010   -0.7180 ha        1 9DP      0.127000
     54 H21        10.3000    1.8720   -0.9350 h1        1 9DP      0.020700
     55 H21A       11.5790    0.5810   -0.8500 h1        1 9DP      0.020700
     56 H22        10.4890    3.5840    1.0610 h1        1 9DP     -0.000300
     57 H23        10.3630    2.7710    3.3230 hc        1 9DP      0.076200
     58 H23A       11.8380    1.7480    3.1480 hc        1 9DP      0.076200
@<TRIPOS>BOND
     1    1    4 1   
     2    1    5 ar  
     3    1    9 ar  
     4    2   16 1   
     5    2   17 1   
     6    2   35 1   
     7    3   17 2   
     8    5    8 1   
     9    5   16 ar  
    10    6   17 1   
    11    6   18 1   
    12    6   36 1   
    13    7   34 1   
    14    9   12 ar  
    15    9   37 1   
    16   10   13 1   
    17   10   20 2   
    18   11   34 1   
    19   12   14 ar  
    20   12   38 1   
    21   13   18 1   
    22   13   26 1   
    23   14   16 ar  
    24   14   39 1   
    25   15   31 1   
    26   15   32 1   
    27   15   40 1   
    28   18   19 2   
    29   19   20 1   
    30   19   41 1   
    31   20   21 1   
    32   21   22 1   
    33   21   23 1   
    34   21   24 1   
    35   22   42 1   
    36   22   43 1   
    37   22   44 1   
    38   23   45 1   
    39   23   46 1   
    40   23   47 1   
    41   24   48 1   
    42   24   49 1   
    43   24   50 1   
    44   25   26 ar  
    45   25   28 ar  
    46   25   51 1   
    47   26   27 ar  
    48   27   30 ar  
    49   27   52 1   
    50   28   29 ar  
    51   28   53 1   
    52   29   30 ar  
    53   29   31 1   
    54   30   33 1   
    55   31   54 1   
    56   31   55 1   
    57   32   33 1   
    58   32   34 1   
    59   32   56 1   
    60   33   57 1   
    61   33   58 1   
@<TRIPOS>SUBSTRUCTURE
     1 9DP         1 TEMP              0 ****  ****    0 ROOT
