@<TRIPOS>MOLECULE
9DP
   58    61     1     0     0
SMALL
bcc


@<TRIPOS>ATOM
      1 C1          0.4900    1.1310   -0.2820 ca        1 9DP      0.042400
      2 N1          3.7170    0.1640    1.3000 n         1 9DP     -0.470100
      3 O1          3.4920   -1.2040    3.1690 o         1 9DP     -0.601100
      4 CL1        -0.1410    1.5310   -1.8090 cl        1 9DP     -0.078400
      5 C2          1.8360    0.7740   -0.1360 ca        1 9DP     -0.039600
      6 N2          5.5590   -1.1740    2.0960 n         1 9DP     -0.415100
      7 O2         12.5240    4.2840    3.1790 o         1 9DP     -0.831800
      8 CL2         2.8540    0.7360   -1.5000 cl        1 9DP     -0.077400
      9 C3         -0.3630    1.1610    0.8230 ca        1 9DP     -0.147000
     10 N3          8.0310   -2.1060    4.5670 nc        1 9DP     -0.476800
     11 O3         12.9560    4.8200    1.0440 o         1 9DP     -0.831800
     12 C4          0.1380    0.8380    2.0810 ca        1 9DP     -0.100000
     13 N4          7.6260   -1.4430    3.4750 na        1 9DP      0.148300
     14 C5          1.4730    0.4930    2.2540 ca        1 9DP     -0.133000
     15 N5         11.9900    2.2040    0.3810 n3        1 9DP     -0.805200
     16 C6          2.3530    0.4520    1.1500 ca        1 9DP      0.096600
     17 C7          4.2150   -0.7520    2.2570 c         1 9DP      0.770100
     18 C8          6.2450   -1.6940    3.2030 cc        1 9DP     -0.001700
     19 C9          5.7840   -2.5240    4.2430 cd        1 9DP     -0.275300
     20 C10         6.9440   -2.7520    5.0790 cd        1 9DP      0.306600
     21 C11         6.9330   -3.5790    6.3260 c3        1 9DP     -0.071300
     22 C12         8.3090   -3.6520    6.9740 c3        1 9DP     -0.083767
     23 C13         5.9510   -2.9580    7.3150 c3        1 9DP     -0.083767
     24 C14         6.4740   -4.9900    5.9750 c3        1 9DP     -0.083767
     25 C15         8.5720   -1.1820    1.2200 ca        1 9DP     -0.174000
     26 C16         8.5060   -0.7750    2.5670 ca        1 9DP     -0.022200
     27 C17         9.2930    0.3000    3.0150 ca        1 9DP     -0.116000
     28 C18         9.3950   -0.4900    0.3380 ca        1 9DP     -0.134000
     29 C19        10.1630    0.5940    0.7700 ca        1 9DP     -0.061300
     30 C20        10.1180    0.9890    2.1190 ca        1 9DP     -0.026300
     31 C21        11.0180    1.3250   -0.2290 c3        1 9DP      0.212100
     32 C22        11.4090    3.0140    1.4430 c3        1 9DP      0.037500
     33 C23        10.9440    2.1310    2.6010 c3        1 9DP     -0.030100
     34 C24        12.3970    4.1270    1.9370 c         1 9DP      0.929600
     35 HN1         4.2900    0.3800    0.5110 hn        1 9DP      0.326500
     36 HN2         6.1330   -0.6690    1.4470 hn        1 9DP      0.320500
     37 H3         -1.4200    1.4390    0.6990 ha        1 9DP      0.148000
     38 H4         -0.5300    0.8600    2.9560 ha        1 9DP      0.142000
     39 H5          1.8430    0.2390    3.2630 ha        1 9DP      0.180000
     40 HN5        12.4260    2.8020   -0.2970 hn        1 9DP      0.389800
     41 H9          4.7720   -2.8840    4.3930 ha        1 9DP      0.182000
     42 H12         9.0490   -4.1080    6.2730 hc        1 9DP      0.036811
     43 H12A        8.6650   -2.6320    7.2540 hc        1 9DP      0.036811
     44 H12B        8.2580   -4.2790    7.8970 hc        1 9DP      0.036811
     45 H13         5.8910   -3.5860    8.2360 hc        1 9DP      0.036811
     46 H13A        6.2860   -1.9330    7.6010 hc        1 9DP      0.036811
     47 H13B        4.9340   -2.8880    6.8590 hc        1 9DP      0.036811
     48 H14         5.4670   -4.9620    5.4940 hc        1 9DP      0.036811
     49 H14A        7.1940   -5.4660    5.2680 hc        1 9DP      0.036811
     50 H14B        6.4150   -5.6120    6.9000 hc        1 9DP      0.036811
     51 H15         8.0010   -2.0530    0.8650 ha        1 9DP      0.133000
     52 H17         9.2740    0.6080    4.0720 ha        1 9DP      0.155000
     53 H18         9.4480   -0.8090   -0.7140 ha        1 9DP      0.127000
     54 H21        11.5860    0.5690   -0.8460 h1        1 9DP      0.020700
     55 H21A       10.3100    1.8620   -0.9340 h1        1 9DP      0.020700
     56 H22        10.5000    3.5760    1.0610 h1        1 9DP     -0.000300
     57 H23        11.8430    1.7410    3.1510 hc        1 9DP      0.076200
     58 H23A       10.3700    2.7660    3.3240 hc        1 9DP      0.076200
@<TRIPOS>BOND
     1    1    4 1   
     2    1    5 ar  
     3    1    9 ar  
     4    2   16 1   
     5    2   17 1   
     6    2   35 1   
     7    3   17 2   
     8    5    8 1   
     9    5   16 ar  
    10    6   17 1   
    11    6   18 1   
    12    6   36 1   
    13    7   34 1   
    14    9   12 ar  
    15    9   37 1   
    16   10   13 1   
    17   10   20 2   
    18   11   34 1   
    19   12   14 ar  
    20   12   38 1   
    21   13   18 1   
    22   13   26 1   
    23   14   16 ar  
    24   14   39 1   
    25   15   31 1   
    26   15   32 1   
    27   15   40 1   
    28   18   19 2   
    29   19   20 1   
    30   19   41 1   
    31   20   21 1   
    32   21   22 1   
    33   21   23 1   
    34   21   24 1   
    35   22   42 1   
    36   22   43 1   
    37   22   44 1   
    38   23   45 1   
    39   23   46 1   
    40   23   47 1   
    41   24   48 1   
    42   24   49 1   
    43   24   50 1   
    44   25   26 ar  
    45   25   28 ar  
    46   25   51 1   
    47   26   27 ar  
    48   27   30 ar  
    49   27   52 1   
    50   28   29 ar  
    51   28   53 1   
    52   29   30 ar  
    53   29   31 1   
    54   30   33 1   
    55   31   54 1   
    56   31   55 1   
    57   32   33 1   
    58   32   34 1   
    59   32   56 1   
    60   33   57 1   
    61   33   58 1   
@<TRIPOS>SUBSTRUCTURE
     1 9DP         1 TEMP              0 ****  ****    0 ROOT
