@<TRIPOS>MOLECULE
9DP
   58    61     1     0     0
SMALL
bcc


@<TRIPOS>ATOM
      1 C1         -5.8460   -2.3150   -0.9670 ca        1 9DP      0.042400
      2 N1         -2.5860   -0.6270   -0.3520 n         1 9DP     -0.470100
      3 O1         -2.6970    1.6980   -0.3680 o         1 9DP     -0.601100
      4 CL1        -6.6600   -3.7530   -0.5700 cl        1 9DP     -0.078400
      5 C2         -4.5670   -2.0530   -0.4590 ca        1 9DP     -0.039600
      6 N2         -0.8670    0.7110    0.6830 n         1 9DP     -0.415100
      7 O2          6.9470   -1.9560   -2.6770 o         1 9DP     -0.831800
      8 CL2        -3.8200   -3.1840    0.5710 cl        1 9DP     -0.077400
      9 C3         -6.4800   -1.3970   -1.8070 ca        1 9DP     -0.147000
     10 N3          1.8170    3.1340    0.5970 nc        1 9DP     -0.476800
     11 O3          7.0830   -4.0180   -1.8040 o         1 9DP     -0.831800
     12 C4         -5.8260   -0.2150   -2.1430 ca        1 9DP     -0.100000
     13 N4          1.3390    1.8820    0.5920 na        1 9DP      0.148300
     14 C5         -4.5520    0.0620   -1.6620 ca        1 9DP     -0.133000
     15 N5          5.6200   -2.9720    0.4280 n3        1 9DP     -0.805200
     16 C6         -3.8940   -0.8500   -0.8080 ca        1 9DP      0.096600
     17 C7         -2.0800    0.6590   -0.0500 c         1 9DP      0.770100
     18 C8         -0.0900    1.8770    0.6300 cc        1 9DP     -0.001700
     19 C9         -0.4890    3.2280    0.5990 cd        1 9DP     -0.275300
     20 C10         0.7480    3.9800    0.5750 cd        1 9DP      0.306600
     21 C11         0.8220    5.4740    0.5270 c3        1 9DP     -0.071300
     22 C12         2.2610    5.9730    0.5350 c3        1 9DP     -0.083767
     23 C13         0.1350    5.9580   -0.7460 c3        1 9DP     -0.083767
     24 C14         0.0940    6.0400    1.7430 c3        1 9DP     -0.083767
     25 C15         1.9100   -0.1400    1.8690 ca        1 9DP     -0.174000
     26 C16         2.1420    0.7130    0.7720 ca        1 9DP     -0.022200
     27 C17         3.1540    0.4060   -0.1540 ca        1 9DP     -0.116000
     28 C18         2.6670   -1.2990    2.0030 ca        1 9DP     -0.134000
     29 C19         3.6580   -1.6240    1.0730 ca        1 9DP     -0.061300
     30 C20         3.9090   -0.7620   -0.0100 ca        1 9DP     -0.026300
     31 C21         4.4310   -2.9020    1.2500 c3        1 9DP      0.212100
     32 C22         5.3650   -2.5610   -0.9450 c3        1 9DP      0.037500
     33 C23         4.9740   -1.0830   -1.0000 c3        1 9DP     -0.030100
     34 C24         6.5850   -2.8620   -1.8820 c         1 9DP      0.929600
     35 HN1        -2.1320   -1.4200    0.0510 hn        1 9DP      0.326500
     36 HN2        -0.3420   -0.1380    0.7780 hn        1 9DP      0.320500
     37 H3         -7.4860   -1.6090   -2.1980 ha        1 9DP      0.148000
     38 H4         -6.3220    0.5110   -2.8050 ha        1 9DP      0.142000
     39 H5         -4.0580    1.0080   -1.9440 ha        1 9DP      0.180000
     40 HN5         6.0200   -3.8930    0.4340 hn        1 9DP      0.389800
     41 H9         -1.5040    3.6090    0.5700 ha        1 9DP      0.182000
     42 H12         2.8150    5.5840   -0.3530 hc        1 9DP      0.036811
     43 H12A        2.2720    7.0890    0.5020 hc        1 9DP      0.036811
     44 H12B        2.7880    5.6370    1.4600 hc        1 9DP      0.036811
     45 H13        -0.9220    5.5980   -0.7760 hc        1 9DP      0.036811
     46 H13A        0.1380    7.0740   -0.7780 hc        1 9DP      0.036811
     47 H13B        0.6700    5.5710   -1.6450 hc        1 9DP      0.036811
     48 H14         0.5990    5.7120    2.6830 hc        1 9DP      0.036811
     49 H14A        0.0990    7.1550    1.7020 hc        1 9DP      0.036811
     50 H14B       -0.9640    5.6840    1.7610 hc        1 9DP      0.036811
     51 H15         1.1570    0.1110    2.6300 ha        1 9DP      0.133000
     52 H17         3.3660    1.0810   -0.9980 ha        1 9DP      0.155000
     53 H18         2.4870   -1.9660    2.8600 ha        1 9DP      0.127000
     54 H21         3.7050   -3.7520    1.0570 h1        1 9DP      0.020700
     55 H21A        4.7590   -2.9850    2.3260 h1        1 9DP      0.020700
     56 H22         4.5030   -3.1540   -1.3840 h1        1 9DP     -0.000300
     57 H23         4.6400   -0.8430   -2.0430 hc        1 9DP      0.076200
     58 H23A        5.8830   -0.4540   -0.7950 hc        1 9DP      0.076200
@<TRIPOS>BOND
     1    1    4 1   
     2    1    5 ar  
     3    1    9 ar  
     4    2   16 1   
     5    2   17 1   
     6    2   35 1   
     7    3   17 2   
     8    5    8 1   
     9    5   16 ar  
    10    6   17 1   
    11    6   18 1   
    12    6   36 1   
    13    7   34 1   
    14    9   12 ar  
    15    9   37 1   
    16   10   13 1   
    17   10   20 2   
    18   11   34 1   
    19   12   14 ar  
    20   12   38 1   
    21   13   18 1   
    22   13   26 1   
    23   14   16 ar  
    24   14   39 1   
    25   15   31 1   
    26   15   32 1   
    27   15   40 1   
    28   18   19 2   
    29   19   20 1   
    30   19   41 1   
    31   20   21 1   
    32   21   22 1   
    33   21   23 1   
    34   21   24 1   
    35   22   42 1   
    36   22   43 1   
    37   22   44 1   
    38   23   45 1   
    39   23   46 1   
    40   23   47 1   
    41   24   48 1   
    42   24   49 1   
    43   24   50 1   
    44   25   26 ar  
    45   25   28 ar  
    46   25   51 1   
    47   26   27 ar  
    48   27   30 ar  
    49   27   52 1   
    50   28   29 ar  
    51   28   53 1   
    52   29   30 ar  
    53   29   31 1   
    54   30   33 1   
    55   31   54 1   
    56   31   55 1   
    57   32   33 1   
    58   32   34 1   
    59   32   56 1   
    60   33   57 1   
    61   33   58 1   
@<TRIPOS>SUBSTRUCTURE
     1 9DP         1 TEMP              0 ****  ****    0 ROOT
