@<TRIPOS>MOLECULE
9DP
   58    53     1     0     0
SMALL
bcc


@<TRIPOS>ATOM
      1 C1         -6.1820   -2.9850   -1.1890 c1        1 9DP     -0.041000
      2 N1         -3.0980   -1.5460   -0.8970 n         1 9DP     -0.319000
      3 O1         -1.9140   -1.7160    1.0490 o         1 9DP     -0.421000
      4 CL1        -6.8100   -4.0980   -2.3770 cl        1 9DP     -0.030000
      5 C2         -4.8370   -2.6520   -1.1950 c2        1 9DP     -0.106000
      6 N2         -0.6480   -1.3570   -0.8170 n         1 9DP     -0.301000
      7 O2          0.0510    4.5150   -3.6830 o         1 9DP     -0.580500
      8 CL2        -4.4810   -3.3960   -2.7310 cl        1 9DP      0.037000
      9 C3         -7.0250   -2.4500   -0.2270 c1        1 9DP     -0.167000
     10 N3          2.4600   -0.8170    0.8770 n2        1 9DP     -0.083000
     11 O3         -0.4210    6.5400   -3.0260 o         1 9DP     -0.580500
     12 C4         -6.5230   -1.5810    0.7280 c1        1 9DP     -0.127250
     13 N4          1.3290   -0.3460    0.2590 n3        1 9DP     -0.114000
     14 C5         -5.1770   -1.2480    0.7220 c1        1 9DP     -0.127250
     15 N5          1.1070    5.9980   -0.6350 n3        1 9DP     -0.281000
     16 C6         -4.3350   -1.7830   -0.2390 c1        1 9DP      0.136000
     17 C7         -1.8900   -1.5290   -0.1510 c2        1 9DP      0.417000
     18 C8          0.5660   -1.4060   -0.0810 c2        1 9DP      0.095000
     19 C9          1.2140   -2.5380    0.3220 c1        1 9DP     -0.232000
     20 C10         2.3860   -2.1630    0.9140 c1        1 9DP     -0.117000
     21 C11         3.4150   -3.0960    1.5200 c2        1 9DP      0.027000
     22 C12         4.6330   -3.1540    0.6230 c3        1 9DP     -0.201333
     23 C13         2.8230   -4.4810    1.6570 c3        1 9DP     -0.201333
     24 C14         3.8180   -2.5830    2.8850 c3        1 9DP     -0.201333
     25 C15         0.1410    1.5250    1.1450 c1        1 9DP     -0.127250
     26 C16         1.0850    0.9730    0.2470 c1        1 9DP      0.052000
     27 C17         1.7320    1.7960   -0.6840 c1        1 9DP     -0.127000
     28 C18        -0.1480    2.8950    1.1050 c1        1 9DP     -0.127250
     29 C19         0.4930    3.7140    0.1830 c1        1 9DP     -0.105000
     30 C20         1.4480    3.1560   -0.7260 c1        1 9DP     -0.040000
     31 C21         0.2650    5.2620    0.1510 c3        1 9DP     -0.036000
     32 C22         1.5050    5.4530   -1.9110 c3        1 9DP     -0.094000
     33 C23         2.0690    4.0930   -1.8010 c3        1 9DP     -0.120000
     34 C24         0.2860    5.5020   -2.9380 c2        1 9DP      0.303000
     35 HN1        -3.0800   -1.4100   -1.7980 hn        1 9DP      0.324000
     36 HN2        -0.6280   -1.2380   -1.7210 hn        1 9DP      0.290000
     37 H3         -7.9730   -2.6850   -0.2230 ha        1 9DP      0.134000
     38 H4         -7.1160   -1.2050    1.4060 ha        1 9DP      0.140750
     39 H5         -4.8230   -0.6360    1.3950 ha        1 9DP      0.140750
     40 HN5         0.7570    6.8350   -0.7570 hn        1 9DP      0.177000
     41 H9          0.8960   -3.4530    0.2070 DU        1 9DP      0.183000
     42 H12         5.0740   -2.2790    0.6130 hc        1 9DP      0.073778
     43 H12A        4.3570   -3.3910   -0.2870 hc        1 9DP      0.073778
     44 H12B        5.2570   -3.8310    0.9620 hc        1 9DP      0.073778
     45 H13         2.4810   -4.7770    0.7870 hc        1 9DP      0.073778
     46 H13A        2.0890   -4.4600    2.3060 hc        1 9DP      0.073778
     47 H13B        3.5140   -5.1030    1.9650 hc        1 9DP      0.073778
     48 H14         4.5170   -3.1610    3.2580 hc        1 9DP      0.073778
     49 H14A        4.1610   -1.6680    2.8030 hc        1 9DP      0.073778
     50 H14B        3.0390   -2.5870    3.4790 hc        1 9DP      0.073778
     51 H15        -0.3030    0.9520    1.7990 ha        1 9DP      0.140750
     52 H17         2.4020    1.4190   -1.2860 ha        1 9DP      0.154000
     53 H18        -0.7890    3.2770    1.7340 ha        1 9DP      0.140750
     54 H21         0.3420    5.5960    1.0690 h1        1 9DP      0.077500
     55 H21A       -0.6510    5.4250   -0.1550 h1        1 9DP      0.077500
     56 H22         2.1440    6.0430   -2.3540 h1        1 9DP      0.100000
     57 H23         1.9730    3.6570   -2.6710 hc        1 9DP      0.097500
     58 H23A        3.0240    4.1790   -1.6090 hc        1 9DP      0.097500
@<TRIPOS>BOND
     1    1    5 1   
     2    1    9 1   
     3    2   16 1   
     4    2   17 1   
     5    2   35 1   
     6    3   17 1   
     7    5    8 1   
     8    5   16 1   
     9    6   17 1   
    10    6   18 1   
    11    6   36 1   
    12    7   34 1   
    13    9   37 1   
    14   10   13 1   
    15   10   20 1   
    16   11   34 1   
    17   12   14 1   
    18   12   38 1   
    19   13   18 1   
    20   13   26 1   
    21   14   39 1   
    22   15   31 1   
    23   15   32 1   
    24   15   40 1   
    25   18   19 1   
    26   19   20 1   
    27   21   22 1   
    28   21   23 1   
    29   21   24 1   
    30   22   42 1   
    31   22   43 1   
    32   22   44 1   
    33   23   45 1   
    34   23   46 1   
    35   23   47 1   
    36   24   48 1   
    37   24   49 1   
    38   24   50 1   
    39   25   28 1   
    40   25   51 1   
    41   26   27 1   
    42   27   52 1   
    43   28   53 1   
    44   29   30 1   
    45   29   31 1   
    46   30   33 1   
    47   31   54 1   
    48   31   55 1   
    49   32   33 1   
    50   32   34 1   
    51   32   56 1   
    52   33   57 1   
    53   33   58 1   
@<TRIPOS>SUBSTRUCTURE
     1 9DP         1 TEMP              0 ****  ****    0 ROOT
