@<TRIPOS>MOLECULE
9DR
   48    50     1     0     0
SMALL
bcc


@<TRIPOS>ATOM
      1 N1         -4.7400   -0.0520   -2.0980 nb        1 9DR     -0.833000
      2 C2         -5.8220    0.2910   -1.3100 ca        1 9DR      0.918900
      3 N3         -5.7970    0.4630    0.0710 nb        1 9DR     -0.792000
      4 C4         -4.6040    0.3180    0.6780 ca        1 9DR      0.539600
      5 C5         -3.4170    0.0030   -0.0300 ca        1 9DR     -0.341600
      6 C6         -3.5330   -0.1690   -1.4600 ca        1 9DR      0.745200
      7 CAA        -5.2890   -0.5930    2.8990 c3        1 9DR     -0.087100
      8 CAB         1.0810    3.7250   -1.1050 c3        1 9DR      0.111700
      9 NAC        -7.0320    0.5300   -1.9610 nh        1 9DR     -0.934500
     10 NAD        -2.4090   -0.4210   -2.2180 nh        1 9DR     -0.955500
     11 CAE        -1.1090   -0.2720    1.1290 c1        1 9DR     -0.160100
     12 CAF        -2.1790   -0.1440    0.6010 cg        1 9DR     -0.081000
     13 CAG         6.8500   -1.6680   -0.8790 ca        1 9DR      0.392200
     14 CAH         6.5640   -2.2000    1.3380 ca        1 9DR      0.392200
     15 CAI         5.6490   -0.9390   -0.9150 ca        1 9DR     -0.236300
     16 CAJ         5.3490   -1.4980    1.4070 ca        1 9DR     -0.236300
     17 CAK         1.1930    1.3080    0.3080 ca        1 9DR     -0.188000
     18 CAL         2.5150   -0.6090    0.9750 ca        1 9DR     -0.149000
     19 CAM         3.5140    1.1020   -0.4200 ca        1 9DR     -0.142000
     20 CAN        -4.5510    0.5050    2.1730 c3        1 9DR     -0.138700
     21 CAO         0.1550   -0.4420    1.7790 c3        1 9DR      0.050000
     22 NAP         7.3120   -2.2930    0.2220 nb        1 9DR     -0.663000
     23 OAS         2.2980    2.9860   -1.1090 os        1 9DR     -0.327900
     24 CAU         1.3090    0.0940    0.9940 ca        1 9DR     -0.046300
     25 CAW         2.2950    1.8030   -0.3950 ca        1 9DR      0.126100
     26 CAX         4.8780   -0.8520    0.2540 cp        1 9DR      0.002000
     27 CAY         3.6190   -0.1080    0.2700 cp        1 9DR     -0.017000
     28 HAA        -4.8670   -1.5930    2.6400 hc        1 9DR      0.040700
     29 HAAA       -5.1930   -0.4440    4.0020 hc        1 9DR      0.040700
     30 HAAB       -6.3740   -0.5870    2.6340 hc        1 9DR      0.040700
     31 HAB         1.3200    4.6210   -1.7330 h1        1 9DR      0.047367
     32 HABA        0.2560    3.1290   -1.5660 h1        1 9DR      0.047367
     33 HABB        0.8100    4.0330   -0.0660 h1        1 9DR      0.047367
     34 HNAC       -7.1230    0.2050   -2.8940 hn        1 9DR      0.432800
     35 HNAA       -7.8530    0.5480   -1.4040 hn        1 9DR      0.432800
     36 HNAD       -1.5870   -0.6970   -1.7390 hn        1 9DR      0.438300
     37 HNAB       -2.5060   -0.6740   -3.1710 hn        1 9DR      0.438300
     38 HAG         7.4800   -1.7590   -1.7820 h4        1 9DR      0.022600
     39 HAH         6.9650   -2.7180    2.2280 h4        1 9DR      0.022600
     40 HAI         5.3200   -0.4540   -1.8430 ha        1 9DR      0.147000
     41 HAJ         4.7860   -1.4520    2.3480 ha        1 9DR      0.147000
     42 HAK         0.2360    1.8500    0.3280 ha        1 9DR      0.151000
     43 HAL         2.6020   -1.5680    1.5090 ha        1 9DR      0.138000
     44 HAM         4.3670    1.5180   -0.9750 ha        1 9DR      0.154000
     45 HAN        -3.4790    0.5250    2.5050 hc        1 9DR      0.062700
     46 HANA       -5.0020    1.5000    2.4340 hc        1 9DR      0.062700
     47 HAO         0.1300    0.0860    2.7770 hc        1 9DR      0.069200
     48 HAOA        0.3160   -1.5390    1.9900 hc        1 9DR      0.069200
@<TRIPOS>BOND
     1    1    2 ar  
     2    1    6 ar  
     3    2    3 ar  
     4    2    9 1   
     5    3    4 ar  
     6    4    5 ar  
     7    4   20 1   
     8    5    6 ar  
     9    5   12 1   
    10    6   10 1   
    11    7   20 1   
    12    7   28 1   
    13    7   29 1   
    14    7   30 1   
    15    8   23 1   
    16    8   31 1   
    17    8   32 1   
    18    8   33 1   
    19    9   34 1   
    20    9   35 1   
    21   10   36 1   
    22   10   37 1   
    23   11   12 3   
    24   11   21 1   
    25   13   15 ar  
    26   13   22 ar  
    27   13   38 1   
    28   14   16 ar  
    29   14   22 ar  
    30   14   39 1   
    31   15   26 ar  
    32   15   40 1   
    33   16   26 ar  
    34   16   41 1   
    35   17   24 ar  
    36   17   25 ar  
    37   17   42 1   
    38   18   24 ar  
    39   18   27 ar  
    40   18   43 1   
    41   19   25 ar  
    42   19   27 ar  
    43   19   44 1   
    44   20   45 1   
    45   20   46 1   
    46   21   24 1   
    47   21   47 1   
    48   21   48 1   
    49   23   25 1   
    50   26   27 1   
@<TRIPOS>SUBSTRUCTURE
     1 9DR         1 TEMP              0 ****  ****    0 ROOT
