@<TRIPOS>MOLECULE
9DR
   48    50     1     0     0
SMALL
bcc


@<TRIPOS>ATOM
      1 N1          0.3260    1.1480   -0.0180 nb        1 9DR     -0.831000
      2 C2          1.6090    0.6400    0.0410 ca        1 9DR      0.914900
      3 N3          2.1780    0.0010    1.1380 nb        1 9DR     -0.792000
      4 C4          1.4230   -0.0810    2.2510 ca        1 9DR      0.538600
      5 C5          0.1020    0.4280    2.3190 ca        1 9DR     -0.337600
      6 C6         -0.4290    1.0360    1.1190 ca        1 9DR      0.745200
      7 CAA         3.1530    0.0540    4.0430 c3        1 9DR     -0.088100
      8 CAB        -5.6250    5.1210    6.8640 c3        1 9DR      0.112700
      9 NAC         2.4230    0.8350   -1.0770 nv        1 9DR     -0.931500
     10 NAD        -1.7370    1.4720    1.0880 nv        1 9DR     -0.954500
     11 CAE        -1.3530    0.2990    4.4660 c1        1 9DR     -0.160100
     12 CAF        -0.6750    0.3550    3.4780 cg        1 9DR     -0.076000
     13 CAG        -8.3660   -0.7720    3.4460 ca        1 9DR      0.393700
     14 CAH        -8.7100    1.3550    2.6460 ca        1 9DR      0.393700
     15 CAI        -7.2260   -0.3750    4.1670 ca        1 9DR     -0.237300
     16 CAJ        -7.5880    1.8530    3.3300 ca        1 9DR     -0.237300
     17 CAK        -3.3810    2.3190    6.2420 ca        1 9DR     -0.141000
     18 CAL        -4.4970    0.6440    4.8960 ca        1 9DR     -0.143000
     19 CAM        -5.6770    2.6770    5.4900 ca        1 9DR     -0.190000
     20 CAN         2.0230   -0.7560    3.4570 c3        1 9DR     -0.138700
     21 CAO        -2.1450    0.2230    5.6570 c3        1 9DR      0.053000
     22 NAP        -9.1040    0.0680    2.6950 nb        1 9DR     -0.662000
     23 OAS        -4.4560    4.3100    6.8640 os        1 9DR     -0.325900
     24 CAU        -3.3650    1.0860    5.5930 ca        1 9DR     -0.050300
     25 CAW        -4.5450    3.1080    6.1870 ca        1 9DR      0.124100
     26 CAX        -6.8270    0.9690    4.1090 cp        1 9DR      0.001000
     27 CAY        -5.6490    1.4340    4.8410 cp        1 9DR     -0.015000
     28 HAA         2.8010    1.0740    4.3330 hc        1 9DR      0.041367
     29 HAAA        3.5480   -0.4560    4.9560 hc        1 9DR      0.041367
     30 HAAB        3.9880    0.1640    3.3090 hc        1 9DR      0.041367
     31 HAB        -5.8880    5.4310    5.8230 h1        1 9DR      0.046033
     32 HABA       -6.4800    4.5830    7.3410 h1        1 9DR      0.046033
     33 HABB       -5.3250    6.0090    7.4760 h1        1 9DR      0.046033
     34 HNAC        1.9710    1.0620   -1.9320 hn        1 9DR      0.429800
     35 HNAA        3.2430    0.2790   -1.1380 hn        1 9DR      0.429800
     36 HNAD       -2.2100    1.5590    1.9550 hn        1 9DR      0.437800
     37 HNAB       -2.0550    2.0140    0.3230 hn        1 9DR      0.437800
     38 HAG        -8.7090   -1.8220    3.4710 h4        1 9DR      0.023600
     39 HAH        -9.3300    2.0230    2.0210 h4        1 9DR      0.023600
     40 HAI        -6.6650   -1.1040    4.7670 ha        1 9DR      0.146000
     41 HAJ        -7.3110    2.9120    3.2470 ha        1 9DR      0.146000
     42 HAK        -2.5040    2.6860    6.7940 ha        1 9DR      0.155000
     43 HAL        -4.4740   -0.3300    4.3830 ha        1 9DR      0.143000
     44 HAM        -6.5880    3.2900    5.4510 ha        1 9DR      0.143000
     45 HAN         1.2250   -0.9090    4.2310 hc        1 9DR      0.062200
     46 HANA        2.4020   -1.7720    3.1610 hc        1 9DR      0.062200
     47 HAO        -1.5120    0.5250    6.5400 hc        1 9DR      0.067200
     48 HAOA       -2.4600   -0.8480    5.8250 hc        1 9DR      0.067200
@<TRIPOS>BOND
     1    1    2 ar  
     2    1    6 ar  
     3    2    3 ar  
     4    2    9 1   
     5    3    4 ar  
     6    4    5 ar  
     7    4   20 1   
     8    5    6 ar  
     9    5   12 1   
    10    6   10 1   
    11    7   20 1   
    12    7   28 1   
    13    7   29 1   
    14    7   30 1   
    15    8   23 1   
    16    8   31 1   
    17    8   32 1   
    18    8   33 1   
    19    9   34 1   
    20    9   35 1   
    21   10   36 1   
    22   10   37 1   
    23   11   12 3   
    24   11   21 1   
    25   13   15 ar  
    26   13   22 ar  
    27   13   38 1   
    28   14   16 ar  
    29   14   22 ar  
    30   14   39 1   
    31   15   26 ar  
    32   15   40 1   
    33   16   26 ar  
    34   16   41 1   
    35   17   24 ar  
    36   17   25 ar  
    37   17   42 1   
    38   18   24 ar  
    39   18   27 ar  
    40   18   43 1   
    41   19   25 ar  
    42   19   27 ar  
    43   19   44 1   
    44   20   45 1   
    45   20   46 1   
    46   21   24 1   
    47   21   47 1   
    48   21   48 1   
    49   23   25 1   
    50   26   27 1   
@<TRIPOS>SUBSTRUCTURE
     1 9DR         1 TEMP              0 ****  ****    0 ROOT
