@<TRIPOS>MOLECULE
9DR
   50    52     1     0     0
SMALL
bcc


@<TRIPOS>ATOM
      1 N1         -0.1370   -0.3530    0.1600 nb        1 9DR     -0.659000
      2 C2          1.1290    0.1330    0.1310 ca        1 9DR      0.727900
      3 N3          1.8730    0.6030    1.1990 nb        1 9DR     -0.633000
      4 C4          1.2870    0.5810    2.4050 ca        1 9DR      0.533600
      5 C5         -0.0700    0.0850    2.5750 ca        1 9DR     -0.013600
      6 C6         -0.7230   -0.3680    1.4010 ca        1 9DR      0.465200
      7 CAA         3.4090    1.5660    3.4020 c3        1 9DR     -0.102100
      8 CAB        -4.3410   -4.5030    6.8840 c3        1 9DR      0.108700
      9 NAC         1.8120    0.1730   -1.1950 n4        1 9DR     -0.813300
     10 NAD        -2.1010   -0.8890    1.4790 n4        1 9DR     -0.815300
     11 CAE        -1.2110    0.0470    4.9030 c1        1 9DR      0.168900
     12 CAF        -0.6940    0.0570    3.8110 cg        1 9DR     -0.349000
     13 CAG        -9.0010    1.6070    5.4770 ca        1 9DR      0.408700
     14 CAH        -7.5890    2.7870    4.0970 ca        1 9DR      0.408700
     15 CAI        -7.9920    0.6800    5.8060 ca        1 9DR     -0.238300
     16 CAJ        -6.5160    1.9190    4.3620 ca        1 9DR     -0.238300
     17 CAK        -3.5490   -1.8710    6.1850 ca        1 9DR     -0.208000
     18 CAL        -4.3220    0.3760    5.6860 ca        1 9DR     -0.155000
     19 CAM        -5.9100   -1.4520    5.7160 ca        1 9DR     -0.124000
     20 CAN         2.0060    1.0690    3.6280 c3        1 9DR     -0.147700
     21 CAO        -1.8960    0.0070    6.1610 c3        1 9DR     -0.013000
     22 NAP        -8.8140    2.6420    4.6370 nb        1 9DR     -0.633000
     23 OAS        -5.2280   -3.6570    6.1530 os        1 9DR     -0.315900
     24 CAU        -3.2910   -0.5080    5.9980 ca        1 9DR     -0.102300
     25 CAW        -4.8620   -2.3350    6.0430 ca        1 9DR      0.140100
     26 CAX        -6.7220    0.8390    5.2350 cp        1 9DR     -0.028000
     27 CAY        -5.6400   -0.0940    5.5440 cp        1 9DR      0.004000
     28 HAA         3.4250    2.4370    2.7020 hc        1 9DR      0.067700
     29 HAAA        3.8380    1.8990    4.3810 hc        1 9DR      0.067700
     30 HAAB        4.0650    0.7620    2.9910 hc        1 9DR      0.067700
     31 HAB        -4.9330   -5.4470    7.0080 h1        1 9DR      0.056367
     32 HABA       -3.4150   -4.6930    6.2890 h1        1 9DR      0.056367
     33 HABB       -4.0900   -4.0590    7.8770 h1        1 9DR      0.056367
     34 HNAC        1.1970   -0.1940   -1.9360 hn        1 9DR      0.497467
     35 HNAA        2.6720   -0.3970   -1.1460 hn        1 9DR      0.497467
     36 HNAD       -2.4220   -0.8370    2.4610 hn        1 9DR      0.491467
     37 HNAB       -2.1310   -1.8690    1.1630 hn        1 9DR      0.491467
     38 HAG       -10.0140    1.5150    5.9120 h4        1 9DR      0.038600
     39 HAH        -7.4650    3.6510    3.4180 h4        1 9DR      0.038600
     40 HAI        -8.2030   -0.1380    6.5080 ha        1 9DR      0.138000
     41 HAJ        -5.5390    2.0920    3.8960 ha        1 9DR      0.138000
     42 HAK        -2.7410   -2.5580    6.4720 ha        1 9DR      0.146000
     43 HAL        -4.1210    1.4540    5.5890 ha        1 9DR      0.145000
     44 HAM        -6.9340   -1.8490    5.6140 ha        1 9DR      0.178000
     45 HAN         1.3760    1.8910    4.0750 hc        1 9DR      0.102200
     46 HANA        2.0170    0.2160    4.3660 hc        1 9DR      0.102200
     47 HAO        -1.3150   -0.6450    6.8800 hc        1 9DR      0.126700
     48 HAOA       -1.9140    1.0470    6.6080 hc        1 9DR      0.126700
     49 HAC3        2.0680    1.1500   -1.4110 hn        1 9DR      0.497467
     50 HAD3       -2.7300   -0.3270    0.8860 hn        1 9DR      0.491467
@<TRIPOS>BOND
     1    1    2 ar  
     2    1    6 ar  
     3    2    3 ar  
     4    2    9 1   
     5    3    4 ar  
     6    4    5 ar  
     7    4   20 1   
     8    5    6 ar  
     9    5   12 1   
    10    6   10 1   
    11    7   20 1   
    12    7   28 1   
    13    7   29 1   
    14    7   30 1   
    15    8   23 1   
    16    8   31 1   
    17    8   32 1   
    18    8   33 1   
    19    9   34 1   
    20    9   35 1   
    21    9   49 1   
    22   10   36 1   
    23   10   37 1   
    24   10   50 1   
    25   11   12 3   
    26   11   21 1   
    27   13   15 ar  
    28   13   22 ar  
    29   13   38 1   
    30   14   16 ar  
    31   14   22 ar  
    32   14   39 1   
    33   15   26 ar  
    34   15   40 1   
    35   16   26 ar  
    36   16   41 1   
    37   17   24 ar  
    38   17   25 ar  
    39   17   42 1   
    40   18   24 ar  
    41   18   27 ar  
    42   18   43 1   
    43   19   25 ar  
    44   19   27 ar  
    45   19   44 1   
    46   20   45 1   
    47   20   46 1   
    48   21   24 1   
    49   21   47 1   
    50   21   48 1   
    51   23   25 1   
    52   26   27 1   
@<TRIPOS>SUBSTRUCTURE
     1 9DR         1 TEMP              0 ****  ****    0 ROOT
