@<TRIPOS>MOLECULE
9DR
   48    40     1     0     0
SMALL
bcc


@<TRIPOS>ATOM
      1 N1          3.2010   -1.6940    4.5000 n1        1 9DR     -0.307000
      2 C2          3.4850   -0.4660    5.0260 c1        1 9DR      0.200000
      3 N3          3.2630    0.6570    4.2910 n1        1 9DR     -0.263000
      4 C4          2.7630    0.5590    3.0480 c1        1 9DR      0.118000
      5 C5          2.4780   -0.6660    2.5210 c1        1 9DR     -0.217000
      6 C6          2.7030   -1.7950    3.2620 c2        1 9DR      0.230000
      7 CAA         2.5670    3.0210    3.1060 c3        1 9DR     -0.202000
      8 CAB        -3.4780   -3.3100   -0.8840 c3        1 9DR     -0.077000
      9 NAC         4.0700   -0.3650    6.3130 n3        1 9DR     -0.330000
     10 NAD         3.0690   -3.1560    3.1270 n3        1 9DR     -0.356000
     11 CAE         1.7560   -0.8850   -0.1020 c1        1 9DR     -0.136500
     12 CAF         2.0740   -0.7880    1.0550 c1        1 9DR     -0.136500
     13 CAG        -4.0440    3.4830   -3.9120 c1        1 9DR     -0.073000
     14 CAH        -3.9890    1.6670   -5.4210 c1        1 9DR     -0.121500
     15 CAI        -3.1990    2.7960   -3.0530 c1        1 9DR     -0.157000
     16 CAJ        -3.1440    0.9780   -4.5630 c1        1 9DR     -0.121500
     17 CAK        -1.0420   -1.7710   -1.6820 c1        1 9DR     -0.188000
     18 CAL        -0.5540    0.5470   -2.0840 c1        1 9DR     -0.148000
     19 CAM        -2.7920   -0.2790   -2.3820 c1        1 9DR     -0.157000
     20 CAN         2.5850    1.8020    2.2070 c3        1 9DR     -0.122000
     21 CAO         1.3560   -1.0100   -1.5690 c2        1 9DR     -0.008000
     22 NAP        -4.4310    2.9130   -5.0870 n1        1 9DR     -0.137000
     23 OAS        -3.2660   -2.6390   -2.1070 os        1 9DR     -0.210000
     24 CAU        -0.1320   -0.7220   -1.7170 c1        1 9DR     -0.039000
     25 CAW        -2.3730   -1.5490   -2.0150 c1        1 9DR      0.080000
     26 CAX        -2.7550    1.5480   -3.3860 c1        1 9DR     -0.008000
     27 CAY        -1.8850    0.7690   -2.4170 c1        1 9DR     -0.008000
     28 HAA         3.4390    3.1130    3.5500 hc        1 9DR      0.079667
     29 HAAA        2.3880    3.8210    2.5680 hc        1 9DR      0.079667
     30 HAAB        1.8640    2.9180    3.7830 hc        1 9DR      0.079667
     31 HAB        -4.0780   -4.0750   -1.0300 h1        1 9DR      0.085667
     32 HABA       -2.6190   -3.6290   -0.5330 h1        1 9DR      0.085667
     33 HABB       -3.8860   -2.6920   -0.2390 h1        1 9DR      0.085667
     34 HNAC        4.3020   -1.1230    6.7710 hn        1 9DR      0.226500
     35 HNAA        4.2310    0.4550    6.6770 hn        1 9DR      0.226500
     36 HNAD        2.7890   -3.6350    2.4000 hn        1 9DR      0.235500
     37 HNAB        3.5760   -3.5590    3.7720 hn        1 9DR      0.235500
     38 HAG        -4.3620    4.3760   -3.6740 ha        1 9DR      0.159000
     39 HAH        -4.2680    1.2600   -6.2640 ha        1 9DR      0.154000
     40 HAI        -2.9220    3.2040   -2.2110 ha        1 9DR      0.150000
     41 HAJ        -2.8280    0.0870   -4.8020 ha        1 9DR      0.154000
     42 HAK        -0.7470   -2.6640   -1.4240 ha        1 9DR      0.149000
     43 HAL         0.0840    1.2860   -2.1090 ha        1 9DR      0.138000
     44 HAM        -3.7290   -0.1220   -2.6160 ha        1 9DR      0.150000
     45 HAN         3.3250    1.8760    1.5730 hc        1 9DR      0.101500
     46 HANA        1.7420    1.7450    1.7180 hc        1 9DR      0.101500
     47 HAO         1.8670   -0.3690   -2.1010 ha        1 9DR      0.108500
     48 HAOA        1.5450   -1.9180   -1.8820 ha        1 9DR      0.108500
@<TRIPOS>BOND
     1    1    6 1   
     2    2    3 1   
     3    2    9 1   
     4    4    5 1   
     5    4   20 1   
     6    5    6 1   
     7    6   10 1   
     8    7   20 1   
     9    7   28 1   
    10    7   29 1   
    11    7   30 1   
    12    8   23 1   
    13    8   31 1   
    14    8   32 1   
    15    8   33 1   
    16    9   34 1   
    17    9   35 1   
    18   10   36 1   
    19   10   37 1   
    20   11   12 1   
    21   13   22 1   
    22   13   38 1   
    23   14   16 1   
    24   14   39 1   
    25   15   26 1   
    26   15   40 1   
    27   16   41 1   
    28   17   25 1   
    29   17   42 1   
    30   18   24 1   
    31   18   43 1   
    32   19   27 1   
    33   19   44 1   
    34   20   45 1   
    35   20   46 1   
    36   21   24 1   
    37   21   47 1   
    38   21   48 1   
    39   23   25 1   
    40   26   27 1   
@<TRIPOS>SUBSTRUCTURE
     1 9DR         1 TEMP              0 ****  ****    0 ROOT
