@<TRIPOS>MOLECULE
9DR
   48    50     1     0     0
SMALL
bcc


@<TRIPOS>ATOM
      1 N1          0.3000   -1.0510    0.0790 nb        1 9DR     -0.832000
      2 C2          1.6290   -1.2040    0.4250 ca        1 9DR      0.916900
      3 N3          2.2160   -0.7540    1.6040 nb        1 9DR     -0.792000
      4 C4          1.4030   -0.1610    2.4980 ca        1 9DR      0.539600
      5 C5          0.0170    0.0240    2.2680 ca        1 9DR     -0.341600
      6 C6         -0.5030   -0.4320    0.9990 ca        1 9DR      0.748200
      7 CAA         2.9470    1.4820    3.5690 c3        1 9DR     -0.087100
      8 CAB        -5.1160   -2.5320    5.9260 c3        1 9DR      0.112700
      9 NAC         2.4380   -1.9200   -0.4590 nh        1 9DR     -0.932500
     10 NAD        -1.8240   -0.2060    0.6740 nh        1 9DR     -0.958500
     11 CAE        -1.5690    1.1310    4.0010 c1        1 9DR     -0.161100
     12 CAF        -0.8300    0.6220    3.2050 cg        1 9DR     -0.080000
     13 CAG        -9.3510    3.7310    3.6330 ca        1 9DR      0.392700
     14 CAH        -7.8190    4.4760    2.0910 ca        1 9DR      0.392700
     15 CAI        -8.4370    2.8140    4.1800 ca        1 9DR     -0.236300
     16 CAJ        -6.8310    3.5970    2.5660 ca        1 9DR     -0.236300
     17 CAK        -4.2400    0.0270    5.1920 ca        1 9DR     -0.189000
     18 CAL        -4.8130    2.2030    4.2930 ca        1 9DR     -0.147000
     19 CAM        -6.5430    0.5260    4.5540 ca        1 9DR     -0.141000
     20 CAN         2.0130    0.3170    3.7910 c3        1 9DR     -0.138700
     21 CAO        -2.4390    1.7510    4.9560 c3        1 9DR      0.051000
     22 NAP        -9.0620    4.5530    2.6070 nb        1 9DR     -0.662000
     23 OAS        -6.0660   -1.6050    5.4120 os        1 9DR     -0.326900
     24 CAU        -3.8630    1.3180    4.8030 ca        1 9DR     -0.046300
     25 CAW        -5.5760   -0.3600    5.0640 ca        1 9DR      0.125100
     26 CAX        -7.1450    2.7450    3.6360 cp        1 9DR      0.001000
     27 CAY        -6.1550    1.8100    4.1680 cp        1 9DR     -0.017000
     28 HAA         2.4130    2.3310    3.0790 hc        1 9DR      0.041033
     29 HAAA        3.3480    1.8350    4.5510 hc        1 9DR      0.041033
     30 HAAB        3.8070    1.1850    2.9220 hc        1 9DR      0.041033
     31 HAB        -5.7300   -3.4460    6.1280 h1        1 9DR      0.046367
     32 HABA       -4.3240   -2.7480    5.1690 h1        1 9DR      0.046367
     33 HABB       -4.6600   -2.1470    6.8710 h1        1 9DR      0.046367
     34 HNAC        2.1050   -2.0360   -1.3870 hn        1 9DR      0.430800
     35 HNAA        3.4200   -1.8340   -0.3410 hn        1 9DR      0.430800
     36 HNAD       -2.4340    0.0780    1.4020 hn        1 9DR      0.440300
     37 HNAB       -2.2140   -0.6370   -0.1280 hn        1 9DR      0.440300
     38 HAG       -10.3760    3.8130    4.0400 h4        1 9DR      0.022600
     39 HAH        -7.6060    5.1590    1.2490 h4        1 9DR      0.022600
     40 HAI        -8.7280    2.1710    5.0220 ha        1 9DR      0.147500
     41 HAJ        -5.8370    3.5750    2.1020 ha        1 9DR      0.147500
     42 HAK        -3.4810   -0.6610    5.5890 ha        1 9DR      0.148000
     43 HAL        -4.5140    3.2190    3.9930 ha        1 9DR      0.139000
     44 HAM        -7.5860    0.1920    4.4600 ha        1 9DR      0.154000
     45 HAN         1.1940    0.6180    4.4970 hc        1 9DR      0.062200
     46 HANA        2.5750   -0.5310    4.2690 hc        1 9DR      0.062200
     47 HAO        -2.0870    1.4940    5.9970 hc        1 9DR      0.069200
     48 HAOA       -2.3670    2.8720    4.8490 hc        1 9DR      0.069200
@<TRIPOS>BOND
     1    1    2 ar  
     2    1    6 ar  
     3    2    3 ar  
     4    2    9 1   
     5    3    4 ar  
     6    4    5 ar  
     7    4   20 1   
     8    5    6 ar  
     9    5   12 1   
    10    6   10 1   
    11    7   20 1   
    12    7   28 1   
    13    7   29 1   
    14    7   30 1   
    15    8   23 1   
    16    8   31 1   
    17    8   32 1   
    18    8   33 1   
    19    9   34 1   
    20    9   35 1   
    21   10   36 1   
    22   10   37 1   
    23   11   12 3   
    24   11   21 1   
    25   13   15 ar  
    26   13   22 ar  
    27   13   38 1   
    28   14   16 ar  
    29   14   22 ar  
    30   14   39 1   
    31   15   26 ar  
    32   15   40 1   
    33   16   26 ar  
    34   16   41 1   
    35   17   24 ar  
    36   17   25 ar  
    37   17   42 1   
    38   18   24 ar  
    39   18   27 ar  
    40   18   43 1   
    41   19   25 ar  
    42   19   27 ar  
    43   19   44 1   
    44   20   45 1   
    45   20   46 1   
    46   21   24 1   
    47   21   47 1   
    48   21   48 1   
    49   23   25 1   
    50   26   27 1   
@<TRIPOS>SUBSTRUCTURE
     1 9DR         1 TEMP              0 ****  ****    0 ROOT
