@<TRIPOS>MOLECULE
9DS
   39    40     1     0     0
SMALL
bcc


@<TRIPOS>ATOM
      1 N           2.7860   -0.3100    0.5130 n3        1 9DS     -0.794500
      2 CA          3.5320    0.2680   -0.5820 c3        1 9DS      0.082800
      3 C           3.8980    1.7760   -0.4780 c         1 9DS      0.906600
      4 O           4.9230    2.1320   -1.1150 o         1 9DS     -0.831800
      5 OXT         3.1670    2.5600    0.1970 o         1 9DS     -0.831800
      6 C6          3.2600    0.0170    1.8260 c3        1 9DS      0.201100
      7 S8          1.4400   -1.1500    0.2850 sy        1 9DS      1.476200
      8 O9          1.4450   -1.8020   -0.9790 o         1 9DS     -0.674300
      9 O10         1.2400   -2.0470    1.3770 o         1 9DS     -0.674300
     10 C11         0.1320   -0.0400    0.2900 ca        1 9DS     -0.346500
     11 C12         0.3290    1.3210    0.3790 ca        1 9DS     -0.010000
     12 C13        -0.7600    2.2230    0.3930 ca        1 9DS     -0.159000
     13 C14        -2.0460    1.7610    0.2930 ca        1 9DS     -0.075000
     14 C15        -2.3060    0.3670    0.1680 ca        1 9DS     -0.057000
     15 C16        -1.2100   -0.5360    0.1860 ca        1 9DS      0.063000
     16 C17        -1.4730   -1.9330    0.1030 ca        1 9DS     -0.132000
     17 C18        -2.7570   -2.4030    0.0060 ca        1 9DS     -0.113000
     18 C19        -3.8500   -1.5150   -0.0380 ca        1 9DS     -0.188000
     19 C20        -3.6490   -0.1430    0.0340 ca        1 9DS      0.118600
     20 N21        -4.7410    0.7830    0.0170 nh        1 9DS     -0.638000
     21 C23        -4.9060    1.4700   -1.2460 c3        1 9DS      0.168100
     22 C22        -5.9820    0.2790    0.5540 c3        1 9DS      0.168100
     23 HA          2.9390    0.1340   -1.5300 h1        1 9DS      0.047200
     24 HA2         4.4960   -0.3060   -0.6900 h1        1 9DS      0.047200
     25 H61C        4.3100   -0.3640    1.9510 h1        1 9DS      0.048700
     26 H62C        3.2670    1.1330    1.9750 h1        1 9DS      0.048700
     27 H63C        2.6080   -0.4680    2.6010 h1        1 9DS      0.048700
     28 H12         1.3520    1.7720    0.4360 ha        1 9DS      0.228000
     29 H13        -0.5490    3.2990    0.4840 ha        1 9DS      0.142000
     30 H14        -2.8850    2.4730    0.3210 ha        1 9DS      0.135000
     31 H17        -0.6310   -2.6470    0.1210 ha        1 9DS      0.161000
     32 H18        -2.9500   -3.4850   -0.0500 ha        1 9DS      0.125000
     33 H19        -4.8610   -1.9380   -0.1320 ha        1 9DS      0.121000
     34 H221       -5.7810   -0.2650    1.5130 h1        1 9DS      0.031700
     35 H222       -6.6490    1.1570    0.7640 h1        1 9DS      0.031700
     36 H223       -6.5270   -0.4150   -0.1460 h1        1 9DS      0.031700
     37 H231       -5.3930    0.8300   -2.0330 h1        1 9DS      0.031700
     38 H232       -5.5520    2.3710   -1.0730 h1        1 9DS      0.031700
     39 H233       -3.9050    1.8030   -1.6260 h1        1 9DS      0.031700
@<TRIPOS>BOND
     1    1    2 1   
     2    1    6 1   
     3    1    7 1   
     4    2    3 1   
     5    2   23 1   
     6    2   24 1   
     7    3    4 1   
     8    3    5 1   
     9    6   25 1   
    10    6   26 1   
    11    6   27 1   
    12    7    8 2   
    13    7    9 2   
    14    7   10 1   
    15   10   11 ar  
    16   10   15 ar  
    17   11   12 ar  
    18   11   28 1   
    19   12   13 ar  
    20   12   29 1   
    21   13   14 ar  
    22   13   30 1   
    23   14   15 ar  
    24   14   19 ar  
    25   15   16 ar  
    26   16   17 ar  
    27   16   31 1   
    28   17   18 ar  
    29   17   32 1   
    30   18   19 ar  
    31   18   33 1   
    32   19   20 1   
    33   20   21 1   
    34   20   22 1   
    35   21   37 1   
    36   21   38 1   
    37   21   39 1   
    38   22   34 1   
    39   22   35 1   
    40   22   36 1   
@<TRIPOS>SUBSTRUCTURE
     1 9DS         1 TEMP              0 ****  ****    0 ROOT
