@<TRIPOS>MOLECULE
9DX
   34    35     1     0     0
SMALL
bcc


@<TRIPOS>ATOM
      1 OAC         0.4640   -0.1820    2.1810 o         1 9DX     -0.843300
      2 CAN         0.2270    0.7250    1.3290 c         1 9DX      0.914600
      3 OAE         0.2740    1.9580    1.5970 o         1 9DX     -0.843300
      4 CAS        -0.0390    0.3040   -0.1430 c3        1 9DX      0.029800
      5 CB         -1.4990    0.4190   -0.5710 c3        1 9DX     -0.085400
      6 CA         -2.5630   -0.2500    0.3180 c3        1 9DX      0.059500
      7 N          -2.1970   -1.5250    0.8990 n3        1 9DX     -0.897800
      8 C          -3.8550   -0.3590   -0.5550 c         1 9DX      0.915600
      9 O          -4.8120    0.4280   -0.2990 o         1 9DX     -0.868800
     10 OXT        -3.8900   -1.2040   -1.4980 o         1 9DX     -0.868800
     11 OAL         0.3580   -1.0870   -0.3030 os        1 9DX     -0.399600
     12 CAR         1.6070   -1.1860   -0.9750 c3        1 9DX      0.091100
     13 CAP         2.7350   -1.4840    0.0290 c3        1 9DX      0.156100
     14 OAF         2.2630   -2.2860    1.0890 oh        1 9DX     -0.639800
     15 CAH         3.3480   -0.1990    0.5730 c3        1 9DX     -0.161400
     16 CAG         3.8220    0.7290   -0.5240 c3        1 9DX      0.144400
     17 OAK         3.1810    0.5520   -1.7810 os        1 9DX     -0.441600
     18 CAQ         1.8250    0.1320   -1.7390 c3        1 9DX      0.122100
     19 CAJ         0.8590    1.1260   -1.0940 c3        1 9DX     -0.121400
     20 HB         -1.7440    1.5120   -0.6220 hc        1 9DX      0.041200
     21 HBA        -1.5890   -0.0160   -1.6030 hc        1 9DX      0.041200
     22 HA         -2.7810    0.4460    1.1790 h1        1 9DX      0.052700
     23 HN         -2.1150   -2.2030    0.1630 hn        1 9DX      0.342300
     24 HNA        -1.2980   -1.4370    1.3450 hn        1 9DX      0.342300
     25 HAR         1.5000   -2.0580   -1.6750 h1        1 9DX      0.047700
     26 HAP         3.5260   -2.1030   -0.4790 h1        1 9DX      0.027700
     27 HOAF        1.4770   -1.8330    1.4640 ho        1 9DX      0.475000
     28 HAH         2.5660    0.3140    1.2040 hc        1 9DX      0.076200
     29 HAHA        4.2050   -0.4540    1.2450 hc        1 9DX      0.076200
     30 HAG         3.6860    1.7990   -0.2100 h1        1 9DX      0.020200
     31 HAGA        4.9090    0.5560   -0.7600 h1        1 9DX      0.020200
     32 HAQ         1.5860   -0.0070   -2.8310 h1        1 9DX      0.055700
     33 HAJ         0.2500    1.6370   -1.8780 hc        1 9DX      0.059700
     34 HAJA        1.4070    1.9110   -0.5140 hc        1 9DX      0.059700
@<TRIPOS>BOND
     1    1    2 1   
     2    2    3 1   
     3    2    4 1   
     4    4    5 1   
     5    4   11 1   
     6    4   19 1   
     7    5    6 1   
     8    5   20 1   
     9    5   21 1   
    10    6    7 1   
    11    6    8 1   
    12    6   22 1   
    13    7   23 1   
    14    7   24 1   
    15    8    9 1   
    16    8   10 1   
    17   11   12 1   
    18   12   13 1   
    19   12   18 1   
    20   12   25 1   
    21   13   14 1   
    22   13   15 1   
    23   13   26 1   
    24   14   27 1   
    25   15   16 1   
    26   15   28 1   
    27   15   29 1   
    28   16   17 1   
    29   16   30 1   
    30   16   31 1   
    31   17   18 1   
    32   18   19 1   
    33   18   32 1   
    34   19   33 1   
    35   19   34 1   
@<TRIPOS>SUBSTRUCTURE
     1 9DX         1 TEMP              0 ****  ****    0 ROOT
