@<TRIPOS>MOLECULE
9DX
   35    36     1     0     0
SMALL
bcc


@<TRIPOS>ATOM
      1 OAC        -0.5100    0.5810    1.3210 o         1 9DX     -0.820300
      2 CAN         0.5880    0.4610    0.6820 c         1 9DX      0.903600
      3 OAE         0.6790    0.5770   -0.5620 o         1 9DX     -0.820300
      4 CAS         1.8780    0.1910    1.5100 c3        1 9DX      0.007800
      5 CB          2.1640   -1.3010    1.6590 c3        1 9DX     -0.065400
      6 CA          0.9420   -2.1540    1.9640 c3        1 9DX     -0.026500
      7 N           0.0710   -1.5470    3.0130 n4        1 9DX     -0.839600
      8 C           1.3620   -3.6130    2.3990 c         1 9DX      0.917600
      9 O           0.6730   -4.1280    3.3260 o         1 9DX     -0.802800
     10 OXT         2.3170   -4.1360    1.7870 o         1 9DX     -0.802800
     11 OAL         1.6670    0.7140    2.8510 os        1 9DX     -0.448600
     12 CAR         2.3610    1.9490    3.0250 c3        1 9DX      0.090100
     13 CAP         1.3800    3.1280    2.8990 c3        1 9DX      0.148100
     14 OAF         0.1080    2.7640    3.3950 oh        1 9DX     -0.622800
     15 CAH         1.2730    3.6150    1.4600 c3        1 9DX     -0.157400
     16 CAG         2.6200    3.9460    0.8550 c3        1 9DX      0.136400
     17 OAK         3.7280    3.2830    1.4550 os        1 9DX     -0.423600
     18 CAQ         3.4830    1.9890    1.9710 c3        1 9DX      0.127100
     19 CAJ         3.0870    0.9390    0.9280 c3        1 9DX     -0.119400
     20 HB          2.9330   -1.4520    2.4610 hc        1 9DX      0.074700
     21 HBA         2.5910   -1.6910    0.6970 hc        1 9DX      0.074700
     22 HA          0.3100   -2.2430    1.0330 hx        1 9DX      0.096700
     23 HN         -0.4970   -2.3000    3.4160 hn        1 9DX      0.454133
     24 HNA         0.6610   -1.1440    3.7400 hn        1 9DX      0.454133
     25 HAR         2.7700    1.9100    4.0690 h1        1 9DX      0.059700
     26 HAP         1.7250    3.9630    3.5690 h1        1 9DX      0.055700
     27 HOAF       -0.2060    2.0160    2.8540 ho        1 9DX      0.451000
     28 HAH         0.7680    2.8150    0.8480 hc        1 9DX      0.076200
     29 HAHA        0.6150    4.5210    1.4280 hc        1 9DX      0.076200
     30 HAG         2.8700    5.0350    0.9890 h1        1 9DX      0.038200
     31 HAGA        2.6200    3.7030   -0.2420 h1        1 9DX      0.038200
     32 HAQ         4.4710    1.7250    2.4440 h1        1 9DX      0.067700
     33 HAJ         2.8050    1.4180   -0.0450 hc        1 9DX      0.074200
     34 HAJA        3.9380    0.2420    0.7380 hc        1 9DX      0.074200
     35 HN3        -0.5030   -0.7850    2.5970 hn        1 9DX      0.454133
@<TRIPOS>BOND
     1    1    2 1   
     2    2    3 1   
     3    2    4 1   
     4    4    5 1   
     5    4   11 1   
     6    4   19 1   
     7    5    6 1   
     8    5   20 1   
     9    5   21 1   
    10    6    7 1   
    11    6    8 1   
    12    6   22 1   
    13    7   23 1   
    14    7   24 1   
    15    7   35 1   
    16    8    9 1   
    17    8   10 1   
    18   11   12 1   
    19   12   13 1   
    20   12   18 1   
    21   12   25 1   
    22   13   14 1   
    23   13   15 1   
    24   13   26 1   
    25   14   27 1   
    26   15   16 1   
    27   15   28 1   
    28   15   29 1   
    29   16   17 1   
    30   16   30 1   
    31   16   31 1   
    32   17   18 1   
    33   18   19 1   
    34   18   32 1   
    35   19   33 1   
    36   19   34 1   
@<TRIPOS>SUBSTRUCTURE
     1 9DX         1 TEMP              0 ****  ****    0 ROOT
