@<TRIPOS>MOLECULE
9DX
   34    35     1     0     0
SMALL
bcc


@<TRIPOS>ATOM
      1 OAC        -1.8910    0.2680   -1.7870 o         1 9DX     -0.843300
      2 CAN        -0.6430    0.3650   -1.9990 c         1 9DX      0.914600
      3 OAE        -0.2260    0.7510   -3.1170 o         1 9DX     -0.843300
      4 CAS         0.3420   -0.0240   -0.9160 c3        1 9DX      0.029800
      5 CB          0.8460   -1.1300   -1.5250 c3        1 9DX     -0.085400
      6 CA         -0.2370   -2.1570   -1.6750 c3        1 9DX      0.059500
      7 N           0.1200   -3.3320   -0.9530 n3        1 9DX     -0.897800
      8 C          -0.4090   -2.5000   -3.1460 c         1 9DX      0.915600
      9 O           0.5960   -2.7830   -3.8480 o         1 9DX     -0.868800
     10 OXT        -1.5600   -2.5780   -3.6390 o         1 9DX     -0.868800
     11 OAL        -0.2980   -0.2700    0.4910 os        1 9DX     -0.399600
     12 CAR         0.4840    0.3030    1.3300 c3        1 9DX      0.091100
     13 CAP        -0.2670    0.7110    2.6110 c3        1 9DX      0.156100
     14 OAF        -0.9830   -0.4960    3.1500 oh        1 9DX     -0.639800
     15 CAH        -1.1910    1.7160    2.4140 c3        1 9DX     -0.161400
     16 CAG        -0.6690    2.8940    1.7310 c3        1 9DX      0.144400
     17 OAK         0.0290    2.5910    0.4540 os        1 9DX     -0.441600
     18 CAQ         1.2000    1.5330    0.5580 c3        1 9DX      0.122100
     19 CAJ         1.4810    1.1610   -0.5310 c3        1 9DX     -0.121400
     20 HB          1.5910   -1.5060   -0.9700 hc        1 9DX      0.041200
     21 HBA         1.1880   -0.8880   -2.4070 hc        1 9DX      0.041200
     22 HA         -1.0770   -1.8000   -1.3220 h1        1 9DX      0.052700
     23 HN         -0.6280   -3.7470   -0.6640 hn        1 9DX      0.342300
     24 HNA         0.5890   -3.8970   -1.5040 hn        1 9DX      0.342300
     25 HAR         1.1760   -0.3380    1.5820 h1        1 9DX      0.047700
     26 HAP         0.3640    1.0010    3.2530 h1        1 9DX      0.027700
     27 HOAF       -0.7670   -0.6100    4.0270 ho        1 9DX      0.475000
     28 HAH        -1.5430    1.9990    3.3010 hc        1 9DX      0.076200
     29 HAHA       -1.9390    1.3530    1.8820 hc        1 9DX      0.076200
     30 HAG        -0.0420    3.3470    2.3270 h1        1 9DX      0.020200
     31 HAGA       -1.4070    3.4920    1.5430 h1        1 9DX      0.020200
     32 HAQ         1.9770    1.8810    1.0510 h1        1 9DX      0.055700
     33 HAJ         2.3640    0.7870   -0.5360 hc        1 9DX      0.059700
     34 HAJA        1.4260    1.9030   -1.1660 hc        1 9DX      0.059700
@<TRIPOS>BOND
     1    1    2 1   
     2    2    3 1   
     3    2    4 1   
     4    4    5 1   
     5    4   11 1   
     6    4   19 1   
     7    5    6 1   
     8    5   20 1   
     9    5   21 1   
    10    6    7 1   
    11    6    8 1   
    12    6   22 1   
    13    7   23 1   
    14    7   24 1   
    15    8    9 1   
    16    8   10 1   
    17   11   12 1   
    18   12   13 1   
    19   12   18 1   
    20   12   25 1   
    21   13   14 1   
    22   13   15 1   
    23   13   26 1   
    24   14   27 1   
    25   15   16 1   
    26   15   28 1   
    27   15   29 1   
    28   16   17 1   
    29   16   30 1   
    30   16   31 1   
    31   17   18 1   
    32   18   19 1   
    33   18   32 1   
    34   19   33 1   
    35   19   34 1   
@<TRIPOS>SUBSTRUCTURE
     1 9DX         1 TEMP              0 ****  ****    0 ROOT
