@<TRIPOS>MOLECULE
9DX
   35    36     1     0     0
SMALL
bcc


@<TRIPOS>ATOM
      1 OAC        -0.5220    0.6060    1.3650 o         1 9DX     -0.820300
      2 CAN         0.5610    0.4660    0.7050 c         1 9DX      0.903600
      3 OAE         0.6290    0.5730   -0.5420 o         1 9DX     -0.820300
      4 CAS         1.8640    0.1850    1.5090 c3        1 9DX      0.007800
      5 CB          2.1320   -1.3090    1.6640 c3        1 9DX     -0.065400
      6 CA          0.9040   -2.1430    1.9990 c3        1 9DX     -0.026500
      7 N           0.0630   -1.5170    3.0610 n4        1 9DX     -0.839600
      8 C           1.3130   -3.6040    2.4370 c         1 9DX      0.917600
      9 O           0.6370   -4.1040    3.3810 o         1 9DX     -0.802800
     10 OXT         2.2480   -4.1450    1.8100 o         1 9DX     -0.802800
     11 OAL         1.6860    0.7210    2.8500 os        1 9DX     -0.448600
     12 CAR         2.4000    1.9470    3.0010 c3        1 9DX      0.090100
     13 CAP         1.4330    3.1380    2.8860 c3        1 9DX      0.148100
     14 OAF         0.1660    2.7960    3.4100 oh        1 9DX     -0.622800
     15 CAH         1.3040    3.6170    1.4460 c3        1 9DX     -0.157400
     16 CAG         2.6420    3.9250    0.8120 c3        1 9DX      0.136400
     17 OAK         3.7530    3.2520    1.3950 os        1 9DX     -0.423600
     18 CAQ         3.5010    1.9640    1.9250 c3        1 9DX      0.127100
     19 CAJ         3.0700    0.9120    0.8980 c3        1 9DX     -0.119400
     20 HB          2.5350   -1.7120    0.6970 hc        1 9DX      0.074700
     21 HBA         2.9150   -1.4660    2.4520 hc        1 9DX      0.074700
     22 HA          0.2530   -2.2310    1.0820 hx        1 9DX      0.096700
     23 HN         -0.5070   -2.2600    3.4800 hn        1 9DX      0.454133
     24 HNA        -0.5080   -0.7510    2.6500 hn        1 9DX      0.454133
     25 HAR         2.8280    1.9110    4.0380 h1        1 9DX      0.059700
     26 HAP         1.8020    3.9740    3.5430 h1        1 9DX      0.055700
     27 HOAF       -0.1690    2.0480    2.8800 ho        1 9DX      0.451000
     28 HAH         0.6570    4.5310    1.4200 hc        1 9DX      0.076200
     29 HAHA        0.7750    2.8200    0.8500 hc        1 9DX      0.076200
     30 HAG         2.6180    3.6740   -0.2830 h1        1 9DX      0.038200
     31 HAGA        2.9100    5.0110    0.9320 h1        1 9DX      0.038200
     32 HAQ         4.4950    1.6910    2.3810 h1        1 9DX      0.067700
     33 HAJ         2.7760    1.3880   -0.0730 hc        1 9DX      0.074200
     34 HAJA        3.9080    0.2020    0.6970 hc        1 9DX      0.074200
     35 HN3         0.6730   -1.1170    3.7730 hn        1 9DX      0.454133
@<TRIPOS>BOND
     1    1    2 1   
     2    2    3 1   
     3    2    4 1   
     4    4    5 1   
     5    4   11 1   
     6    4   19 1   
     7    5    6 1   
     8    5   20 1   
     9    5   21 1   
    10    6    7 1   
    11    6    8 1   
    12    6   22 1   
    13    7   23 1   
    14    7   24 1   
    15    7   35 1   
    16    8    9 1   
    17    8   10 1   
    18   11   12 1   
    19   12   13 1   
    20   12   18 1   
    21   12   25 1   
    22   13   14 1   
    23   13   15 1   
    24   13   26 1   
    25   14   27 1   
    26   15   16 1   
    27   15   28 1   
    28   15   29 1   
    29   16   17 1   
    30   16   30 1   
    31   16   31 1   
    32   17   18 1   
    33   18   19 1   
    34   18   32 1   
    35   19   33 1   
    36   19   34 1   
@<TRIPOS>SUBSTRUCTURE
     1 9DX         1 TEMP              0 ****  ****    0 ROOT
