@<TRIPOS>MOLECULE
9DX
   35    36     1     0     0
SMALL
bcc


@<TRIPOS>ATOM
      1 OAC        -0.5250    0.6170    1.3750 o         1 9DX     -0.820300
      2 CAN         0.5540    0.4910    0.7060 c         1 9DX      0.903600
      3 OAE         0.6150    0.6250   -0.5380 o         1 9DX     -0.820300
      4 CAS         1.8610    0.1940    1.4970 c3        1 9DX      0.007800
      5 CB          2.1310   -1.3040    1.6190 c3        1 9DX     -0.065400
      6 CA          0.9050   -2.1450    1.9430 c3        1 9DX     -0.026500
      7 N           0.0700   -1.5410    3.0230 nz        1 9DX     -0.839600
      8 C           1.3170   -3.6150    2.3480 c         1 9DX      0.917600
      9 O           0.6450   -4.1340    3.2850 o         1 9DX     -0.802800
     10 OXT         2.2480   -4.1420    1.7040 o         1 9DX     -0.802800
     11 OAL         1.6920    0.7010    2.8500 os        1 9DX     -0.448600
     12 CAR         2.4060    1.9240    3.0220 c3        1 9DX      0.090100
     13 CAP         1.4380    3.1170    2.9390 c3        1 9DX      0.148100
     14 OAF         0.1740    2.7630    3.4620 oh        1 9DX     -0.622800
     15 CAH         1.3010    3.6260    1.5090 c3        1 9DX     -0.157400
     16 CAG         2.6360    3.9480    0.8740 c3        1 9DX      0.136400
     17 OAK         3.7510    3.2620    1.4370 os        1 9DX     -0.423600
     18 CAQ         3.5010    1.9640    1.9410 c3        1 9DX      0.127100
     19 CAJ         3.0640    0.9340    0.8950 c3        1 9DX     -0.119400
     20 HB          2.5280   -1.6870    0.6400 hc        1 9DX      0.074700
     21 HBA         2.9180   -1.4770    2.3980 hc        1 9DX      0.074700
     22 HA          0.2490   -2.2130    1.0280 hx        1 9DX      0.096700
     23 HN         -0.4980   -2.2930    3.4300 hn        1 9DX      0.454133
     24 HNA         0.6840   -1.1570    3.7400 hn        1 9DX      0.454133
     25 HAR         2.8410    1.8650    4.0560 h1        1 9DX      0.059700
     26 HAP         1.8120    3.9390    3.6110 h1        1 9DX      0.055700
     27 HOAF       -0.1630    2.0260    2.9190 ho        1 9DX      0.451000
     28 HAH         0.6540    4.5400    1.5070 hc        1 9DX      0.076200
     29 HAHA        0.7690    2.8410    0.9000 hc        1 9DX      0.076200
     30 HAG         2.6050    3.7190   -0.2260 h1        1 9DX      0.038200
     31 HAGA        2.9040    5.0310    1.0160 h1        1 9DX      0.038200
     32 HAQ         4.4980    1.6810    2.3850 h1        1 9DX      0.067700
     33 HAJ         2.7650    1.4290   -0.0650 hc        1 9DX      0.074200
     34 HAJA        3.9010    0.2280    0.6730 hc        1 9DX      0.074200
     35 HN3        -0.5040   -0.7660    2.6320 hn        1 9DX      0.454133
@<TRIPOS>BOND
     1    1    2 1   
     2    2    3 1   
     3    2    4 1   
     4    4    5 1   
     5    4   11 1   
     6    4   19 1   
     7    5    6 1   
     8    5   20 1   
     9    5   21 1   
    10    6    7 1   
    11    6    8 1   
    12    6   22 1   
    13    7   23 1   
    14    7   24 1   
    15    7   35 1   
    16    8    9 1   
    17    8   10 1   
    18   11   12 1   
    19   12   13 1   
    20   12   18 1   
    21   12   25 1   
    22   13   14 1   
    23   13   15 1   
    24   13   26 1   
    25   14   27 1   
    26   15   16 1   
    27   15   28 1   
    28   15   29 1   
    29   16   17 1   
    30   16   30 1   
    31   16   31 1   
    32   17   18 1   
    33   18   19 1   
    34   18   32 1   
    35   19   33 1   
    36   19   34 1   
@<TRIPOS>SUBSTRUCTURE
     1 9DX         1 TEMP              0 ****  ****    0 ROOT
