@<TRIPOS>MOLECULE
9EP
   43    39     1     0     0
SMALL
bcc


@<TRIPOS>ATOM
      1 CAA        -5.7120    2.2560   -0.2820 c1        1 9EP      0.301000
      2 OAB        -4.5850    2.2250   -1.2160 o         1 9EP     -0.273000
      3 CAC        -3.5820    1.2300   -0.8930 c3        1 9EP      0.039000
      4 CAD        -2.2390    1.8020   -1.1170 c2        1 9EP     -0.203000
      5 SAE        -0.4380    2.3860   -1.9890 ss        1 9EP     -0.018000
      6 CAF        -0.8510    1.9270    0.4980 c1        1 9EP     -0.035000
      7 CAG        -1.0140    1.0300    1.7140 c1        1 9EP      0.361000
      8 OAH        -1.4540   -0.1810    1.5690 o         1 9EP     -0.553500
      9 OAI        -0.8960    1.5250    2.8770 o         1 9EP     -0.553500
     10 NAJ         0.6710    2.3600   -0.0230 n3        1 9EP     -0.250000
     11 CAK         0.8240    2.0450   -0.6830 c3        1 9EP     -0.107000
     12 CAL         0.8970    0.1200   -0.4160 c3        1 9EP     -0.073000
     13 NAM         1.8440   -0.1580    0.3620 n         1 9EP     -0.352000
     14 CAN         2.5490   -1.4580    0.2450 c2        1 9EP      0.301000
     15 CAO         1.0900   -0.5350   -1.6750 c2        1 9EP      0.217000
     16 OAP         2.0300   -0.2610   -2.3560 o         1 9EP     -0.301000
     17 CAQ        -6.4630    3.5850   -0.0100 c3        1 9EP     -0.219000
     18 CAR        -2.1840    2.2250   -1.4080 c3        1 9EP     -0.181000
     19 OAS        -6.0720    1.2290    0.2740 o         1 9EP     -0.375000
     20 CAT         3.7760   -1.7500    1.1510 c3        1 9EP     -0.117000
     21 OAU         2.0910   -2.3180   -0.4160 o         1 9EP     -0.412000
     22 CAV         4.2960   -3.2090    0.8730 c2        1 9EP     -0.355000
     23 CAW         4.2220   -4.3380    1.7910 c1        1 9EP     -0.134000
     24 SAX         5.0520   -3.6850   -0.4130 ss        1 9EP      0.491000
     25 CAY         5.4300   -5.1800   -0.2090 c1        1 9EP     -0.446000
     26 CAZ         4.9420   -5.5910    1.1070 c1        1 9EP     -0.157000
     27 HAC        -3.6710    0.9690    0.0350 h1        1 9EP      0.115000
     28 HACA       -3.7060    0.4400   -1.4690 h1        1 9EP      0.115000
     29 HNAJ        1.3730    2.5100    0.6130 hn        1 9EP      0.203000
     30 HAK         1.6710    2.3490   -0.9870 h2        1 9EP      0.149000
     31 HAL         0.0360   -0.1870   -0.0110 h1        1 9EP      0.130000
     32 HNAM        2.0670    0.4110    1.0150 hn        1 9EP      0.280000
     33 HAO         0.4590   -1.2310   -1.9650 h4        1 9EP      0.102000
     34 HAQ        -5.8320    4.3100    0.0290 hc        1 9EP      0.104667
     35 HAQA       -6.9400    3.5210    0.8410 hc        1 9EP      0.104667
     36 HAQB       -7.1090    3.7510   -0.7360 hc        1 9EP      0.104667
     37 HAR        -2.5690    2.9970   -0.8740 h1        1 9EP      0.105500
     38 HARA       -2.7690    2.2400   -2.2080 h1        1 9EP      0.105500
     39 HAT         4.4840   -1.1120    0.9550 hc        1 9EP      0.134500
     40 HATA        3.5130   -1.6670    2.0990 hc        1 9EP      0.134500
     41 HAW         3.8070   -4.3310    2.6690 DU        1 9EP      0.172000
     42 HAY         5.9240   -5.7610   -0.8670 DU        1 9EP      0.172000
     43 HAZ         5.0400   -6.4900    1.5040 DU        1 9EP      0.172000
@<TRIPOS>BOND
     1    1   17 1   
     2    1   19 1   
     3    2    3 1   
     4    3    4 1   
     5    3   27 1   
     6    3   28 1   
     7    4    6 1   
     8    4   18 1   
     9    5   11 1   
    10    5   18 1   
    11    6   10 1   
    12    7    8 1   
    13    7    9 1   
    14   10   11 1   
    15   10   29 1   
    16   11   12 1   
    17   11   30 1   
    18   12   13 1   
    19   12   15 1   
    20   12   31 1   
    21   13   14 1   
    22   13   32 1   
    23   14   20 1   
    24   14   21 1   
    25   15   16 1   
    26   15   33 1   
    27   17   34 1   
    28   17   35 1   
    29   17   36 1   
    30   18   37 1   
    31   18   38 1   
    32   20   22 1   
    33   20   39 1   
    34   20   40 1   
    35   22   23 1   
    36   22   24 1   
    37   23   26 1   
    38   24   25 1   
    39   25   26 1   
@<TRIPOS>SUBSTRUCTURE
     1 9EP         1 TEMP              0 ****  ****    0 ROOT
