@<TRIPOS>MOLECULE
9EP
   44    45     1     0     0
SMALL
bcc


@<TRIPOS>ATOM
      1 CAA         4.4320   -1.7440   -0.8820 c         1 9EP      0.657100
      2 OAB         3.5320   -1.4950    0.1050 os        1 9EP     -0.436900
      3 CAC         3.9890   -0.9690    1.3640 c3        1 9EP      0.190600
      4 CAD         4.4290    0.4500    1.2800 c2        1 9EP     -0.197400
      5 SAE         4.8330    2.3780   -0.5580 ss        1 9EP     -0.334200
      6 CAF         5.4670    0.9110    2.0280 ce        1 9EP     -0.030200
      7 CAG         6.3420    0.0110    2.9160 c         1 9EP      0.908800
      8 OAH         5.8230   -0.8030    3.6990 o         1 9EP     -0.782300
      9 OAI         7.6000    0.1780    2.7420 o         1 9EP     -0.782300
     10 NAJ         5.8610    2.2730    1.9550 nu        1 9EP     -0.689000
     11 CAK         6.1390    2.7470    0.6240 c3        1 9EP      0.267600
     12 CAL         7.4670    2.2400   -0.0240 c3        1 9EP     -0.035500
     13 NAM         7.5880    0.7530    0.0150 ny        1 9EP     -0.688800
     14 CAN         8.6050    0.2500   -0.9600 c         1 9EP      0.577100
     15 CAO         8.6540    2.9440    0.6250 c         1 9EP      0.569900
     16 OAP         9.7810    2.4580    0.6430 o         1 9EP     -0.498100
     17 CAQ         3.8330   -2.4400   -2.0560 c3        1 9EP     -0.155100
     18 CAR         3.6990    1.3590    0.3730 c3        1 9EP      0.063900
     19 OAS         5.6100   -1.3920   -0.7400 o         1 9EP     -0.604000
     20 CAT         9.7480   -0.5550   -0.3930 c3        1 9EP     -0.051100
     21 OAU         8.4580    0.5540   -2.1390 o         1 9EP     -0.474100
     22 CAV         9.3170   -1.7730    0.3000 cc        1 9EP     -0.211400
     23 CAW         8.3960   -2.7000   -0.1750 cd        1 9EP     -0.128000
     24 SAX         9.9590   -2.2650    1.7640 ss        1 9EP      0.150200
     25 CAY         9.0920   -3.6720    1.8110 cc        1 9EP     -0.165100
     26 CAZ         8.2660   -3.8070    0.7080 cd        1 9EP     -0.161000
     27 HAC         4.8050   -1.6280    1.7700 h1        1 9EP      0.098200
     28 HACA        3.0670   -1.0560    2.0060 h1        1 9EP      0.098200
     29 HNAJ        6.6210    2.4620    2.5880 hn        1 9EP      0.414800
     30 HAK         6.2170    3.8710    0.6680 h2        1 9EP      0.105700
     31 HAL         7.4470    2.5590   -1.1150 hx        1 9EP      0.133700
     32 HNAM        6.6620    0.3480   -0.2210 hn        1 9EP      0.511300
     33 HAO         8.4180    3.9450    1.0440 h4        1 9EP      0.040200
     34 HAQ         2.7180   -2.4250   -2.0030 hc        1 9EP      0.079367
     35 HAQA        4.1870   -3.5010   -2.0610 hc        1 9EP      0.079367
     36 HAQB        4.1740   -1.9370   -2.9940 hc        1 9EP      0.079367
     37 HAR         3.0130    2.0230    0.9560 h1        1 9EP      0.092200
     38 HARA        3.1000    0.8010   -0.3890 h1        1 9EP      0.092200
     39 HAT        10.3300    0.1230    0.2970 hc        1 9EP      0.106200
     40 HATA       10.4150   -0.8200   -1.2640 hc        1 9EP      0.106200
     41 HAW         7.8150   -2.5920   -1.0940 ha        1 9EP      0.158000
     42 HAY         9.1570   -4.3860    2.6320 h4        1 9EP      0.179000
     43 HAZ         7.5910   -4.6450    0.5280 ha        1 9EP      0.155000
     44 HAM2        7.8390    0.4350    1.0070 hn        1 9EP      0.511300
@<TRIPOS>BOND
     1    1    2 1   
     2    1   17 1   
     3    1   19 2   
     4    2    3 1   
     5    3    4 1   
     6    3   27 1   
     7    3   28 1   
     8    4    6 2   
     9    4   18 1   
    10    5   11 1   
    11    5   18 1   
    12    6    7 1   
    13    6   10 1   
    14    7    8 1   
    15    7    9 1   
    16   10   11 1   
    17   10   29 1   
    18   11   12 1   
    19   11   30 1   
    20   12   13 1   
    21   12   15 1   
    22   12   31 1   
    23   13   14 1   
    24   13   32 1   
    25   13   44 1   
    26   14   20 1   
    27   14   21 2   
    28   15   16 2   
    29   15   33 1   
    30   17   34 1   
    31   17   35 1   
    32   17   36 1   
    33   18   37 1   
    34   18   38 1   
    35   20   22 1   
    36   20   39 1   
    37   20   40 1   
    38   22   23 2   
    39   22   24 1   
    40   23   26 1   
    41   23   41 1   
    42   24   25 1   
    43   25   26 2   
    44   25   42 1   
    45   26   43 1   
@<TRIPOS>SUBSTRUCTURE
     1 9EP         1 TEMP              0 ****  ****    0 ROOT
