@<TRIPOS>MOLECULE
9EP
   44    45     1     0     0
SMALL
bcc


@<TRIPOS>ATOM
      1 CAA         4.3480   -0.9910   -1.8520 c         1 9EP      0.665100
      2 OAB         3.2310   -0.7020   -1.1390 os        1 9EP     -0.433900
      3 CAC         3.3080   -0.6130    0.2970 c3        1 9EP      0.189600
      4 CAD         4.0240    0.6050    0.7640 c2        1 9EP     -0.207400
      5 SAE         5.2430    2.7930   -0.2280 ss        1 9EP     -0.339200
      6 CAF         4.8960    0.5590    1.8080 ce        1 9EP     -0.020200
      7 CAG         5.3020   -0.7510    2.5050 c         1 9EP      0.909800
      8 OAH         4.4350   -1.5620    2.8780 o         1 9EP     -0.787800
      9 OAI         6.5640   -0.9140    2.6230 o         1 9EP     -0.787800
     10 NAJ         5.5500    1.7320    2.2600 nh        1 9EP     -0.694000
     11 CAK         6.2360    2.4840    1.2420 c3        1 9EP      0.271600
     12 CAL         7.5820    1.8800    0.7220 c3        1 9EP     -0.038500
     13 NAM         7.4530    0.4340    0.3900 n4        1 9EP     -0.684800
     14 CAN         8.4370   -0.0750   -0.6110 c         1 9EP      0.577100
     15 CAO         8.6830    2.1770    1.7320 c         1 9EP      0.558900
     16 OAP         9.5200    1.3560    2.0870 o         1 9EP     -0.472100
     17 CAQ         4.0750   -1.2290   -3.2990 c3        1 9EP     -0.156100
     18 CAR         3.7390    1.8800    0.0770 c3        1 9EP      0.062900
     19 OAS         5.4480   -1.0290   -1.2830 o         1 9EP     -0.624000
     20 CAT         8.5050   -1.5820   -0.7410 c3        1 9EP     -0.053100
     21 OAU         9.0850    0.7380   -1.2610 o         1 9EP     -0.477100
     22 CAV         9.3800   -2.1680    0.2800 cc        1 9EP     -0.189400
     23 CAW         9.0050   -2.5240    1.5650 cd        1 9EP     -0.105000
     24 SAX        10.9930   -2.5640   -0.0130 ss        1 9EP      0.018200
     25 CAY        11.2310   -3.1920    1.5110 cc        1 9EP     -0.148100
     26 CAZ        10.0900   -3.1180    2.2810 cd        1 9EP     -0.152000
     27 HAC         3.7760   -1.5510    0.7030 h1        1 9EP      0.099700
     28 HACA        2.2210   -0.5640    0.5870 h1        1 9EP      0.099700
     29 HNAJ        6.1390    1.5380    3.0530 hn        1 9EP      0.419800
     30 HAK         6.4840    3.4960    1.6740 h2        1 9EP      0.107700
     31 HAL         7.8570    2.4360   -0.2310 hx        1 9EP      0.137700
     32 HNAM        6.5030    0.2630    0.0040 hn        1 9EP      0.512300
     33 HAO         8.6670    3.2270    2.0970 h4        1 9EP      0.034200
     34 HAQ         4.8120   -0.6540   -3.9110 hc        1 9EP      0.080033
     35 HAQA        3.0370   -0.9150   -3.5650 hc        1 9EP      0.080033
     36 HAQB        4.1950   -2.3210   -3.5090 hc        1 9EP      0.080033
     37 HAR         3.2730    1.7210   -0.9270 h1        1 9EP      0.092200
     38 HARA        3.0530    2.5110    0.6960 h1        1 9EP      0.092200
     39 HAT         7.4650   -2.0160   -0.6690 hc        1 9EP      0.109700
     40 HATA        8.8950   -1.7950   -1.7760 hc        1 9EP      0.109700
     41 HAW         8.0090   -2.3750    2.0090 ha        1 9EP      0.212000
     42 HAY        12.1850   -3.6050    1.8350 h4        1 9EP      0.174000
     43 HAZ         9.9980   -3.4600    3.3150 ha        1 9EP      0.166000
     44 HAM2        7.5230   -0.1470    1.2850 hn        1 9EP      0.512300
@<TRIPOS>BOND
     1    1    2 1   
     2    1   17 1   
     3    1   19 2   
     4    2    3 1   
     5    3    4 1   
     6    3   27 1   
     7    3   28 1   
     8    4    6 2   
     9    4   18 1   
    10    5   11 1   
    11    5   18 1   
    12    6    7 1   
    13    6   10 1   
    14    7    8 1   
    15    7    9 1   
    16   10   11 1   
    17   10   29 1   
    18   11   12 1   
    19   11   30 1   
    20   12   13 1   
    21   12   15 1   
    22   12   31 1   
    23   13   14 1   
    24   13   32 1   
    25   13   44 1   
    26   14   20 1   
    27   14   21 2   
    28   15   16 2   
    29   15   33 1   
    30   17   34 1   
    31   17   35 1   
    32   17   36 1   
    33   18   37 1   
    34   18   38 1   
    35   20   22 1   
    36   20   39 1   
    37   20   40 1   
    38   22   23 2   
    39   22   24 1   
    40   23   26 1   
    41   23   41 1   
    42   24   25 1   
    43   25   26 2   
    44   25   42 1   
    45   26   43 1   
@<TRIPOS>SUBSTRUCTURE
     1 9EP         1 TEMP              0 ****  ****    0 ROOT
