@<TRIPOS>MOLECULE
9EP
   43    44     1     0     0
SMALL
bcc


@<TRIPOS>ATOM
      1 CAA         5.6580   -0.9250   -1.7490 c         1 9EP      0.629100
      2 OAB         4.6790   -0.9840   -0.8110 os        1 9EP     -0.436900
      3 CAC         3.7790    0.1530   -0.7280 c3        1 9EP      0.196600
      4 CAD         2.6890   -0.2360    0.2060 c2        1 9EP     -0.222400
      5 SAE         0.2850   -1.5130    0.2120 ss        1 9EP     -0.395200
      6 CAF         2.2980    0.5640    1.2330 ce        1 9EP      0.028800
      7 CAG         2.9000    1.9660    1.5050 c         1 9EP      0.909800
      8 OAH         2.0440    2.8810    1.6870 o         1 9EP     -0.806800
      9 OAI         4.1440    2.1080    1.5380 o         1 9EP     -0.806800
     10 NAJ         1.2790    0.1810    2.1310 nh        1 9EP     -0.699000
     11 CAK         0.0630   -0.3950    1.6120 c3        1 9EP      0.292600
     12 CAL        -1.0630    0.6340    1.2570 c3        1 9EP     -0.048300
     13 NAM        -2.2670   -0.0370    0.8320 n         1 9EP     -0.535900
     14 CAN        -3.3680   -0.1790    1.6350 c         1 9EP      0.660100
     15 CAO        -0.5520    1.6750    0.2590 c         1 9EP      0.546900
     16 OAP        -1.1300    1.9220   -0.8000 o         1 9EP     -0.550100
     17 CAQ         6.6220   -2.0610   -1.6510 c3        1 9EP     -0.151100
     18 CAR         2.0460   -1.5380   -0.0520 c3        1 9EP      0.091900
     19 OAS         5.6740   -0.0020   -2.5690 o         1 9EP     -0.563000
     20 CAT        -4.5780   -0.9130    1.0640 c3        1 9EP     -0.079100
     21 OAU        -3.3910    0.2140    2.8220 o         1 9EP     -0.633100
     22 CAV        -4.9090   -0.5560   -0.3210 cc        1 9EP     -0.117400
     23 CAW        -4.3540   -1.1110   -1.4600 cd        1 9EP     -0.154000
     24 SAX        -6.0680    0.5970   -0.7200 ss        1 9EP      0.023200
     25 CAY        -5.8740    0.3930   -2.3630 cc        1 9EP     -0.173100
     26 CAZ        -4.9160   -0.5550   -2.6500 cd        1 9EP     -0.149000
     27 HAC         4.3700    1.0340   -0.3560 h1        1 9EP      0.078200
     28 HACA        3.3770    0.3550   -1.7560 h1        1 9EP      0.078200
     29 HNAJ        1.0700    0.9410    2.7620 hn        1 9EP      0.410800
     30 HAK        -0.3470   -1.0450    2.4400 h2        1 9EP      0.080700
     31 HAL        -1.2980    1.2060    2.2120 h1        1 9EP      0.103700
     32 HNAM       -2.3250   -0.2670   -0.1350 hn        1 9EP      0.335500
     33 HAO         0.3710    2.2170    0.5910 h4        1 9EP      0.097200
     34 HAQ         6.1210   -2.9660   -1.2320 hc        1 9EP      0.064033
     35 HAQA        7.0330   -2.2880   -2.6640 hc        1 9EP      0.064033
     36 HAQB        7.4560   -1.7620   -0.9710 hc        1 9EP      0.064033
     37 HAR         2.1840   -1.8590   -1.1150 h1        1 9EP      0.065700
     38 HARA        2.4890   -2.3210    0.6130 h1        1 9EP      0.065700
     39 HAT        -4.3610   -2.0150    1.1350 hc        1 9EP      0.078200
     40 HATA       -5.4440   -0.6930    1.7460 hc        1 9EP      0.078200
     41 HAW        -3.5760   -1.8780   -1.4680 ha        1 9EP      0.160000
     42 HAY        -6.4380    0.9640   -3.0980 h4        1 9EP      0.166000
     43 HAZ        -4.6030   -0.8530   -3.6520 ha        1 9EP      0.152000
@<TRIPOS>BOND
     1    1    2 1   
     2    1   17 1   
     3    1   19 2   
     4    2    3 1   
     5    3    4 1   
     6    3   27 1   
     7    3   28 1   
     8    4    6 2   
     9    4   18 1   
    10    5   11 1   
    11    5   18 1   
    12    6    7 1   
    13    6   10 1   
    14    7    8 1   
    15    7    9 1   
    16   10   11 1   
    17   10   29 1   
    18   11   12 1   
    19   11   30 1   
    20   12   13 1   
    21   12   15 1   
    22   12   31 1   
    23   13   14 1   
    24   13   32 1   
    25   14   20 1   
    26   14   21 2   
    27   15   16 2   
    28   15   33 1   
    29   17   34 1   
    30   17   35 1   
    31   17   36 1   
    32   18   37 1   
    33   18   38 1   
    34   20   22 1   
    35   20   39 1   
    36   20   40 1   
    37   22   23 2   
    38   22   24 1   
    39   23   26 1   
    40   23   41 1   
    41   24   25 1   
    42   25   26 2   
    43   25   42 1   
    44   26   43 1   
@<TRIPOS>SUBSTRUCTURE
     1 9EP         1 TEMP              0 ****  ****    0 ROOT
