@<TRIPOS>MOLECULE
9EP
   44    45     1     0     0
SMALL
bcc


@<TRIPOS>ATOM
      1 CAA         4.2760   -1.2040   -1.6870 c         1 9EP      0.665100
      2 OAB         3.1850   -0.7780   -1.0010 os        1 9EP     -0.433900
      3 CAC         3.2970   -0.4960    0.4070 c3        1 9EP      0.189600
      4 CAD         4.0650    0.7450    0.6910 c2        1 9EP     -0.207400
      5 SAE         5.3380    2.7310   -0.6110 ss        1 9EP     -0.339200
      6 CAF         4.9570    0.8090    1.7160 ce        1 9EP     -0.020200
      7 CAG         5.3320   -0.4080    2.5790 c         1 9EP      0.909800
      8 OAH         4.4460   -1.1270    3.0740 o         1 9EP     -0.787800
      9 OAI         6.5900   -0.6010    2.6970 o         1 9EP     -0.787800
     10 NAJ         5.6610    2.0080    1.9920 nh        1 9EP     -0.694000
     11 CAK         6.3510    2.5870    0.8700 c3        1 9EP      0.271600
     12 CAL         7.6630    1.8670    0.4140 c3        1 9EP     -0.038500
     13 NAM         7.4770    0.3960    0.2860 n4        1 9EP     -0.684800
     14 CAN         8.4200   -0.2820   -0.6530 c         1 9EP      0.577100
     15 CAO         8.7960    2.2580    1.3560 c         1 9EP      0.558900
     16 OAP         9.6110    1.4620    1.8050 o         1 9EP     -0.472100
     17 CAQ         3.9630   -1.6260   -3.0820 c3        1 9EP     -0.156100
     18 CAR         3.8100    1.9250   -0.1590 c3        1 9EP      0.062900
     19 OAS         5.3860   -1.2050   -1.1370 o         1 9EP     -0.624000
     20 CAT         8.4330   -1.7940   -0.5760 c3        1 9EP     -0.053100
     21 OAU         9.0820    0.4100   -1.4190 o         1 9EP     -0.477100
     22 CAV         9.3090   -2.2670    0.5010 cc        1 9EP     -0.189400
     23 CAW         8.9500   -2.4300    1.8290 cd        1 9EP     -0.105000
     24 SAX        10.9000   -2.7600    0.2380 ss        1 9EP      0.018200
     25 CAY        11.1490   -3.1830    1.8290 cc        1 9EP     -0.148100
     26 CAZ        10.0290   -2.9610    2.6010 cd        1 9EP     -0.152000
     27 HAC         3.7400   -1.3880    0.9300 h1        1 9EP      0.099700
     28 HACA        2.2180   -0.3680    0.7060 h1        1 9EP      0.099700
     29 HNAJ        6.2610    1.9010    2.7940 hn        1 9EP      0.419800
     30 HAK         6.6440    3.6390    1.1550 h2        1 9EP      0.107700
     31 HAL         7.9370    2.2780   -0.6100 hx        1 9EP      0.137700
     32 HNAM        6.5130    0.2100   -0.0570 hn        1 9EP      0.512300
     33 HAO         8.8250    3.3480    1.5730 h4        1 9EP      0.034200
     34 HAQ         2.9330   -1.3100   -3.3730 hc        1 9EP      0.080033
     35 HAQA        4.7080   -1.1720   -3.7800 hc        1 9EP      0.080033
     36 HAQB        4.0360   -2.7400   -3.1420 hc        1 9EP      0.080033
     37 HAR         3.1600    2.6600    0.3790 h1        1 9EP      0.092200
     38 HARA        3.3170    1.6490   -1.1250 h1        1 9EP      0.092200
     39 HAT         7.3800   -2.1750   -0.4280 hc        1 9EP      0.109700
     40 HATA        8.7920   -2.1600   -1.5780 hc        1 9EP      0.109700
     41 HAW         7.9700   -2.1850    2.2650 ha        1 9EP      0.212000
     42 HAY        12.0960   -3.5830    2.1910 h4        1 9EP      0.174000
     43 HAZ         9.9480   -3.1560    3.6730 ha        1 9EP      0.166000
     44 HAM2        7.5460   -0.0600    1.2500 hn        1 9EP      0.512300
@<TRIPOS>BOND
     1    1    2 1   
     2    1   17 1   
     3    1   19 2   
     4    2    3 1   
     5    3    4 1   
     6    3   27 1   
     7    3   28 1   
     8    4    6 2   
     9    4   18 1   
    10    5   11 1   
    11    5   18 1   
    12    6    7 1   
    13    6   10 1   
    14    7    8 1   
    15    7    9 1   
    16   10   11 1   
    17   10   29 1   
    18   11   12 1   
    19   11   30 1   
    20   12   13 1   
    21   12   15 1   
    22   12   31 1   
    23   13   14 1   
    24   13   32 1   
    25   13   44 1   
    26   14   20 1   
    27   14   21 2   
    28   15   16 2   
    29   15   33 1   
    30   17   34 1   
    31   17   35 1   
    32   17   36 1   
    33   18   37 1   
    34   18   38 1   
    35   20   22 1   
    36   20   39 1   
    37   20   40 1   
    38   22   23 2   
    39   22   24 1   
    40   23   26 1   
    41   23   41 1   
    42   24   25 1   
    43   25   26 2   
    44   25   42 1   
    45   26   43 1   
@<TRIPOS>SUBSTRUCTURE
     1 9EP         1 TEMP              0 ****  ****    0 ROOT
