@<TRIPOS>MOLECULE
9F4
   43    46     1     0     0
SMALL
bcc


@<TRIPOS>ATOM
      1 F26        -0.0340   -0.0790   -0.4780 f         1 9F4     -0.103900
      2 C23         1.3040   -0.0590   -0.3560 ca        1 9F4     -0.087700
      3 C22         1.9340    0.1330    0.9030 ca        1 9F4      0.402200
      4 N21         3.2690    0.1530    1.0330 nb        1 9F4     -0.662500
      5 C24         2.1560   -0.2300   -1.4810 ca        1 9F4      0.402200
      6 N25         3.4930   -0.2100   -1.3670 nb        1 9F4     -0.662500
      7 C20         4.0110   -0.0190   -0.1100 cp        1 9F4      0.660500
      8 C12         5.4900    0.0030    0.0250 cp        1 9F4     -0.095500
      9 C11         6.2790    0.5930   -0.9710 ca        1 9F4     -0.081500
     10 C10         7.6650    0.6130   -0.8410 ca        1 9F4     -0.119500
     11 C13         6.1020   -0.5660    1.1490 ca        1 9F4     -0.081500
     12 C14         7.4890   -0.5430    1.2740 ca        1 9F4     -0.119500
     13 C9          8.2830    0.0440    0.2810 ca        1 9F4     -0.099300
     14 C8          9.7480    0.0810    0.3800 cx        1 9F4      0.012600
     15 C15        10.3950    0.3870    1.7270 cx        1 9F4     -0.258700
     16 C16        11.4630    1.3870    1.8500 c         1 9F4      0.608100
     17 N18        12.7290    1.0880    0.9870 n4        1 9F4     -0.480300
     18 O19        13.4510    2.2230    0.8840 oh        1 9F4     -0.345300
     19 O17        11.5120    2.3920    2.5250 o         1 9F4     -0.350100
     20 C7         10.5220   -0.9900    1.1040 cx        1 9F4     -0.034400
     21 C6         11.7870   -1.5210    0.5760 ca        1 9F4     -0.146300
     22 C1         12.7520   -2.0230    1.4650 ca        1 9F4     -0.149500
     23 C5         12.0040   -1.6230   -0.8040 ca        1 9F4     -0.149500
     24 C4         13.1700   -2.2150   -1.2890 ca        1 9F4     -0.119000
     25 C3         14.1290   -2.7060   -0.4020 ca        1 9F4     -0.105000
     26 C2         13.9180   -2.6090    0.9750 ca        1 9F4     -0.119000
     27 H22         1.3380    0.2760    1.8230 h4        1 9F4      0.054100
     28 H24         1.7410   -0.3880   -2.4940 h4        1 9F4      0.054100
     29 H11         5.8110    1.0420   -1.8620 ha        1 9F4      0.166000
     30 H13         5.4940   -1.0320    1.9420 ha        1 9F4      0.166000
     31 H10         8.2730    1.0800   -1.6320 ha        1 9F4      0.132000
     32 H14         7.9530   -0.9950    2.1640 ha        1 9F4      0.132000
     33 H8         10.2220    0.5310   -0.5210 hc        1 9F4      0.084700
     34 H15         9.7150    0.4820    2.6110 hc        1 9F4      0.165700
     35 H7          9.9340   -1.7920    1.6140 hc        1 9F4      0.139700
     36 H18        13.2590    0.3260    1.4540 hn        1 9F4      0.465800
     37 H1         12.5630   -2.0010    2.5500 ha        1 9F4      0.153000
     38 H5         11.2290   -1.2810   -1.5100 ha        1 9F4      0.153000
     39 H2         14.6610   -3.0210    1.6770 ha        1 9F4      0.162500
     40 H4         13.3220   -2.3140   -2.3770 ha        1 9F4      0.162500
     41 H3         15.0410   -3.1900   -0.7870 ha        1 9F4      0.164000
     42 H19        14.3240    2.0140    0.4840 ho        1 9F4      0.462000
     43 H182       12.4280    0.7520    0.0510 hn        1 9F4      0.465800
@<TRIPOS>BOND
     1    1    2 1   
     2    2    3 ar  
     3    2    5 ar  
     4    3    4 ar  
     5    3   27 1   
     6    4    7 ar  
     7    5    6 ar  
     8    5   28 1   
     9    6    7 ar  
    10    7    8 1   
    11    8    9 ar  
    12    8   11 ar  
    13    9   10 ar  
    14    9   29 1   
    15   10   13 ar  
    16   10   31 1   
    17   11   12 ar  
    18   11   30 1   
    19   12   13 ar  
    20   12   32 1   
    21   13   14 1   
    22   14   15 1   
    23   14   20 1   
    24   14   33 1   
    25   15   16 1   
    26   15   20 1   
    27   15   34 1   
    28   16   17 1   
    29   16   19 2   
    30   17   18 1   
    31   17   36 1   
    32   17   43 1   
    33   18   42 1   
    34   20   21 1   
    35   20   35 1   
    36   21   22 ar  
    37   21   23 ar  
    38   22   26 ar  
    39   22   37 1   
    40   23   24 ar  
    41   23   38 1   
    42   24   25 ar  
    43   24   40 1   
    44   25   26 ar  
    45   25   41 1   
    46   26   39 1   
@<TRIPOS>SUBSTRUCTURE
     1 9F4         1 TEMP              0 ****  ****    0 ROOT
