@<TRIPOS>MOLECULE
9F4
   42    45     1     0     0
SMALL
bcc


@<TRIPOS>ATOM
      1 F26        -8.3560   -0.2960    0.2830 f         1 9F4     -0.117900
      2 C23        -7.0140   -0.2320    0.1840 ca        1 9F4     -0.114700
      3 C22        -6.2800    0.8590    0.7190 ca        1 9F4      0.403700
      4 N21        -4.9440    0.9310    0.6250 nb        1 9F4     -0.669000
      5 C24        -6.2660   -1.2520   -0.4600 ca        1 9F4      0.403700
      6 N25        -4.9300   -1.1950   -0.5630 nb        1 9F4     -0.669000
      7 C20        -4.3020   -0.1020   -0.0160 cp        1 9F4      0.690500
      8 C12        -2.8240   -0.0300   -0.1270 cp        1 9F4     -0.141500
      9 C11        -2.1790   -0.5120   -1.2730 ca        1 9F4     -0.083000
     10 C10        -0.7920   -0.4430   -1.3730 ca        1 9F4     -0.134500
     11 C13        -2.0650    0.5200    0.9140 ca        1 9F4     -0.083000
     12 C14        -0.6780    0.5840    0.8080 ca        1 9F4     -0.134500
     13 C9         -0.0250    0.1030   -0.3340 ca        1 9F4     -0.036300
     14 C8          1.4370    0.1540   -0.4740 cx        1 9F4     -0.042400
     15 C15         2.2230    1.3210    0.0740 cx        1 9F4     -0.194700
     16 C16         3.3230    1.8950   -0.7580 c         1 9F4      0.619100
     17 N18         4.5230    2.2440   -0.0600 n         1 9F4     -0.349400
     18 O19         5.5770    2.4730   -0.8480 oh        1 9F4     -0.437100
     19 O17         3.1730    2.2060   -1.9500 o         1 9F4     -0.553100
     20 C7          2.3330   -0.0350    0.7320 cx        1 9F4     -0.058400
     21 C6          3.5610   -0.8420    0.6810 ca        1 9F4     -0.075300
     22 C1          4.5290   -0.6630    1.6810 ca        1 9F4     -0.126000
     23 C5          3.7680   -1.8150   -0.3030 ca        1 9F4     -0.126000
     24 C4          4.9310   -2.5850   -0.2960 ca        1 9F4     -0.123500
     25 C3          5.8940   -2.3940    0.6930 ca        1 9F4     -0.122000
     26 C2          5.6890   -1.4330    1.6840 ca        1 9F4     -0.123500
     27 H22        -6.7910    1.6930    1.2330 h4        1 9F4      0.044100
     28 H24        -6.7650   -2.1340   -0.8990 h4        1 9F4      0.044100
     29 H11        -2.7600   -0.9450   -2.1010 ha        1 9F4      0.150500
     30 H13        -2.5570    0.9070    1.8210 ha        1 9F4      0.150500
     31 H10        -0.2950   -0.8190   -2.2810 ha        1 9F4      0.136000
     32 H14        -0.0950    1.0220    1.6330 ha        1 9F4      0.136000
     33 H8          1.7890   -0.2570   -1.4470 hc        1 9F4      0.102700
     34 H15         1.6800    2.1220    0.6210 hc        1 9F4      0.116700
     35 H7          1.8270   -0.1370    1.7190 hc        1 9F4      0.097700
     36 H18         4.7950    1.5290    0.6110 hn        1 9F4      0.305500
     37 H1          4.3630    0.0820    2.4740 ha        1 9F4      0.136000
     38 H5          3.0100   -1.9820   -1.0830 ha        1 9F4      0.136000
     39 H2          6.4440   -1.2840    2.4700 ha        1 9F4      0.136500
     40 H4          5.0850   -3.3460   -1.0760 ha        1 9F4      0.136500
     41 H3          6.8110   -3.0010    0.6960 ha        1 9F4      0.136000
     42 H19         5.3930    3.3200   -1.3000 ho        1 9F4      0.432000
@<TRIPOS>BOND
     1    1    2 1   
     2    2    3 ar  
     3    2    5 ar  
     4    3    4 ar  
     5    3   27 1   
     6    4    7 ar  
     7    5    6 ar  
     8    5   28 1   
     9    6    7 ar  
    10    7    8 1   
    11    8    9 ar  
    12    8   11 ar  
    13    9   10 ar  
    14    9   29 1   
    15   10   13 ar  
    16   10   31 1   
    17   11   12 ar  
    18   11   30 1   
    19   12   13 ar  
    20   12   32 1   
    21   13   14 1   
    22   14   15 1   
    23   14   20 1   
    24   14   33 1   
    25   15   16 1   
    26   15   20 1   
    27   15   34 1   
    28   16   17 1   
    29   16   19 2   
    30   17   18 1   
    31   17   36 1   
    32   18   42 1   
    33   20   21 1   
    34   20   35 1   
    35   21   22 ar  
    36   21   23 ar  
    37   22   26 ar  
    38   22   37 1   
    39   23   24 ar  
    40   23   38 1   
    41   24   25 ar  
    42   24   40 1   
    43   25   26 ar  
    44   25   41 1   
    45   26   39 1   
@<TRIPOS>SUBSTRUCTURE
     1 9F4         1 TEMP              0 ****  ****    0 ROOT
