@<TRIPOS>MOLECULE
9F4
   43    46     1     0     0
SMALL
bcc


@<TRIPOS>ATOM
      1 F26        -0.1020   -0.2050   -0.2830 f         1 9F4     -0.103900
      2 C23         1.2390   -0.1590   -0.2120 ca        1 9F4     -0.088700
      3 C22         1.9100    0.1230    1.0080 ca        1 9F4      0.402700
      4 N21         3.2480    0.1700    1.0870 nb        1 9F4     -0.663000
      5 C24         2.0530   -0.3900   -1.3540 ca        1 9F4      0.402700
      6 N25         3.3920   -0.3430   -1.2910 nb        1 9F4     -0.663000
      7 C20         3.9510   -0.0650   -0.0680 cp        1 9F4      0.661500
      8 C12         5.4340   -0.0130    0.0100 cp        1 9F4     -0.096500
      9 C11         6.1770    0.5230   -1.0490 ca        1 9F4     -0.082000
     10 C10         7.5670    0.5720   -0.9720 ca        1 9F4     -0.119500
     11 C13         6.0960   -0.5000    1.1450 ca        1 9F4     -0.082000
     12 C14         7.4850   -0.4490    1.2170 ca        1 9F4     -0.119500
     13 C9          8.2340    0.0850    0.1610 ca        1 9F4     -0.098300
     14 C8          9.7000    0.1500    0.2020 cx        1 9F4      0.023600
     15 C15        10.3950    0.5270    1.5060 cx        1 9F4     -0.265700
     16 C16        11.4450    1.5560    1.4850 c         1 9F4      0.608100
     17 N18        12.8900    0.9620    1.4280 ny        1 9F4     -0.480300
     18 O19        13.7640    1.9350    1.7590 oh        1 9F4     -0.346300
     19 O17        11.3680    2.7630    1.5230 o         1 9F4     -0.342100
     20 C7         10.5140   -0.8770    0.9480 cx        1 9F4     -0.042400
     21 C6         11.7730   -1.4250    0.4210 ca        1 9F4     -0.141300
     22 C1         12.6230   -2.1200    1.3000 ca        1 9F4     -0.149500
     23 C5         12.1030   -1.3550   -0.9370 ca        1 9F4     -0.149500
     24 C4         13.2690   -1.9600   -1.4090 ca        1 9F4     -0.119000
     25 C3         14.1120   -2.6400   -0.5320 ca        1 9F4     -0.105000
     26 C2         13.7860   -2.7210    0.8240 ca        1 9F4     -0.119000
     27 H22         1.3450    0.3170    1.9390 h4        1 9F4      0.054100
     28 H24         1.6040   -0.6180   -2.3390 h4        1 9F4      0.054100
     29 H11         5.6700    0.9070   -1.9500 ha        1 9F4      0.165000
     30 H13         5.5230   -0.9230    1.9870 ha        1 9F4      0.165000
     31 H10         8.1380    0.9960   -1.8120 ha        1 9F4      0.132000
     32 H14         7.9880   -0.8360    2.1160 ha        1 9F4      0.132000
     33 H8         10.1350    0.5700   -0.7320 hc        1 9F4      0.097700
     34 H15         9.7570    0.6720    2.4120 hc        1 9F4      0.162700
     35 H7          9.9440   -1.6570    1.5110 hc        1 9F4      0.134700
     36 H18        12.9450    0.1620    2.0870 hn        1 9F4      0.465800
     37 H1         12.3400   -2.2380    2.3580 ha        1 9F4      0.150500
     38 H5         11.4210   -0.8640   -1.6510 ha        1 9F4      0.150500
     39 H2         14.4350   -3.2840    1.5140 ha        1 9F4      0.162000
     40 H4         13.5090   -1.9170   -2.4850 ha        1 9F4      0.162000
     41 H3         15.0220   -3.1340   -0.9110 ha        1 9F4      0.164000
     42 H19        14.6800    1.5930    1.6550 ho        1 9F4      0.462000
     43 H182       13.0540    0.6050    0.4660 hn        1 9F4      0.465800
@<TRIPOS>BOND
     1    1    2 1   
     2    2    3 ar  
     3    2    5 ar  
     4    3    4 ar  
     5    3   27 1   
     6    4    7 ar  
     7    5    6 ar  
     8    5   28 1   
     9    6    7 ar  
    10    7    8 1   
    11    8    9 ar  
    12    8   11 ar  
    13    9   10 ar  
    14    9   29 1   
    15   10   13 ar  
    16   10   31 1   
    17   11   12 ar  
    18   11   30 1   
    19   12   13 ar  
    20   12   32 1   
    21   13   14 1   
    22   14   15 1   
    23   14   20 1   
    24   14   33 1   
    25   15   16 1   
    26   15   20 1   
    27   15   34 1   
    28   16   17 1   
    29   16   19 2   
    30   17   18 1   
    31   17   36 1   
    32   17   43 1   
    33   18   42 1   
    34   20   21 1   
    35   20   35 1   
    36   21   22 ar  
    37   21   23 ar  
    38   22   26 ar  
    39   22   37 1   
    40   23   24 ar  
    41   23   38 1   
    42   24   25 ar  
    43   24   40 1   
    44   25   26 ar  
    45   25   41 1   
    46   26   39 1   
@<TRIPOS>SUBSTRUCTURE
     1 9F4         1 TEMP              0 ****  ****    0 ROOT
