@<TRIPOS>MOLECULE
9F4
   43    46     1     0     0
SMALL
bcc


@<TRIPOS>ATOM
      1 F26        -0.1050   -0.1980   -0.2590 f         1 9F4     -0.103900
      2 C23         1.2370   -0.1520   -0.1920 ca        1 9F4     -0.088700
      3 C22         1.9120    0.1400    1.0230 ca        1 9F4      0.402700
      4 N21         3.2510    0.1850    1.0980 nb        1 9F4     -0.663000
      5 C24         2.0470   -0.3950   -1.3340 ca        1 9F4      0.402700
      6 N25         3.3860   -0.3500   -1.2760 nb        1 9F4     -0.663000
      7 C20         3.9500   -0.0610   -0.0580 cp        1 9F4      0.661500
      8 C12         5.4330   -0.0100    0.0150 cp        1 9F4     -0.096500
      9 C11         6.1730    0.5140   -1.0520 ca        1 9F4     -0.082000
     10 C10         7.5630    0.5620   -0.9800 ca        1 9F4     -0.119500
     11 C13         6.0980   -0.4870    1.1530 ca        1 9F4     -0.082000
     12 C14         7.4880   -0.4370    1.2190 ca        1 9F4     -0.119500
     13 C9          8.2330    0.0850    0.1550 ca        1 9F4     -0.098300
     14 C8          9.7000    0.1480    0.1910 cx        1 9F4      0.023600
     15 C15        10.4000    0.5360    1.4890 cx        1 9F4     -0.265700
     16 C16        11.4530    1.5620    1.4540 c         1 9F4      0.608100
     17 N18        12.8960    0.9610    1.4200 n4        1 9F4     -0.480300
     18 O19        13.7700    1.9330    1.7520 oh        1 9F4     -0.346300
     19 O17        11.3800    2.7690    1.4650 o         1 9F4     -0.342100
     20 C7         10.5140   -0.8730    0.9440 cx        1 9F4     -0.042400
     21 C6         11.7710   -1.4270    0.4190 ca        1 9F4     -0.141300
     22 C1         12.6220   -2.1180    1.3010 ca        1 9F4     -0.149500
     23 C5         12.1000   -1.3660   -0.9400 ca        1 9F4     -0.149500
     24 C4         13.2650   -1.9760   -1.4100 ca        1 9F4     -0.119500
     25 C3         14.1080   -2.6530   -0.5290 ca        1 9F4     -0.105000
     26 C2         13.7830   -2.7240    0.8280 ca        1 9F4     -0.119500
     27 H22         1.3500    0.3430    1.9540 h4        1 9F4      0.054100
     28 H24         1.5950   -0.6320   -2.3150 h4        1 9F4      0.054100
     29 H11         5.6630    0.8900   -1.9550 ha        1 9F4      0.165000
     30 H13         5.5270   -0.9010    2.0000 ha        1 9F4      0.165000
     31 H10         8.1320    0.9770   -1.8260 ha        1 9F4      0.131500
     32 H14         7.9920   -0.8160    2.1200 ha        1 9F4      0.131500
     33 H8         10.1320    0.5590   -0.7490 hc        1 9F4      0.097700
     34 H15         9.7650    0.6910    2.3960 hc        1 9F4      0.162700
     35 H7          9.9450   -1.6470    1.5150 hc        1 9F4      0.133700
     36 H18        13.0700    0.5930    0.4650 hn        1 9F4      0.465800
     37 H1         12.3390   -2.2290    2.3600 ha        1 9F4      0.150500
     38 H5         11.4190   -0.8780   -1.6560 ha        1 9F4      0.150500
     39 H2         14.4320   -3.2840    1.5200 ha        1 9F4      0.162000
     40 H4         13.5040   -1.9400   -2.4850 ha        1 9F4      0.162000
     41 H3         15.0170   -3.1510   -0.9050 ha        1 9F4      0.164000
     42 H19        14.6860    1.5880    1.6590 ho        1 9F4      0.462000
     43 H182       12.9400    0.1680    2.0880 hn        1 9F4      0.465800
@<TRIPOS>BOND
     1    1    2 1   
     2    2    3 ar  
     3    2    5 ar  
     4    3    4 ar  
     5    3   27 1   
     6    4    7 ar  
     7    5    6 ar  
     8    5   28 1   
     9    6    7 ar  
    10    7    8 1   
    11    8    9 ar  
    12    8   11 ar  
    13    9   10 ar  
    14    9   29 1   
    15   10   13 ar  
    16   10   31 1   
    17   11   12 ar  
    18   11   30 1   
    19   12   13 ar  
    20   12   32 1   
    21   13   14 1   
    22   14   15 1   
    23   14   20 1   
    24   14   33 1   
    25   15   16 1   
    26   15   20 1   
    27   15   34 1   
    28   16   17 1   
    29   16   19 2   
    30   17   18 1   
    31   17   36 1   
    32   17   43 1   
    33   18   42 1   
    34   20   21 1   
    35   20   35 1   
    36   21   22 ar  
    37   21   23 ar  
    38   22   26 ar  
    39   22   37 1   
    40   23   24 ar  
    41   23   38 1   
    42   24   25 ar  
    43   24   40 1   
    44   25   26 ar  
    45   25   41 1   
    46   26   39 1   
@<TRIPOS>SUBSTRUCTURE
     1 9F4         1 TEMP              0 ****  ****    0 ROOT
