@<TRIPOS>MOLECULE
9F4
   42    39     1     0     0
SMALL
bcc


@<TRIPOS>ATOM
      1 F26        -8.8670    0.4540   -0.5620 f         1 9F4     -0.083000
      2 C23        -7.5360    0.3040   -0.4810 c2        1 9F4     -0.019000
      3 C22        -7.0070   -0.8630   -0.0020 c2        1 9F4     -0.062000
      4 N21        -5.6750   -0.9970    0.1180 n1        1 9F4     -0.142000
      5 C24        -6.7090    1.3320   -0.8370 c1        1 9F4     -0.062000
      6 N25        -5.3770    1.1960   -0.7160 n1        1 9F4     -0.144000
      7 C20        -4.8500    0.0310   -0.2380 c1        1 9F4      0.057000
      8 C12        -3.3370   -0.1310   -0.1220 c2        1 9F4     -0.035000
      9 C11        -2.5960   -0.5520   -1.2220 c2        1 9F4     -0.085000
     10 C10        -1.2110   -0.6590   -1.1290 c1        1 9F4     -0.132000
     11 C13        -2.6930    0.1840    1.0710 c1        1 9F4     -0.086000
     12 C14        -1.3080    0.0770    1.1650 c1        1 9F4     -0.134000
     13 C9         -0.5670   -0.3440    0.0650 c1        1 9F4     -0.040000
     14 C8          0.9610   -0.5000    0.1800 cx        1 9F4     -0.094000
     15 C15         1.7320   -0.4850   -1.1440 cx        1 9F4     -0.199000
     16 C16         2.7180   -1.6540   -0.9600 c2        1 9F4      0.271000
     17 N18         3.7350   -1.8920   -1.9400 n         1 9F4     -0.186000
     18 O19         4.9470   -2.4150   -1.5590 oh        1 9F4     -0.242000
     19 O17         2.5870   -2.4190   -0.0210 o         1 9F4     -0.327000
     20 C7          1.7640    0.7090   -0.1830 cx        1 9F4     -0.077000
     21 C6          3.0750    0.8990    0.6010 c2        1 9F4     -0.061000
     22 C1          3.3090    0.1540    1.7550 c2        1 9F4     -0.118000
     23 C5          3.9850    1.8750    0.2070 c1        1 9F4     -0.118000
     24 C4          5.1290    2.1070    0.9650 c1        1 9F4     -0.128000
     25 C3          5.3620    1.3630    2.1180 c1        1 9F4     -0.128000
     26 C2          4.4520    0.3870    2.5130 c1        1 9F4     -0.127000
     27 H22        -7.6000   -1.6020    0.2550 h4        1 9F4      0.182000
     28 H24        -7.0870    2.1700   -1.1810 ha        1 9F4      0.181000
     29 H11        -3.0490   -0.7740   -2.0630 ha        1 9F4      0.150000
     30 H13        -3.2170    0.4810    1.8490 ha        1 9F4      0.150000
     31 H10        -0.6890   -0.9550   -1.9040 ha        1 9F4      0.143000
     32 H14        -0.8550    0.2990    2.0060 ha        1 9F4      0.141000
     33 H8          1.3400   -1.0650    0.8860 hc        1 9F4      0.158000
     34 H15         1.7220   -0.2900   -2.1080 hc        1 9F4      0.140000
     35 H7          1.2460    1.4950   -0.4630 hc        1 9F4      0.129000
     36 H18         3.5660   -1.7270   -2.8250 hn        1 9F4      0.212000
     37 H1          2.6670   -0.5330    2.0330 ha        1 9F4      0.151000
     38 H5          3.8200    2.4000   -0.6070 ha        1 9F4      0.129000
     39 H2          4.6170   -0.1390    3.3270 ha        1 9F4      0.135000
     40 H4          5.7710    2.7950    0.6870 ha        1 9F4      0.132500
     41 H3          6.1700    1.5270    2.6530 ha        1 9F4      0.132500
     42 H19         5.5550   -2.2430   -2.1880 ho        1 9F4      0.235000
@<TRIPOS>BOND
     1    1    2 1   
     2    2    3 1   
     3    2    5 1   
     4    3    4 1   
     5    3   27 1   
     6    5   28 1   
     7    6    7 1   
     8    7    8 1   
     9    8    9 1   
    10    8   11 1   
    11    9   10 1   
    12    9   29 1   
    13   10   31 1   
    14   11   30 1   
    15   12   13 1   
    16   12   32 1   
    17   13   14 1   
    18   14   15 1   
    19   14   20 1   
    20   14   33 1   
    21   15   16 1   
    22   15   20 1   
    23   15   34 1   
    24   16   17 1   
    25   16   19 1   
    26   17   18 1   
    27   17   36 1   
    28   18   42 1   
    29   20   21 1   
    30   20   35 1   
    31   21   22 1   
    32   21   23 1   
    33   22   26 1   
    34   22   37 1   
    35   23   38 1   
    36   24   25 1   
    37   24   40 1   
    38   25   41 1   
    39   26   39 1   
@<TRIPOS>SUBSTRUCTURE
     1 9F4         1 TEMP              0 ****  ****    0 ROOT
