@<TRIPOS>MOLECULE
9F9
   55    58     1     0     0
SMALL
bcc


@<TRIPOS>ATOM
      1 C01         2.5110   -2.5050    1.3780 c3        1 9F9      0.115700
      2 O05         3.1980   -1.3180    0.9960 os        1 9F9     -0.333900
      3 C06         2.9670   -0.1960    1.7660 ca        1 9F9      0.154100
      4 C07         2.2290   -0.2200    2.9590 ca        1 9F9     -0.212000
      5 C09         2.0440    0.9580    3.6790 ca        1 9F9     -0.074000
      6 C11         2.5800    2.1590    3.2180 ca        1 9F9     -0.171000
      7 C13         3.3070    2.1840    2.0310 ca        1 9F9     -0.049000
      8 C15         3.5190    1.0130    1.2950 ca        1 9F9     -0.174600
      9 C16         4.2940    1.1440    0.0230 c         1 9F9      0.693700
     10 O17         4.0740    2.1040   -0.7420 o         1 9F9     -0.602100
     11 N18         5.2770    0.1930   -0.2000 n         1 9F9     -0.446100
     12 C20         6.1750    0.1240   -1.2760 ca        1 9F9      0.112600
     13 C21         6.0260    0.9610   -2.4090 ca        1 9F9     -0.166000
     14 C23         6.9390    0.8660   -3.4450 ca        1 9F9      0.026600
     15 N24         7.0510    1.6030   -4.6450 n         1 9F9     -0.343000
     16 C25         5.9740    2.3100   -5.2580 c3        1 9F9      0.085300
     17 C29         8.1360    1.0340   -5.3950 c         1 9F9      0.771500
     18 O30         8.4880    1.3860   -6.5330 o         1 9F9     -0.620500
     19 N31         8.8260    0.0830   -4.5590 n         1 9F9     -0.322000
     20 C32         9.5720   -0.9920   -5.1360 c3        1 9F9      0.076300
     21 C36         8.0290   -0.0800   -3.3940 ca        1 9F9     -0.047400
     22 C37         8.1780   -0.9040   -2.2930 ca        1 9F9     -0.117000
     23 C39         7.2600   -0.8140   -1.2260 ca        1 9F9      0.025600
     24 N40         7.3990   -1.6630   -0.0720 nh        1 9F9     -0.627000
     25 C41         8.5870   -1.3360    0.7130 c3        1 9F9      0.173300
     26 C44         8.7270   -2.2050    1.9620 c3        1 9F9     -0.078900
     27 C47         8.6660   -3.6760    1.6150 c3        1 9F9     -0.079400
     28 C50         7.4120   -3.9830    0.8240 c3        1 9F9     -0.078900
     29 C53         7.2990   -3.0810   -0.4030 c3        1 9F9      0.173300
     30 H011        1.4070   -2.3370    1.3970 h1        1 9F9      0.049033
     31 H012        2.7870   -3.2320    0.5720 h1        1 9F9      0.049033
     32 H013        2.8730   -2.8640    2.3720 h1        1 9F9      0.049033
     33 H07         1.7940   -1.1580    3.3310 ha        1 9F9      0.141000
     34 H09         1.4670    0.9350    4.6160 ha        1 9F9      0.137000
     35 H11         2.4260    3.0880    3.7870 ha        1 9F9      0.142000
     36 H13         3.7170    3.1330    1.6460 ha        1 9F9      0.157000
     37 H18         5.3260   -0.5570    0.4610 hn        1 9F9      0.349500
     38 H21         5.2010    1.6900   -2.4740 ha        1 9F9      0.187000
     39 H251        5.5740    3.0620   -4.5260 h1        1 9F9      0.055367
     40 H252        6.3640    2.8380   -6.1700 h1        1 9F9      0.055367
     41 H253        5.1390    1.6200   -5.5600 h1        1 9F9      0.055367
     42 H321       10.0780   -0.6160   -6.0660 h1        1 9F9      0.051700
     43 H322        8.9240   -1.8710   -5.4010 h1        1 9F9      0.051700
     44 H323       10.3460   -1.3240   -4.3940 h1        1 9F9      0.051700
     45 H37         9.0120   -1.6220   -2.2470 ha        1 9F9      0.142000
     46 H411        9.5280   -1.4400    0.0970 h1        1 9F9      0.035950
     47 H412        8.4970   -0.2570    1.0220 h1        1 9F9      0.035950
     48 H531        6.2950   -3.2410   -0.8880 h1        1 9F9      0.035950
     49 H532        8.0910   -3.3920   -1.1470 h1        1 9F9      0.035950
     50 H441        9.7070   -1.9630    2.4480 hc        1 9F9      0.046700
     51 H442        7.9130   -1.9550    2.6910 hc        1 9F9      0.046700
     52 H471        8.6830   -4.2890    2.5530 hc        1 9F9      0.041200
     53 H472        9.5690   -3.9590    1.0120 hc        1 9F9      0.041200
     54 H501        6.5120   -3.8470    1.4790 hc        1 9F9      0.046700
     55 H502        7.4250   -5.0480    0.4770 hc        1 9F9      0.046700
@<TRIPOS>BOND
     1    1    2 1   
     2    1   30 1   
     3    1   31 1   
     4    1   32 1   
     5    2    3 1   
     6    3    4 ar  
     7    3    8 ar  
     8    4    5 ar  
     9    4   33 1   
    10    5    6 ar  
    11    5   34 1   
    12    6    7 ar  
    13    6   35 1   
    14    7    8 ar  
    15    7   36 1   
    16    8    9 1   
    17    9   10 2   
    18    9   11 1   
    19   11   12 1   
    20   11   37 1   
    21   12   13 ar  
    22   12   23 ar  
    23   13   14 ar  
    24   13   38 1   
    25   14   15 1   
    26   14   21 ar  
    27   15   16 1   
    28   15   17 1   
    29   16   39 1   
    30   16   40 1   
    31   16   41 1   
    32   17   18 2   
    33   17   19 1   
    34   19   20 1   
    35   19   21 1   
    36   20   42 1   
    37   20   43 1   
    38   20   44 1   
    39   21   22 ar  
    40   22   23 ar  
    41   22   45 1   
    42   23   24 1   
    43   24   25 1   
    44   24   29 1   
    45   25   26 1   
    46   25   46 1   
    47   25   47 1   
    48   26   27 1   
    49   26   50 1   
    50   26   51 1   
    51   27   28 1   
    52   27   52 1   
    53   27   53 1   
    54   28   29 1   
    55   28   54 1   
    56   28   55 1   
    57   29   48 1   
    58   29   49 1   
@<TRIPOS>SUBSTRUCTURE
     1 9F9         1 TEMP              0 ****  ****    0 ROOT
