@<TRIPOS>MOLECULE
9F9
   55    58     1     0     0
SMALL
bcc


@<TRIPOS>ATOM
      1 C01         2.5090   -2.4930    1.3830 c3        1 9F9      0.115700
      2 O05         3.1970   -1.3080    0.9960 os        1 9F9     -0.333900
      3 C06         2.9650   -0.1820    1.7600 ca        1 9F9      0.154100
      4 C07         2.2250   -0.1990    2.9520 ca        1 9F9     -0.212000
      5 C09         2.0400    0.9810    3.6660 ca        1 9F9     -0.074000
      6 C11         2.5770    2.1810    3.2000 ca        1 9F9     -0.171000
      7 C13         3.3060    2.2000    2.0140 ca        1 9F9     -0.049000
      8 C15         3.5190    1.0240    1.2840 ca        1 9F9     -0.174600
      9 C16         4.2950    1.1490    0.0120 c         1 9F9      0.693700
     10 O17         4.0770    2.1050   -0.7580 o         1 9F9     -0.602100
     11 N18         5.2790    0.1970   -0.2040 ns        1 9F9     -0.446100
     12 C20         6.1780    0.1220   -1.2780 ca        1 9F9      0.112600
     13 C21         6.0320    0.9560   -2.4140 ca        1 9F9     -0.166000
     14 C23         6.9480    0.8540   -3.4490 ca        1 9F9      0.026600
     15 N24         7.0630    1.5870   -4.6520 n         1 9F9     -0.343000
     16 C25         5.9890    2.2950   -5.2680 c3        1 9F9      0.085300
     17 C29         8.1470    1.0130   -5.3980 c         1 9F9      0.771500
     18 O30         8.5020    1.3590   -6.5360 o         1 9F9     -0.620500
     19 N31         8.8340    0.0620   -4.5570 n         1 9F9     -0.322000
     20 C32         9.5780   -1.0160   -5.1300 c3        1 9F9      0.076300
     21 C36         8.0350   -0.0950   -3.3930 ca        1 9F9     -0.047400
     22 C37         8.1790   -0.9150   -2.2890 ca        1 9F9     -0.117000
     23 C39         7.2600   -0.8190   -1.2230 ca        1 9F9      0.025600
     24 N40         7.3960   -1.6640   -0.0670 nh        1 9F9     -0.627000
     25 C41         8.5830   -1.3390    0.7190 c3        1 9F9      0.173300
     26 C44         8.7200   -2.2030    1.9710 c3        1 9F9     -0.078900
     27 C47         8.6540   -3.6760    1.6290 c3        1 9F9     -0.079400
     28 C50         7.4000   -3.9810    0.8380 c3        1 9F9     -0.078900
     29 C53         7.2910   -3.0830   -0.3930 c3        1 9F9      0.173300
     30 H011        2.7870   -3.2230    0.5810 h1        1 9F9      0.049033
     31 H012        1.4050   -2.3250    1.3990 h1        1 9F9      0.049033
     32 H013        2.8700   -2.8460    2.3790 h1        1 9F9      0.049033
     33 H07         1.7900   -1.1350    3.3280 ha        1 9F9      0.141000
     34 H09         1.4620    0.9640    4.6030 ha        1 9F9      0.137000
     35 H11         2.4220    3.1120    3.7640 ha        1 9F9      0.142000
     36 H13         3.7170    3.1470    1.6250 ha        1 9F9      0.157000
     37 H18         5.3260   -0.5490    0.4610 hn        1 9F9      0.349500
     38 H21         5.2100    1.6870   -2.4830 ha        1 9F9      0.187000
     39 H251        5.5900    3.0510   -4.5390 h1        1 9F9      0.055367
     40 H252        5.1530    1.6070   -5.5700 h1        1 9F9      0.055367
     41 H253        6.3820    2.8180   -6.1810 h1        1 9F9      0.055367
     42 H321       10.3500   -1.3480   -4.3860 h1        1 9F9      0.051700
     43 H322       10.0860   -0.6440   -6.0600 h1        1 9F9      0.051700
     44 H323        8.9280   -1.8940   -5.3920 h1        1 9F9      0.051700
     45 H37         9.0110   -1.6350   -2.2390 ha        1 9F9      0.142000
     46 H411        8.4960   -0.2580    1.0240 h1        1 9F9      0.035950
     47 H412        9.5250   -1.4470    0.1040 h1        1 9F9      0.035950
     48 H531        6.2870   -3.2410   -0.8780 h1        1 9F9      0.035950
     49 H532        8.0830   -3.3990   -1.1340 h1        1 9F9      0.035950
     50 H441        9.7000   -1.9630    2.4580 hc        1 9F9      0.046700
     51 H442        7.9050   -1.9480    2.6980 hc        1 9F9      0.046700
     52 H471        8.6680   -4.2850    2.5690 hc        1 9F9      0.041200
     53 H472        9.5560   -3.9630    1.0280 hc        1 9F9      0.041200
     54 H501        6.5000   -3.8400    1.4910 hc        1 9F9      0.046700
     55 H502        7.4100   -5.0480    0.4950 hc        1 9F9      0.046700
@<TRIPOS>BOND
     1    1    2 1   
     2    1   30 1   
     3    1   31 1   
     4    1   32 1   
     5    2    3 1   
     6    3    4 ar  
     7    3    8 ar  
     8    4    5 ar  
     9    4   33 1   
    10    5    6 ar  
    11    5   34 1   
    12    6    7 ar  
    13    6   35 1   
    14    7    8 ar  
    15    7   36 1   
    16    8    9 1   
    17    9   10 2   
    18    9   11 1   
    19   11   12 1   
    20   11   37 1   
    21   12   13 ar  
    22   12   23 ar  
    23   13   14 ar  
    24   13   38 1   
    25   14   15 1   
    26   14   21 ar  
    27   15   16 1   
    28   15   17 1   
    29   16   39 1   
    30   16   40 1   
    31   16   41 1   
    32   17   18 2   
    33   17   19 1   
    34   19   20 1   
    35   19   21 1   
    36   20   42 1   
    37   20   43 1   
    38   20   44 1   
    39   21   22 ar  
    40   22   23 ar  
    41   22   45 1   
    42   23   24 1   
    43   24   25 1   
    44   24   29 1   
    45   25   26 1   
    46   25   46 1   
    47   25   47 1   
    48   26   27 1   
    49   26   50 1   
    50   26   51 1   
    51   27   28 1   
    52   27   52 1   
    53   27   53 1   
    54   28   29 1   
    55   28   54 1   
    56   28   55 1   
    57   29   48 1   
    58   29   49 1   
@<TRIPOS>SUBSTRUCTURE
     1 9F9         1 TEMP              0 ****  ****    0 ROOT
