@<TRIPOS>MOLECULE
9F9
   55    58     1     0     0
SMALL
bcc


@<TRIPOS>ATOM
      1 C01         2.3760   -2.5110    1.3280 c3        1 9F9      0.115700
      2 O05         3.1100   -1.3470    0.9630 os        1 9F9     -0.333900
      3 C06         2.9110   -0.2220    1.7370 ca        1 9F9      0.155100
      4 C07         2.1680   -0.2310    2.9280 ca        1 9F9     -0.212000
      5 C09         2.0180    0.9470    3.6550 ca        1 9F9     -0.073000
      6 C11         2.5920    2.1340    3.2050 ca        1 9F9     -0.171000
      7 C13         3.3240    2.1450    2.0200 ca        1 9F9     -0.049000
      8 C15         3.5020    0.9720    1.2760 ca        1 9F9     -0.173600
      9 C16         4.2850    1.0910    0.0080 c         1 9F9      0.692700
     10 O17         4.1160    2.0760   -0.7390 o         1 9F9     -0.604100
     11 N18         5.2210    0.0990   -0.2380 n         1 9F9     -0.447100
     12 C20         6.1120    0.0220   -1.3190 ca        1 9F9      0.110600
     13 C21         5.9090    0.8040   -2.4850 ca        1 9F9     -0.161000
     14 C23         6.8100    0.7020   -3.5290 ca        1 9F9      0.027600
     15 N24         6.8180    1.3140   -4.8040 n         1 9F9     -0.350000
     16 C25         6.1350    2.5260   -5.1220 c3        1 9F9      0.089300
     17 C29         8.0080    0.8860   -5.4790 c         1 9F9      0.775500
     18 O30         8.3610    1.2450   -6.6150 o         1 9F9     -0.622500
     19 N31         8.7330   -0.0150   -4.6220 n         1 9F9     -0.332000
     20 C32         9.5540   -1.0510   -5.1630 c3        1 9F9      0.081300
     21 C36         7.9480   -0.1840   -3.4490 ca        1 9F9     -0.041400
     22 C37         8.1460   -0.9570   -2.3210 ca        1 9F9     -0.120000
     23 C39         7.2330   -0.8670   -1.2460 ca        1 9F9      0.027600
     24 N40         7.4170   -1.6680   -0.0660 nh        1 9F9     -0.627000
     25 C41         8.5920   -1.2630    0.7000 c3        1 9F9      0.173300
     26 C44         8.7770   -2.0800    1.9770 c3        1 9F9     -0.078900
     27 C47         8.7800   -3.5650    1.6810 c3        1 9F9     -0.079400
     28 C50         7.5370   -3.9540    0.9090 c3        1 9F9     -0.078900
     29 C53         7.3790   -3.1000   -0.3480 c3        1 9F9      0.173300
     30 H011        2.7180   -2.8930    2.3210 h1        1 9F9      0.049033
     31 H012        1.2790   -2.3010    1.3420 h1        1 9F9      0.049033
     32 H013        2.6300   -3.2390    0.5160 h1        1 9F9      0.049033
     33 H07         1.7040   -1.1570    3.2920 ha        1 9F9      0.142000
     34 H09         1.4380    0.9360    4.5910 ha        1 9F9      0.137000
     35 H11         2.4650    3.0630    3.7790 ha        1 9F9      0.141000
     36 H13         3.7640    3.0830    1.6420 ha        1 9F9      0.157000
     37 H18         5.2570   -0.6550    0.4190 hn        1 9F9      0.349500
     38 H21         5.0490    1.4900   -2.5640 ha        1 9F9      0.185000
     39 H251        6.5160    3.3900   -4.5130 h1        1 9F9      0.055033
     40 H252        5.0400    2.3900   -4.9100 h1        1 9F9      0.055033
     41 H253        6.2870    2.7470   -6.2130 h1        1 9F9      0.055033
     42 H321        8.9650   -1.9770   -5.4060 h1        1 9F9      0.051367
     43 H322       10.3420   -1.3120   -4.4070 h1        1 9F9      0.051367
     44 H323       10.0410   -0.6690   -6.1000 h1        1 9F9      0.051367
     45 H37         9.0120   -1.6340   -2.2560 ha        1 9F9      0.143000
     46 H411        8.4560   -0.1790    0.9720 h1        1 9F9      0.035700
     47 H412        9.5350   -1.3450    0.0820 h1        1 9F9      0.035700
     48 H531        8.1810   -3.4010   -1.0850 h1        1 9F9      0.035700
     49 H532        6.3820   -3.3210   -0.8220 h1        1 9F9      0.035700
     50 H441        7.9560   -1.8420    2.7020 hc        1 9F9      0.046950
     51 H442        9.7480   -1.7790    2.4490 hc        1 9F9      0.046950
     52 H471        9.6920   -3.8270    1.0820 hc        1 9F9      0.040700
     53 H472        8.8290   -4.1430    2.6390 hc        1 9F9      0.040700
     54 H501        6.6350   -3.8350    1.5640 hc        1 9F9      0.046950
     55 H502        7.5960   -5.0290    0.5990 hc        1 9F9      0.046950
@<TRIPOS>BOND
     1    1    2 1   
     2    1   30 1   
     3    1   31 1   
     4    1   32 1   
     5    2    3 1   
     6    3    4 ar  
     7    3    8 ar  
     8    4    5 ar  
     9    4   33 1   
    10    5    6 ar  
    11    5   34 1   
    12    6    7 ar  
    13    6   35 1   
    14    7    8 ar  
    15    7   36 1   
    16    8    9 1   
    17    9   10 2   
    18    9   11 1   
    19   11   12 1   
    20   11   37 1   
    21   12   13 ar  
    22   12   23 ar  
    23   13   14 ar  
    24   13   38 1   
    25   14   15 1   
    26   14   21 ar  
    27   15   16 1   
    28   15   17 1   
    29   16   39 1   
    30   16   40 1   
    31   16   41 1   
    32   17   18 2   
    33   17   19 1   
    34   19   20 1   
    35   19   21 1   
    36   20   42 1   
    37   20   43 1   
    38   20   44 1   
    39   21   22 ar  
    40   22   23 ar  
    41   22   45 1   
    42   23   24 1   
    43   24   25 1   
    44   24   29 1   
    45   25   26 1   
    46   25   46 1   
    47   25   47 1   
    48   26   27 1   
    49   26   50 1   
    50   26   51 1   
    51   27   28 1   
    52   27   52 1   
    53   27   53 1   
    54   28   29 1   
    55   28   54 1   
    56   28   55 1   
    57   29   48 1   
    58   29   49 1   
@<TRIPOS>SUBSTRUCTURE
     1 9F9         1 TEMP              0 ****  ****    0 ROOT
