@<TRIPOS>MOLECULE
9FK
   37    40     1     0     0
SMALL
bcc


@<TRIPOS>ATOM
      1 O22         0.3450   -0.1500    0.1270 o         1 9FK     -0.582300
      2 S21         1.6880    0.0020   -0.1330 sy        1 9FK      1.564200
      3 O23         2.6400   -0.5980    0.6620 o         1 9FK     -0.582300
      4 N24         1.8030   -1.2110   -1.6850 n4        1 9FK     -0.777500
      5 C19         2.1140    1.3110   -0.8400 cc        1 9FK     -0.740600
      6 S20         3.5940    2.0870   -0.9350 ss        1 9FK      0.315200
      7 C16         3.0580    3.4030   -1.7500 cc        1 9FK     -0.009600
      8 C17         1.6580    3.3110   -2.0010 cd        1 9FK     -0.160000
      9 C18         1.1310    2.1430   -1.4860 cd        1 9FK     -0.001000
     10 C14         3.8550    4.4990   -2.1580 cc        1 9FK      0.224800
     11 C15         5.2160    4.8070   -1.8760 cd        1 9FK     -0.132600
     12 N11         5.4360    6.0090   -2.5330 na        1 9FK      0.150300
     13 N12         4.2920    6.4080   -3.1700 nd        1 9FK     -0.106800
     14 N13         3.3720    5.5690   -2.9770 nc        1 9FK     -0.303000
     15 C10         6.6670    6.7440   -2.5120 ca        1 9FK     -0.040200
     16 C9          7.0240    7.4200   -1.3530 ca        1 9FK     -0.087000
     17 C8          8.2350    8.1420   -1.3020 ca        1 9FK     -0.138000
     18 C7          9.0620    8.1930   -2.3970 ca        1 9FK     -0.072000
     19 C4          8.7140    7.5220   -3.6000 ca        1 9FK     -0.040000
     20 C3          7.5010    6.7850   -3.6800 ca        1 9FK     -0.009000
     21 C5          9.5680    7.5850   -4.7360 ca        1 9FK     -0.106000
     22 C6          9.2310    6.9460   -5.9020 ca        1 9FK     -0.116000
     23 C1          8.0230    6.2140   -5.9840 ca        1 9FK     -0.099000
     24 C2          7.1790    6.1330   -4.9020 ca        1 9FK     -0.133000
     25 H18         0.0670    1.8710   -1.5280 ha        1 9FK      0.190000
     26 H17         1.0860    4.0840   -2.5290 ha        1 9FK      0.212000
     27 H15         5.9830    4.2910   -1.2960 h4        1 9FK      0.210000
     28 H9          6.3770    7.4140   -0.4610 ha        1 9FK      0.148000
     29 H8          8.4980    8.6690   -0.3710 ha        1 9FK      0.155000
     30 H7         10.0060    8.7610   -2.3630 ha        1 9FK      0.153000
     31 H5         10.5040    8.1610   -4.6570 ha        1 9FK      0.148000
     32 H2          6.2410    5.5670   -4.9960 ha        1 9FK      0.135000
     33 H6          9.8890    6.9970   -6.7840 ha        1 9FK      0.150000
     34 H1          7.7640    5.7140   -6.9300 ha        1 9FK      0.145000
     35 HN1         2.4960   -1.9330   -1.5150 hn        1 9FK      0.444467
     36 HN2         2.0530   -0.7200   -2.5340 hn        1 9FK      0.444467
     37 H243        0.9060   -1.6650   -1.8320 hn        1 9FK      0.444467
@<TRIPOS>BOND
     1    1    2 2   
     2    2    3 2   
     3    2    4 1   
     4    2    5 1   
     5    4   35 1   
     6    4   36 1   
     7    4   37 1   
     8    5    6 1   
     9    5    9 2   
    10    6    7 1   
    11    7    8 2   
    12    7   10 1   
    13    8    9 1   
    14    8   26 1   
    15    9   25 1   
    16   10   11 2   
    17   10   14 1   
    18   11   12 1   
    19   11   27 1   
    20   12   13 1   
    21   12   15 1   
    22   13   14 2   
    23   15   16 ar  
    24   15   20 ar  
    25   16   17 ar  
    26   16   28 1   
    27   17   18 ar  
    28   17   29 1   
    29   18   19 ar  
    30   18   30 1   
    31   19   20 ar  
    32   19   21 ar  
    33   20   24 ar  
    34   21   22 ar  
    35   21   31 1   
    36   22   23 ar  
    37   22   33 1   
    38   23   24 ar  
    39   23   34 1   
    40   24   32 1   
@<TRIPOS>SUBSTRUCTURE
     1 9FK         1 TEMP              0 ****  ****    0 ROOT
