@<TRIPOS>MOLECULE
9FK
   37    40     1     0     0
SMALL
bcc


@<TRIPOS>ATOM
      1 O22         0.3800   -0.1670    0.1540 o         1 9FK     -0.582300
      2 S21         1.7190   -0.0140   -0.1270 sy        1 9FK      1.564200
      3 O23         2.6830   -0.6240    0.6450 o         1 9FK     -0.582300
      4 N24         1.8070   -1.2100   -1.6940 n4        1 9FK     -0.777500
      5 C19         2.1350    1.3030   -0.8270 cc        1 9FK     -0.740600
      6 S20         3.6140    2.0770   -0.9360 ss        1 9FK      0.316200
      7 C16         3.0670    3.4030   -1.7280 cc        1 9FK     -0.009600
      8 C17         1.6630    3.3160   -1.9570 cd        1 9FK     -0.160000
      9 C18         1.1430    2.1420   -1.4460 cd        1 9FK     -0.001000
     10 C14         3.8580    4.5030   -2.1370 cc        1 9FK      0.223800
     11 C15         5.2240    4.8060   -1.8730 cd        1 9FK     -0.132600
     12 N11         5.4350    6.0150   -2.5210 na        1 9FK      0.150300
     13 N12         4.2820    6.4210   -3.1360 nd        1 9FK     -0.106800
     14 N13         3.3640    5.5820   -2.9360 nc        1 9FK     -0.303000
     15 C10         6.6680    6.7480   -2.5130 ca        1 9FK     -0.040200
     16 C9          7.0380    7.4240   -1.3580 ca        1 9FK     -0.087000
     17 C8          8.2510    8.1430   -1.3200 ca        1 9FK     -0.138000
     18 C7          9.0660    8.1920   -2.4240 ca        1 9FK     -0.072000
     19 C4          8.7040    7.5210   -3.6220 ca        1 9FK     -0.040000
     20 C3          7.4890    6.7870   -3.6900 ca        1 9FK     -0.009000
     21 C5          9.5470    7.5820   -4.7670 ca        1 9FK     -0.105000
     22 C6          9.1960    6.9440   -5.9300 ca        1 9FK     -0.116000
     23 C1          7.9840    6.2160   -5.9990 ca        1 9FK     -0.099000
     24 C2          7.1520    6.1370   -4.9080 ca        1 9FK     -0.133000
     25 H18         0.0780    1.8720   -1.4740 ha        1 9FK      0.190000
     26 H17         1.0830    4.0960   -2.4660 ha        1 9FK      0.212000
     27 H15         6.0000    4.2840   -1.3100 h4        1 9FK      0.210000
     28 H9          6.4000    7.4200   -0.4590 ha        1 9FK      0.148000
     29 H8          8.5240    8.6700   -0.3920 ha        1 9FK      0.155000
     30 H7         10.0120    8.7580   -2.4000 ha        1 9FK      0.153000
     31 H5         10.4850    8.1560   -4.6990 ha        1 9FK      0.148000
     32 H2          6.2120    5.5740   -4.9920 ha        1 9FK      0.135000
     33 H6          9.8450    6.9930   -6.8180 ha        1 9FK      0.150000
     34 H1          7.7140    5.7170   -6.9430 ha        1 9FK      0.145000
     35 HN1         0.9070   -1.6600   -1.8320 hn        1 9FK      0.444467
     36 HN2         2.0430   -0.7100   -2.5420 hn        1 9FK      0.444467
     37 H243        2.5020   -1.9340   -1.5440 hn        1 9FK      0.444467
@<TRIPOS>BOND
     1    1    2 2   
     2    2    3 2   
     3    2    4 1   
     4    2    5 1   
     5    4   35 1   
     6    4   36 1   
     7    4   37 1   
     8    5    6 1   
     9    5    9 2   
    10    6    7 1   
    11    7    8 2   
    12    7   10 1   
    13    8    9 1   
    14    8   26 1   
    15    9   25 1   
    16   10   11 2   
    17   10   14 1   
    18   11   12 1   
    19   11   27 1   
    20   12   13 1   
    21   12   15 1   
    22   13   14 2   
    23   15   16 ar  
    24   15   20 ar  
    25   16   17 ar  
    26   16   28 1   
    27   17   18 ar  
    28   17   29 1   
    29   18   19 ar  
    30   18   30 1   
    31   19   20 ar  
    32   19   21 ar  
    33   20   24 ar  
    34   21   22 ar  
    35   21   31 1   
    36   22   23 ar  
    37   22   33 1   
    38   23   24 ar  
    39   23   34 1   
    40   24   32 1   
@<TRIPOS>SUBSTRUCTURE
     1 9FK         1 TEMP              0 ****  ****    0 ROOT
