@<TRIPOS>MOLECULE
9FK
   36    28     1     0     0
SMALL
bcc


@<TRIPOS>ATOM
      1 O22        -3.5350   -3.5670    5.3980 o         1 9FK     -0.940000
      2 S21        -4.1320   -2.6580    4.4590 ss        1 9FK      2.903000
      3 O23        -4.5920   -3.5670    3.4450 o         1 9FK     -0.940000
      4 N24        -5.3840   -1.8380    5.1360 n2        1 9FK     -0.952000
      5 C19        -2.9340   -1.5230    3.8090 c1        1 9FK     -0.744500
      6 S20        -2.6240   -1.2850    2.3070 ss        1 9FK      0.773000
      7 C16        -1.4350   -0.2900    2.2270 c1        1 9FK     -0.744500
      8 C17        -1.0490    0.0540    3.5820 c1        1 9FK     -0.094000
      9 C18        -2.0020   -0.7300    4.5890 c1        1 9FK     -0.094000
     10 C14        -0.8370    0.2810    0.9580 c1        1 9FK     -0.113000
     11 C15         0.0460   -0.3570    0.1250 c1        1 9FK     -0.113000
     12 N11         0.3120    0.4600   -0.8990 n2        1 9FK     -0.096500
     13 N12        -0.3960    1.6050   -0.7160 n2        1 9FK      0.029000
     14 N13        -1.1030    1.4820    0.4360 n2        1 9FK     -0.096500
     15 C10         1.1910    0.1860   -1.9780 c1        1 9FK      0.053000
     16 C9          0.2720   -0.3300   -2.8820 c2        1 9FK     -0.116000
     17 C8          0.4840   -0.1870   -4.2500 c1        1 9FK     -0.130000
     18 C7          1.6170    0.4720   -4.7120 c1        1 9FK     -0.108500
     19 C4          2.5500    0.9950   -3.7970 c1        1 9FK     -0.036000
     20 C3          2.3390    0.8530   -2.4450 c1        1 9FK     -0.016000
     21 C5          3.7020    1.6540   -4.2640 c1        1 9FK     -0.108500
     22 C6          4.6260    2.1620   -3.3610 c1        1 9FK     -0.118500
     23 C1          4.4130    2.0200   -1.9930 c1        1 9FK     -0.118500
     24 C2          3.2760    1.3690   -1.5300 c1        1 9FK     -0.109000
     25 H18        -1.9650   -0.6840    5.5630 DU        1 9FK      0.185333
     26 H17        -0.3280    0.6620    3.8340 DU        1 9FK      0.185333
     27 H15         0.4160   -1.2510    0.2570 DU        1 9FK      0.185333
     28 H9         -0.5240   -0.7920   -2.5580 ha        1 9FK      0.145000
     29 H8         -0.1620   -0.5490   -4.8850 ha        1 9FK      0.143000
     30 H7          1.7660    0.5710   -5.6710 ha        1 9FK      0.139000
     31 H5          3.8520    1.7550   -5.2240 ha        1 9FK      0.139000
     32 H2          3.1270    1.2690   -0.5710 ha        1 9FK      0.149000
     33 H6          5.4250    2.6200   -3.6850 ha        1 9FK      0.139500
     34 H1          5.0630    2.3770   -1.3580 ha        1 9FK      0.139500
     35 HN1        -5.3980   -1.6900    6.0380 hn        1 9FK      0.241000
     36 HN2        -6.0770   -1.5500    4.6150 hn        1 9FK      0.241000
@<TRIPOS>BOND
     1    1    2 1   
     2    2    3 1   
     3    4   35 1   
     4    4   36 1   
     5    5    6 1   
     6    5    9 1   
     7    6    7 1   
     8    7    8 1   
     9    8    9 1   
    10   10   11 1   
    11   10   14 1   
    12   11   12 1   
    13   12   13 1   
    14   13   14 1   
    15   15   16 1   
    16   15   20 1   
    17   16   17 1   
    18   16   28 1   
    19   17   29 1   
    20   18   19 1   
    21   18   30 1   
    22   19   21 1   
    23   20   24 1   
    24   21   31 1   
    25   22   23 1   
    26   22   33 1   
    27   23   34 1   
    28   24   32 1   
@<TRIPOS>SUBSTRUCTURE
     1 9FK         1 TEMP              0 ****  ****    0 ROOT
