@<TRIPOS>MOLECULE
9FK
   37    40     1     0     0
SMALL
bcc


@<TRIPOS>ATOM
      1 O22         0.3410   -0.1420    0.1300 o         1 9FK     -0.582300
      2 S21         1.6830    0.0090   -0.1310 sy        1 9FK      1.564200
      3 O23         2.6350   -0.5930    0.6630 o         1 9FK     -0.582300
      4 N24         1.7960   -1.2050   -1.6840 nz        1 9FK     -0.777500
      5 C19         2.1110    1.3170   -0.8390 cc        1 9FK     -0.740600
      6 S20         3.5910    2.0910   -0.9340 ss        1 9FK      0.315200
      7 C16         3.0560    3.4080   -1.7490 cc        1 9FK     -0.009600
      8 C17         1.6560    3.3180   -1.9980 cd        1 9FK     -0.160000
      9 C18         1.1280    2.1500   -1.4830 cd        1 9FK     -0.001000
     10 C14         3.8540    4.5030   -2.1580 cc        1 9FK      0.224800
     11 C15         5.2160    4.8090   -1.8770 cd        1 9FK     -0.132600
     12 N11         5.4370    6.0110   -2.5330 na        1 9FK      0.150300
     13 N12         4.2930    6.4110   -3.1700 nd        1 9FK     -0.106800
     14 N13         3.3710    5.5740   -2.9750 nc        1 9FK     -0.303000
     15 C10         6.6690    6.7440   -2.5140 ca        1 9FK     -0.040200
     16 C9          7.0250    7.4250   -1.3570 ca        1 9FK     -0.087000
     17 C8          8.2370    8.1460   -1.3080 ca        1 9FK     -0.138000
     18 C7          9.0650    8.1910   -2.4020 ca        1 9FK     -0.072000
     19 C4          8.7180    7.5150   -3.6020 ca        1 9FK     -0.040000
     20 C3          7.5040    6.7790   -3.6810 ca        1 9FK     -0.009000
     21 C5          9.5740    7.5710   -4.7370 ca        1 9FK     -0.106000
     22 C6          9.2380    6.9280   -5.9010 ca        1 9FK     -0.116000
     23 C1          8.0280    6.1990   -5.9810 ca        1 9FK     -0.099000
     24 C2          7.1830    6.1230   -4.9000 ca        1 9FK     -0.133000
     25 H18         0.0630    1.8790   -1.5240 ha        1 9FK      0.190000
     26 H17         1.0840    4.0920   -2.5260 ha        1 9FK      0.212000
     27 H15         5.9820    4.2930   -1.2960 h4        1 9FK      0.210000
     28 H9          6.3770    7.4250   -0.4660 ha        1 9FK      0.148000
     29 H8          8.4990    8.6760   -0.3790 ha        1 9FK      0.155000
     30 H7         10.0110    8.7570   -2.3690 ha        1 9FK      0.153000
     31 H5         10.5110    8.1460   -4.6600 ha        1 9FK      0.148000
     32 H2          6.2440    5.5590   -4.9940 ha        1 9FK      0.135000
     33 H6          9.8970    6.9740   -6.7820 ha        1 9FK      0.150000
     34 H1          7.7700    5.6950   -6.9260 ha        1 9FK      0.145000
     35 HN1         0.8980   -1.6560   -1.8310 hn        1 9FK      0.444467
     36 HN2         2.0460   -0.7140   -2.5330 hn        1 9FK      0.444467
     37 H243        2.4880   -1.9270   -1.5140 hn        1 9FK      0.444467
@<TRIPOS>BOND
     1    1    2 2   
     2    2    3 2   
     3    2    4 1   
     4    2    5 1   
     5    4   35 1   
     6    4   36 1   
     7    4   37 1   
     8    5    6 1   
     9    5    9 2   
    10    6    7 1   
    11    7    8 2   
    12    7   10 1   
    13    8    9 1   
    14    8   26 1   
    15    9   25 1   
    16   10   11 2   
    17   10   14 1   
    18   11   12 1   
    19   11   27 1   
    20   12   13 1   
    21   12   15 1   
    22   13   14 2   
    23   15   16 ar  
    24   15   20 ar  
    25   16   17 ar  
    26   16   28 1   
    27   17   18 ar  
    28   17   29 1   
    29   18   19 ar  
    30   18   30 1   
    31   19   20 ar  
    32   19   21 ar  
    33   20   24 ar  
    34   21   22 ar  
    35   21   31 1   
    36   22   23 ar  
    37   22   33 1   
    38   23   24 ar  
    39   23   34 1   
    40   24   32 1   
@<TRIPOS>SUBSTRUCTURE
     1 9FK         1 TEMP              0 ****  ****    0 ROOT
