@<TRIPOS>MOLECULE
9FK
   36    39     1     0     0
SMALL
bcc


@<TRIPOS>ATOM
      1 O22        -6.4510   -0.0700   -0.3380 o         1 9FK     -0.660800
      2 S21        -5.4920    0.3160    0.6200 sy        1 9FK      1.564200
      3 O23        -5.4340    1.6830    0.9710 o         1 9FK     -0.660800
      4 N24        -5.7050   -0.5450    1.9560 n3        1 9FK     -1.025700
      5 C19        -3.9860   -0.1590    0.0820 cc        1 9FK     -0.489600
      6 S20        -2.4940    0.4340    0.4690 ss        1 9FK      0.233200
      7 C16        -1.6550   -0.5810   -0.5400 cc        1 9FK     -0.123600
      8 C17        -2.5250   -1.4320   -1.2290 cd        1 9FK     -0.156000
      9 C18        -3.8660   -1.1830   -0.8700 cd        1 9FK     -0.032000
     10 C14        -0.2340   -0.5730   -0.6790 cc        1 9FK      0.320800
     11 C15         0.7020    0.3970   -0.2610 cd        1 9FK     -0.200600
     12 N11         1.9400   -0.1280   -0.6580 na        1 9FK      0.116300
     13 N12         1.7500   -1.3210   -1.2880 nd        1 9FK     -0.140800
     14 N13         0.5180   -1.6070   -1.3100 nc        1 9FK     -0.332000
     15 C10         3.1860    0.5540   -0.5210 ca        1 9FK      0.006800
     16 C9          3.3330    1.8030   -1.1090 ca        1 9FK     -0.116000
     17 C8          4.5490    2.5090   -0.9890 ca        1 9FK     -0.129000
     18 C7          5.6040    1.9650   -0.3010 ca        1 9FK     -0.099000
     19 C4          5.4860    0.6880    0.3100 ca        1 9FK     -0.036000
     20 C3          4.2690   -0.0400    0.2150 ca        1 9FK     -0.016000
     21 C5          6.5820    0.1290    1.0240 ca        1 9FK     -0.119000
     22 C6          6.4730   -1.1000    1.6250 ca        1 9FK     -0.119000
     23 C1          5.2590   -1.8210    1.5420 ca        1 9FK     -0.119000
     24 C2          4.1840   -1.3060    0.8570 ca        1 9FK     -0.110000
     25 H18        -4.7230   -1.7130   -1.3020 ha        1 9FK      0.177000
     26 H17        -2.2090   -2.1880   -1.9520 ha        1 9FK      0.179000
     27 H15         0.5990    1.3490    0.2560 h4        1 9FK      0.200000
     28 H9          2.5110    2.2630   -1.6810 ha        1 9FK      0.147000
     29 H8          4.6340    3.4980   -1.4650 ha        1 9FK      0.144000
     30 H7          6.5580    2.5070   -0.2120 ha        1 9FK      0.141000
     31 H5          7.5190    0.7040    1.0810 ha        1 9FK      0.137000
     32 H2          3.2530   -1.8900    0.8110 ha        1 9FK      0.149000
     33 H6          7.3200   -1.5350    2.1750 ha        1 9FK      0.138000
     34 H1          5.1860   -2.8040    2.0320 ha        1 9FK      0.140000
     35 HN1        -6.0540   -1.4690    1.9620 hn        1 9FK      0.445800
     36 HN2        -5.5160   -0.2000    2.8620 hn        1 9FK      0.445800
@<TRIPOS>BOND
     1    1    2 2   
     2    2    3 2   
     3    2    4 1   
     4    2    5 1   
     5    4   35 1   
     6    4   36 1   
     7    5    6 1   
     8    5    9 2   
     9    6    7 1   
    10    7    8 2   
    11    7   10 1   
    12    8    9 1   
    13    8   26 1   
    14    9   25 1   
    15   10   11 2   
    16   10   14 1   
    17   11   12 1   
    18   11   27 1   
    19   12   13 1   
    20   12   15 1   
    21   13   14 2   
    22   15   16 ar  
    23   15   20 ar  
    24   16   17 ar  
    25   16   28 1   
    26   17   18 ar  
    27   17   29 1   
    28   18   19 ar  
    29   18   30 1   
    30   19   20 ar  
    31   19   21 ar  
    32   20   24 ar  
    33   21   22 ar  
    34   21   31 1   
    35   22   23 ar  
    36   22   33 1   
    37   23   24 ar  
    38   23   34 1   
    39   24   32 1   
@<TRIPOS>SUBSTRUCTURE
     1 9FK         1 TEMP              0 ****  ****    0 ROOT
