@<TRIPOS>MOLECULE
9G4
   48    50     1     0     0
SMALL
bcc


@<TRIPOS>ATOM
      1 Cl          1.8290   -3.0580   -1.8940 cl        1 9G4     -0.016400
      2 C17         2.6680   -1.8090   -1.1310 ca        1 9G4      0.043400
      3 C16         2.0080   -0.9970   -0.1970 ca        1 9G4     -0.107500
      4 C15         2.6950    0.0350    0.4370 ca        1 9G4     -0.110500
      5 C18         4.0200   -1.5930   -1.4350 ca        1 9G4     -0.107500
      6 C19         4.7190   -0.5640   -0.8080 ca        1 9G4     -0.110500
      7 C14         4.0410    0.2400    0.1150 ca        1 9G4      0.018100
      8 O3          4.6980    1.3740    0.6320 os        1 9G4     -0.303200
      9 C11         5.3720    1.2160    1.8190 cc        1 9G4      0.099500
     10 C10         5.3350    0.1040    2.6030 cd        1 9G4     -0.276200
     11 C9          6.0800    0.0510    3.8550 c         1 9G4      0.696700
     12 O1          6.1030   -0.8810    4.6560 o         1 9G4     -0.514500
     13 C12         6.1810    2.3540    2.2480 cc        1 9G4      0.208600
     14 C13         6.3550    3.5830    1.4550 c         1 9G4      0.506800
     15 N3          5.1920    3.9990    0.5890 nz        1 9G4     -0.744400
     16 O2          7.3190    4.3310    1.4100 o         1 9G4     -0.388100
     17 N2          6.8970    2.3110    3.3900 nd        1 9G4     -0.306300
     18 N1          6.8640    1.2640    4.1570 n         1 9G4     -0.086000
     19 C6          7.7040    1.2660    5.3390 ca        1 9G4      0.059600
     20 C5          9.0500    1.6770    5.2600 ca        1 9G4     -0.092000
     21 C4          9.8580    1.6110    6.3920 ca        1 9G4     -0.089000
     22 C7          7.1760    0.8210    6.5670 ca        1 9G4     -0.092000
     23 C8          8.0020    0.7540    7.6870 ca        1 9G4     -0.089000
     24 C3          9.3440    1.1390    7.6050 ca        1 9G4     -0.165300
     25 C2         10.2490    0.9630    8.7780 c3        1 9G4      0.169100
     26 N          10.3170    2.1930    9.6340 ny        1 9G4     -0.694800
     27 C1         11.3980    2.0530   10.7050 c         1 9G4      0.555100
     28 O          12.5080    2.4100   10.3540 o         1 9G4     -0.385100
     29 C          10.9440    1.5220   12.0170 c3        1 9G4     -0.188100
     30 H16         0.9440   -1.1730    0.0370 ha        1 9G4      0.177500
     31 H18         4.5330   -2.2350   -2.1710 ha        1 9G4      0.177500
     32 H15         2.1850    0.6770    1.1690 ha        1 9G4      0.154500
     33 H19         5.7790   -0.3850   -1.0400 ha        1 9G4      0.154500
     34 H10         4.7630   -0.8020    2.3390 ha        1 9G4      0.217000
     35 H31N        5.3390    4.9540    0.2370 hn        1 9G4      0.479800
     36 H32N        4.3190    3.9500    1.1230 hn        1 9G4      0.479800
     37 H5          9.4840    2.0400    4.3120 ha        1 9G4      0.178500
     38 H7          6.1270    0.4870    6.6480 ha        1 9G4      0.178500
     39 H4         10.9160    1.9090    6.3120 ha        1 9G4      0.158500
     40 H8          7.5840    0.3700    8.6330 ha        1 9G4      0.158500
     41 H21C       11.3020    0.7390    8.4300 hx        1 9G4      0.118200
     42 H22C        9.8950    0.1110    9.4300 hx        1 9G4      0.118200
     43 H           9.4080    2.3570   10.0760 hn        1 9G4      0.457800
     44 HC1        10.3480    0.5820   11.9000 hc        1 9G4      0.120367
     45 HC2        11.8510    1.2990   12.6440 hc        1 9G4      0.120367
     46 HC3        10.3260    2.2890   12.5530 hc        1 9G4      0.120367
     47 H33         5.1130    3.3500   -0.2090 hn        1 9G4      0.479800
     48 HN3        10.5370    2.9980    9.0340 hn        1 9G4      0.457800
@<TRIPOS>BOND
     1    1    2 1   
     2    2    3 ar  
     3    2    5 ar  
     4    3    4 ar  
     5    3   30 1   
     6    4    7 ar  
     7    4   32 1   
     8    5    6 ar  
     9    5   31 1   
    10    6    7 ar  
    11    6   33 1   
    12    7    8 1   
    13    8    9 1   
    14    9   10 2   
    15    9   13 1   
    16   10   11 1   
    17   10   34 1   
    18   11   12 2   
    19   11   18 1   
    20   13   14 1   
    21   13   17 2   
    22   14   15 1   
    23   14   16 2   
    24   15   35 1   
    25   15   36 1   
    26   15   47 1   
    27   17   18 1   
    28   18   19 1   
    29   19   20 ar  
    30   19   22 ar  
    31   20   21 ar  
    32   20   37 1   
    33   21   24 ar  
    34   21   39 1   
    35   22   23 ar  
    36   22   38 1   
    37   23   24 ar  
    38   23   40 1   
    39   24   25 1   
    40   25   26 1   
    41   25   41 1   
    42   25   42 1   
    43   26   27 1   
    44   26   43 1   
    45   26   48 1   
    46   27   28 2   
    47   27   29 1   
    48   29   44 1   
    49   29   45 1   
    50   29   46 1   
@<TRIPOS>SUBSTRUCTURE
     1 9G4         1 TEMP              0 ****  ****    0 ROOT
