@<TRIPOS>MOLECULE
9G4
   48    50     1     0     0
SMALL
bcc


@<TRIPOS>ATOM
      1 CL          1.7770   -3.0330   -1.8680 cl        1 9G4     -0.016400
      2 C17         2.6250   -1.7880   -1.1080 ca        1 9G4      0.043400
      3 C16         1.9730   -0.9760   -0.1690 ca        1 9G4     -0.107500
      4 C15         2.6670    0.0530    0.4620 ca        1 9G4     -0.110500
      5 C18         3.9760   -1.5760   -1.4200 ca        1 9G4     -0.107500
      6 C19         4.6820   -0.5500   -0.7960 ca        1 9G4     -0.110500
      7 C14         4.0120    0.2550    0.1320 ca        1 9G4      0.018100
      8 O3          4.6760    1.3860    0.6460 os        1 9G4     -0.303200
      9 C11         5.3560    1.2250    1.8290 cc        1 9G4      0.099500
     10 C10         5.3220    0.1120    2.6120 cd        1 9G4     -0.276200
     11 C9          6.0740    0.0550    3.8590 c         1 9G4      0.696700
     12 O1          6.0990   -0.8780    4.6590 o         1 9G4     -0.514500
     13 C12         6.1720    2.3600    2.2540 cc        1 9G4      0.208600
     14 C13         6.3450    3.5890    1.4620 c         1 9G4      0.506800
     15 N3          5.1780    4.0100    0.6030 n4        1 9G4     -0.744400
     16 O2          7.3110    4.3340    1.4120 o         1 9G4     -0.388100
     17 N2          6.8940    2.3130    3.3920 nd        1 9G4     -0.306300
     18 N1          6.8630    1.2650    4.1580 n         1 9G4     -0.086000
     19 C6          7.7100    1.2640    5.3350 ca        1 9G4      0.059600
     20 C5          9.0570    1.6700    5.2470 ca        1 9G4     -0.092000
     21 C4          9.8710    1.6000    6.3750 ca        1 9G4     -0.089000
     22 C7          7.1890    0.8190    6.5660 ca        1 9G4     -0.092000
     23 C8          8.0210    0.7480    7.6800 ca        1 9G4     -0.089000
     24 C3          9.3640    1.1280    7.5900 ca        1 9G4     -0.165300
     25 C2         10.2760    0.9490    8.7580 c3        1 9G4      0.169100
     26 N          10.3500    2.1760    9.6160 n4        1 9G4     -0.694800
     27 C1         11.4370    2.0320   10.6800 c         1 9G4      0.555100
     28 O          12.5460    2.3870   10.3240 o         1 9G4     -0.385100
     29 C          10.9900    1.4980   11.9940 c3        1 9G4     -0.188100
     30 H16         0.9100   -1.1480    0.0710 ha        1 9G4      0.177500
     31 H18         4.4830   -2.2180   -2.1600 ha        1 9G4      0.177500
     32 H15         2.1640    0.6970    1.1980 ha        1 9G4      0.154500
     33 H19         5.7410   -0.3740   -1.0350 ha        1 9G4      0.154500
     34 H10         4.7450   -0.7920    2.3500 ha        1 9G4      0.217000
     35 H31N        5.3250    4.9640    0.2520 hn        1 9G4      0.479800
     36 H32N        5.0920    3.3620   -0.1950 hn        1 9G4      0.479800
     37 H5          9.4860    2.0330    4.2980 ha        1 9G4      0.178500
     38 H7          6.1390    0.4880    6.6530 ha        1 9G4      0.178500
     39 H4         10.9310    1.8960    6.2880 ha        1 9G4      0.158500
     40 H8          7.6080    0.3640    8.6280 ha        1 9G4      0.158500
     41 H21C       11.3260    0.7230    8.4030 hx        1 9G4      0.118200
     42 H22C        9.9240    0.0960    9.4090 hx        1 9G4      0.118200
     43 H          10.5690    2.9830    9.0170 hn        1 9G4      0.457800
     44 HC1        11.9000    1.2720   12.6150 hc        1 9G4      0.120367
     45 HC2        10.3760    2.2650   12.5350 hc        1 9G4      0.120367
     46 HC3        10.3910    0.5590   11.8780 hc        1 9G4      0.120367
     47 H33         4.3080    3.9620    1.1420 hn        1 9G4      0.479800
     48 HN3         9.4440    2.3410   10.0630 hn        1 9G4      0.457800
@<TRIPOS>BOND
     1    1    2 1   
     2    2    3 ar  
     3    2    5 ar  
     4    3    4 ar  
     5    3   30 1   
     6    4    7 ar  
     7    4   32 1   
     8    5    6 ar  
     9    5   31 1   
    10    6    7 ar  
    11    6   33 1   
    12    7    8 1   
    13    8    9 1   
    14    9   10 2   
    15    9   13 1   
    16   10   11 1   
    17   10   34 1   
    18   11   12 2   
    19   11   18 1   
    20   13   14 1   
    21   13   17 2   
    22   14   15 1   
    23   14   16 2   
    24   15   35 1   
    25   15   36 1   
    26   15   47 1   
    27   17   18 1   
    28   18   19 1   
    29   19   20 ar  
    30   19   22 ar  
    31   20   21 ar  
    32   20   37 1   
    33   21   24 ar  
    34   21   39 1   
    35   22   23 ar  
    36   22   38 1   
    37   23   24 ar  
    38   23   40 1   
    39   24   25 1   
    40   25   26 1   
    41   25   41 1   
    42   25   42 1   
    43   26   27 1   
    44   26   43 1   
    45   26   48 1   
    46   27   28 2   
    47   27   29 1   
    48   29   44 1   
    49   29   45 1   
    50   29   46 1   
@<TRIPOS>SUBSTRUCTURE
     1 9G4         1 TEMP              0 ****  ****    0 ROOT
