@<TRIPOS>MOLECULE
9GP
   32    32     1     0     0
SMALL
bcc


@<TRIPOS>ATOM
      1 O2         -0.2810   -0.0510    0.4240 oh        1 9GP     -0.618800
      2 C2          1.1040   -0.0620    0.1520 c3        1 9GP      0.111100
      3 C3          1.9620   -0.1450    1.4250 c3        1 9GP      0.081100
      4 O3          1.7040   -1.4230    1.9740 oh        1 9GP     -0.592800
      5 C4          3.4510    0.0000    1.0510 c3        1 9GP      0.084100
      6 O4          4.2120    0.1140    2.2390 oh        1 9GP     -0.583800
      7 C5          3.6730    1.3010    0.2620 c3        1 9GP      0.111100
      8 C6          5.0860    1.3740   -0.3330 c3        1 9GP      0.135400
      9 O6          5.3080    2.6400   -0.9060 oh        1 9GP     -0.588800
     10 O5          2.7970    1.3420   -0.8810 os        1 9GP     -0.428600
     11 C1          1.4230    1.2960   -0.5230 c3        1 9GP      0.336300
     12 N1          0.6610    1.4630   -1.8140 n4        1 9GP     -0.680800
     13 C7          0.9940    2.7870   -2.4690 c         1 9GP      0.523100
     14 O7          0.3720    3.7600   -2.0790 o         1 9GP     -0.403100
     15 C9          2.1150    2.7350   -3.5000 c3        1 9GP      0.073400
     16 O9          1.9590    1.6010   -4.3130 oh        1 9GP     -0.589800
     17 HO2        -0.4560   -0.7580    1.0650 ho        1 9GP      0.466000
     18 H2          1.3550   -0.9250   -0.5280 h1        1 9GP      0.087700
     19 H3          1.6680    0.6620    2.1530 h1        1 9GP      0.078700
     20 HO3         2.0610   -1.4230    2.8730 ho        1 9GP      0.437000
     21 H4          3.7740   -0.8860    0.4380 h1        1 9GP      0.079700
     22 HO4         4.4840   -0.7790    2.4920 ho        1 9GP      0.430000
     23 H5          3.4690    2.1930    0.9140 h1        1 9GP      0.079700
     24 H6          5.8180    1.1360    0.4830 h1        1 9GP      0.083200
     25 H6A         5.1900    0.6430   -1.1810 h1        1 9GP      0.083200
     26 HO6         5.5860    3.2400   -0.2020 ho        1 9GP      0.416000
     27 H1          1.1430    2.1620    0.1510 hx        1 9GP      0.119700
     28 HN1         0.9200    0.7070   -2.4630 hn        1 9GP      0.480800
     29 H9          3.0880    2.6040   -2.9340 h1        1 9GP      0.131700
     30 H9A         2.1130    3.7030   -4.0690 h1        1 9GP      0.131700
     31 HO9         1.6440    1.8860   -5.1840 ho        1 9GP      0.447000
     32 H12        -0.3390    1.3970   -1.5820 hn        1 9GP      0.480800
@<TRIPOS>BOND
     1    1    2 1   
     2    1   17 1   
     3    2    3 1   
     4    2   11 1   
     5    2   18 1   
     6    3    4 1   
     7    3    5 1   
     8    3   19 1   
     9    4   20 1   
    10    5    6 1   
    11    5    7 1   
    12    5   21 1   
    13    6   22 1   
    14    7    8 1   
    15    7   10 1   
    16    7   23 1   
    17    8    9 1   
    18    8   24 1   
    19    8   25 1   
    20    9   26 1   
    21   10   11 1   
    22   11   12 1   
    23   11   27 1   
    24   12   13 1   
    25   12   28 1   
    26   12   32 1   
    27   13   14 2   
    28   13   15 1   
    29   15   16 1   
    30   15   29 1   
    31   15   30 1   
    32   16   31 1   
@<TRIPOS>SUBSTRUCTURE
     1 9GP         1 TEMP              0 ****  ****    0 ROOT
