@<TRIPOS>MOLECULE
9GP
   32    32     1     0     0
SMALL
bcc


@<TRIPOS>ATOM
      1 O2         -0.2630   -0.1020    0.6130 oh        1 9GP     -0.616800
      2 C2          1.1090   -0.1210    0.2870 c3        1 9GP      0.112100
      3 C3          2.0190   -0.0420    1.5250 c3        1 9GP      0.080100
      4 O3          1.8170   -1.2590    2.2190 oh        1 9GP     -0.591800
      5 C4          3.4900    0.0960    1.0810 c3        1 9GP      0.085100
      6 O4          4.2880    0.3670    2.2180 oh        1 9GP     -0.582800
      7 C5          3.6440    1.3010    0.1410 c3        1 9GP      0.113100
      8 C6          5.0290    1.3550   -0.5180 c3        1 9GP      0.135400
      9 O6          5.1280    2.5150   -1.3130 oh        1 9GP     -0.595800
     10 O5          2.7290    1.1790   -0.9650 os        1 9GP     -0.435600
     11 C1          1.3700    1.1560   -0.5520 c3        1 9GP      0.333300
     12 N1          0.5610    1.1680   -1.8220 n4        1 9GP     -0.684800
     13 C7          0.8760    2.3950   -2.6610 c         1 9GP      0.507100
     14 O7          0.0830    3.3140   -2.5610 o         1 9GP     -0.402100
     15 C9          2.1450    2.3340   -3.5060 c3        1 9GP      0.088400
     16 O9          2.0180    3.2200   -4.5760 oh        1 9GP     -0.537800
     17 HO2        -0.4000   -0.7370    1.3350 ho        1 9GP      0.467000
     18 H2          1.3530   -1.0510   -0.3000 h1        1 9GP      0.085700
     19 H3          1.7290    0.8330    2.1720 h1        1 9GP      0.079700
     20 HO3         2.1890   -1.1460    3.1050 ho        1 9GP      0.437000
     21 H4          3.8180   -0.8480    0.5640 h1        1 9GP      0.079700
     22 HO4         4.5740   -0.4840    2.5780 ho        1 9GP      0.431000
     23 H5          3.4300    2.2570    0.6940 h1        1 9GP      0.080700
     24 H6          5.8030    1.3140    0.2910 h1        1 9GP      0.083700
     25 H6A         5.1560    0.4940   -1.2290 h1        1 9GP      0.083700
     26 HO6         5.4660    3.2280   -0.7560 ho        1 9GP      0.419000
     27 H1          1.1000    2.0870    0.0330 hx        1 9GP      0.119700
     28 HN1        -0.4320    1.1540   -1.5440 hn        1 9GP      0.471800
     29 H9          3.0210    2.5580   -2.8280 h1        1 9GP      0.122700
     30 H9A         2.2680    1.3160   -3.9710 h1        1 9GP      0.122700
     31 HO9         2.1710    4.1220   -4.2590 ho        1 9GP      0.438000
     32 H12         0.7710    0.3250   -2.3650 hn        1 9GP      0.471800
@<TRIPOS>BOND
     1    1    2 1   
     2    1   17 1   
     3    2    3 1   
     4    2   11 1   
     5    2   18 1   
     6    3    4 1   
     7    3    5 1   
     8    3   19 1   
     9    4   20 1   
    10    5    6 1   
    11    5    7 1   
    12    5   21 1   
    13    6   22 1   
    14    7    8 1   
    15    7   10 1   
    16    7   23 1   
    17    8    9 1   
    18    8   24 1   
    19    8   25 1   
    20    9   26 1   
    21   10   11 1   
    22   11   12 1   
    23   11   27 1   
    24   12   13 1   
    25   12   28 1   
    26   12   32 1   
    27   13   14 2   
    28   13   15 1   
    29   15   16 1   
    30   15   29 1   
    31   15   30 1   
    32   16   31 1   
@<TRIPOS>SUBSTRUCTURE
     1 9GP         1 TEMP              0 ****  ****    0 ROOT
