@<TRIPOS>MOLECULE
9GP
   31    31     1     0     0
SMALL
bcc


@<TRIPOS>ATOM
      1 O2         -2.9600   -1.1650   -0.0710 oh        1 9GP     -0.578800
      2 C2         -1.4300   -1.1650   -0.0710 c3        1 9GP      0.095100
      3 C3         -0.9880   -1.1650    1.2650 c3        1 9GP      0.103100
      4 O3          0.4920   -1.4120    1.2780 oh        1 9GP     -0.608800
      5 C4         -1.2610    0.1140    1.9830 c3        1 9GP      0.114100
      6 O4         -2.6460    0.2590    2.1210 oh        1 9GP     -0.603800
      7 C5         -0.6820    1.4220    1.2480 c3        1 9GP      0.106100
      8 C6          0.6350    1.4200    1.2520 c3        1 9GP      0.100400
      9 O6          1.1030    2.3260    2.2290 oh        1 9GP     -0.605800
     10 O5         -1.2430    1.2680   -0.2210 os        1 9GP     -0.410600
     11 C1         -0.9750   -0.0330   -0.8520 c3        1 9GP      0.260500
     12 N1          0.4570   -0.1590   -1.0600 n         1 9GP     -0.586900
     13 C7          1.0090    0.0270   -2.3710 c         1 9GP      0.627100
     14 O7          0.2760    0.2920   -3.3070 o         1 9GP     -0.602100
     15 C9          2.4970   -0.1820   -2.6060 c3        1 9GP      0.066400
     16 O9          2.7630   -0.1500   -3.9900 oh        1 9GP     -0.587800
     17 HO2        -3.2560   -1.8460   -0.5570 ho        1 9GP      0.429000
     18 H2         -1.1180   -1.9840   -0.5010 h1        1 9GP      0.088700
     19 H3         -1.4310   -1.8930    1.7410 h1        1 9GP      0.078700
     20 HO3         0.6640   -2.1580    1.7270 ho        1 9GP      0.415000
     21 H4         -0.8650    0.0600    2.8740 h1        1 9GP      0.075700
     22 HO4        -2.8470    0.3870    2.9760 ho        1 9GP      0.418000
     23 H5         -1.0280    2.2330    1.6650 h1        1 9GP      0.095700
     24 H6          0.9640    1.6910    0.3740 h1        1 9GP      0.042200
     25 H6A         0.9590    0.5230    1.4580 h1        1 9GP      0.042200
     26 HO6         1.9390    2.5570    2.0430 ho        1 9GP      0.408000
     27 H1         -1.4190   -0.0550   -1.7200 h2        1 9GP      0.136700
     28 HN1         0.9970   -0.4140   -0.3710 hn        1 9GP      0.322500
     29 H9          2.7650   -1.0480   -2.2440 h1        1 9GP      0.063700
     30 H9A         3.0000    0.5260   -2.1610 h1        1 9GP      0.063700
     31 HO9         3.6310   -0.2760   -4.1280 ho        1 9GP      0.431000
@<TRIPOS>BOND
     1    1    2 1   
     2    1   17 1   
     3    2    3 1   
     4    2   11 1   
     5    2   18 1   
     6    3    4 1   
     7    3    5 1   
     8    3   19 1   
     9    4   20 1   
    10    5    6 1   
    11    5    7 1   
    12    5   21 1   
    13    6   22 1   
    14    7    8 1   
    15    7   10 1   
    16    7   23 1   
    17    8    9 1   
    18    8   24 1   
    19    8   25 1   
    20    9   26 1   
    21   10   11 1   
    22   11   12 1   
    23   11   27 1   
    24   12   13 1   
    25   12   28 1   
    26   13   14 2   
    27   13   15 1   
    28   15   16 1   
    29   15   29 1   
    30   15   30 1   
    31   16   31 1   
@<TRIPOS>SUBSTRUCTURE
     1 9GP         1 TEMP              0 ****  ****    0 ROOT
