@<TRIPOS>MOLECULE
9GP
   31    31     1     0     0
SMALL
bcc


@<TRIPOS>ATOM
      1 O2         -0.0070    2.7930    0.3030 oh        1 9GP     -0.600800
      2 C2         -0.5200    1.6210   -0.3030 c3        1 9GP      0.085100
      3 C3         -1.8920    1.3870    0.3500 c3        1 9GP      0.109100
      4 O3         -2.8050    2.4040   -0.0250 oh        1 9GP     -0.607800
      5 C4         -2.4930    0.0600   -0.1410 c3        1 9GP      0.118100
      6 O4         -3.6770   -0.2440    0.5730 oh        1 9GP     -0.593800
      7 C5         -1.4900   -1.0780    0.1210 c3        1 9GP      0.149100
      8 C6         -1.9970   -2.3960   -0.4700 c3        1 9GP      0.135400
      9 O6         -1.4030   -3.4380    0.2860 oh        1 9GP     -0.594800
     10 O5         -0.2660   -0.7830   -0.5530 os        1 9GP     -0.441600
     11 C1          0.3870    0.3900   -0.0250 c3        1 9GP      0.247500
     12 N1          1.6660    0.4850   -0.6930 n         1 9GP     -0.540900
     13 C7          2.8340    0.1340   -0.0200 c         1 9GP      0.613100
     14 O7          2.8890    0.0520    1.2210 o         1 9GP     -0.584100
     15 C9          4.1050   -0.0300   -0.8500 c3        1 9GP      0.066400
     16 O9          5.0880   -0.7380   -0.1350 oh        1 9GP     -0.584800
     17 HO2         0.8730    2.9470   -0.0600 ho        1 9GP      0.421000
     18 H2         -0.6450    1.7810   -1.4090 h1        1 9GP      0.059700
     19 H3         -1.7810    1.3740    1.4710 h1        1 9GP      0.068700
     20 HO3        -2.4080    3.2440    0.2420 ho        1 9GP      0.428000
     21 H4         -2.7200    0.1360   -1.2410 h1        1 9GP      0.058700
     22 HO4        -4.2460    0.5350    0.5010 ho        1 9GP      0.425000
     23 H5         -1.3080   -1.1940    1.2250 h1        1 9GP      0.084700
     24 H6         -3.1150   -2.4350   -0.3650 h1        1 9GP      0.046700
     25 H6A        -1.7050   -2.4760   -1.5500 h1        1 9GP      0.046700
     26 HO6        -1.6400   -4.2630   -0.1510 ho        1 9GP      0.404000
     27 H1          0.5430    0.2790    1.0900 h2        1 9GP      0.104700
     28 HN1         1.6380    0.2790   -1.6680 hn        1 9GP      0.308500
     29 H9          3.9240   -0.6340   -1.7790 h1        1 9GP      0.068200
     30 H9A         4.4860    0.9920   -1.1240 h1        1 9GP      0.068200
     31 HO9         5.0640   -0.4410    0.7880 ho        1 9GP      0.429000
@<TRIPOS>BOND
     1    1    2 1   
     2    1   17 1   
     3    2    3 1   
     4    2   11 1   
     5    2   18 1   
     6    3    4 1   
     7    3    5 1   
     8    3   19 1   
     9    4   20 1   
    10    5    6 1   
    11    5    7 1   
    12    5   21 1   
    13    6   22 1   
    14    7    8 1   
    15    7   10 1   
    16    7   23 1   
    17    8    9 1   
    18    8   24 1   
    19    8   25 1   
    20    9   26 1   
    21   10   11 1   
    22   11   12 1   
    23   11   27 1   
    24   12   13 1   
    25   12   28 1   
    26   13   14 2   
    27   13   15 1   
    28   15   16 1   
    29   15   29 1   
    30   15   30 1   
    31   16   31 1   
@<TRIPOS>SUBSTRUCTURE
     1 9GP         1 TEMP              0 ****  ****    0 ROOT
