@<TRIPOS>MOLECULE
9GP
   32    32     1     0     0
SMALL
bcc


@<TRIPOS>ATOM
      1 O2         -0.1350   -0.3020    0.4320 oh        1 9GP     -0.613800
      2 C2          1.2570   -0.2560    0.2110 c3        1 9GP      0.076100
      3 C3          2.0720   -0.0320    1.4960 c3        1 9GP      0.065100
      4 O3          1.8690   -1.1000    2.3900 oh        1 9GP     -0.568800
      5 C4          3.5620    0.1610    1.1540 c3        1 9GP      0.091100
      6 O4          4.2730    0.6090    2.2910 oh        1 9GP     -0.575800
      7 C5          3.7410    1.2550    0.0890 c3        1 9GP      0.115100
      8 C6          5.1680    1.2780   -0.4770 c3        1 9GP      0.136400
      9 O6          5.2950    2.3320   -1.4030 oh        1 9GP     -0.589800
     10 O5          2.9050    0.9760   -1.0500 os        1 9GP     -0.432600
     11 C1          1.5240    0.9570   -0.7180 c3        1 9GP      0.333300
     12 N1          0.7940    0.8380   -2.0300 ny        1 9GP     -0.683800
     13 C7          0.7340    2.1600   -2.7660 c         1 9GP      0.496100
     14 O7         -0.3710    2.6720   -2.8260 o         1 9GP     -0.401100
     15 C9          2.0350    2.7060   -3.3490 c3        1 9GP      0.080400
     16 O9          1.9850    4.1000   -3.3140 oh        1 9GP     -0.538800
     17 HO2        -0.2870   -0.6610    1.3210 ho        1 9GP      0.466000
     18 H2          1.5810   -1.2130   -0.2890 h1        1 9GP      0.074700
     19 H3          1.6820    0.8690    2.0560 h1        1 9GP      0.119700
     20 HO3         2.2880   -1.8920    2.0240 ho        1 9GP      0.419000
     21 H4          3.9950   -0.8120    0.7870 h1        1 9GP      0.062700
     22 HO4         4.0730   -0.0040    3.0140 ho        1 9GP      0.439000
     23 H5          3.4660    2.2600    0.5130 h1        1 9GP      0.082700
     24 H6          5.3700    0.3410   -1.0630 h1        1 9GP      0.085700
     25 H6A         5.8810    1.3640    0.3840 h1        1 9GP      0.085700
     26 HO6         5.5270    3.1320   -0.9140 ho        1 9GP      0.419000
     27 H1          1.1970    1.9210   -0.2260 hx        1 9GP      0.120700
     28 HN1         1.2760    0.1480   -2.6180 hn        1 9GP      0.474300
     29 H9          2.9310    2.4220   -2.7170 h1        1 9GP      0.125200
     30 H9A         2.1370    2.2920   -4.3890 h1        1 9GP      0.125200
     31 HO9         1.4010    4.4150   -4.0210 ho        1 9GP      0.437000
     32 H12        -0.1600    0.5030   -1.8170 hn        1 9GP      0.474300
@<TRIPOS>BOND
     1    1    2 1   
     2    1   17 1   
     3    2    3 1   
     4    2   11 1   
     5    2   18 1   
     6    3    4 1   
     7    3    5 1   
     8    3   19 1   
     9    4   20 1   
    10    5    6 1   
    11    5    7 1   
    12    5   21 1   
    13    6   22 1   
    14    7    8 1   
    15    7   10 1   
    16    7   23 1   
    17    8    9 1   
    18    8   24 1   
    19    8   25 1   
    20    9   26 1   
    21   10   11 1   
    22   11   12 1   
    23   11   27 1   
    24   12   13 1   
    25   12   28 1   
    26   12   32 1   
    27   13   14 2   
    28   13   15 1   
    29   15   16 1   
    30   15   29 1   
    31   15   30 1   
    32   16   31 1   
@<TRIPOS>SUBSTRUCTURE
     1 9GP         1 TEMP              0 ****  ****    0 ROOT
