@<TRIPOS>MOLECULE
9HI
   80    73     1     0     0
SMALL
bcc


@<TRIPOS>ATOM
      1 N1          0.0410    0.6950   -1.0510 n2        1 9HI     -0.094000
      2 N3          0.0100   -1.3720   10.0280 n         1 9HI     -0.438000
      3 C5          1.4010    0.8320   -1.0530 c2        1 9HI     -0.014000
      4 C6         -1.8800    0.4830    0.3640 c3        1 9HI     -0.067000
      5 C7         -0.7710    0.9580   -2.2190 c2        1 9HI     -0.049000
      6 C8         -1.1320   -0.3650   -2.8980 c3        1 9HI     -0.182000
      7 C10        -2.3870   -1.4040   -4.7690 c3        1 9HI     -0.201000
      8 C13        -2.3790    1.6300    1.2270 c3        1 9HI     -0.222000
      9 C15         3.2270    2.8190   -3.5440 c1        1 9HI     -0.125500
     10 C17         0.9100   -1.1440    5.8200 c1        1 9HI     -0.202000
     11 C20         0.6070   -1.2320    7.1730 c1        1 9HI     -0.064000
     12 C21         2.8920    0.1620   -2.8140 c1        1 9HI     -0.081000
     13 C22         5.2070    1.8940    1.2080 c1        1 9HI     -0.125500
     14 C24         3.7670    0.4960   -3.8330 c1        1 9HI     -0.168500
     15 C26        -1.3890   -0.6270    5.3380 c1        1 9HI     -0.197000
     16 C28         5.7930    0.6880    1.5590 c1        1 9HI      0.095500
     17 O5         -2.1570   -0.8860    9.4750 o         1 9HI     -0.385000
     18 C3         -1.0130   -1.0740    9.0910 c2        1 9HI      0.352000
     19 C29        -0.6910   -1.0180    7.6080 c2        1 9HI     -0.167000
     20 C23        -1.6910   -0.7150    6.6900 c2        1 9HI     -0.044000
     21 C32        -0.0910   -0.8410    4.9030 c1        1 9HI      0.141000
     22 N2         -0.1260   -0.5780    3.4820 n3        1 9HI     -0.809000
     23 S1          0.7350    0.6880    2.8540 s4        1 9HI      2.122800
     24 O1          0.2220    1.9490    3.3170 o         1 9HI     -0.559900
     25 O2          2.0730    0.7200    3.3810 o         1 9HI     -0.559900
     26 C2          0.7440    0.6060    1.0590 c1        1 9HI     -0.937000
     27 C1          1.8380    0.7770    0.2580 c2        1 9HI     -0.027000
     28 C31         3.1650    0.7460    0.6750 c1        1 9HI     -0.072000
     29 C25         3.8920    1.9230    0.7650 c1        1 9HI     -0.125500
     30 C16         3.7510   -0.4590    1.0260 c1        1 9HI     -0.092000
     31 C19         5.0660   -0.4890    1.4680 c1        1 9HI     -0.168500
     32 F2          7.0660    0.5510    1.9690 f         1 9HI     -0.108500
     33 C12        -0.3710    0.5550    0.2490 c2        1 9HI      0.124000
     34 C14        -2.2770   -0.8360    0.9990 c3        1 9HI     -0.222000
     35 C27         2.1840    1.1540   -2.1580 c1        1 9HI     -0.054000
     36 C30         3.9350    1.8280   -4.1990 c1        1 9HI      0.095500
     37 C18         2.3520    2.4870   -2.5250 c1        1 9HI     -0.125500
     38 F1          4.8270    2.1560   -5.1490 f         1 9HI     -0.108500
     39 C9         -1.9810   -0.0890   -4.1300 c3        1 9HI      0.045000
     40 O4         -1.2420    0.6660   -5.0470 oh        1 9HI     -0.373000
     41 C11        -3.5180   -1.1620   -5.7520 c3        1 9HI      0.062000
     42 O3         -3.0060   -0.5740   -6.9200 oh        1 9HI     -0.406000
     43 C35        -4.1780   -2.4810   -6.1000 c3        1 9HI     -0.266000
     44 C36        -5.2670   -2.2460   -7.1280 c2        1 9HI      0.330000
     45 O6         -6.4600   -2.0940   -6.7560 o         1 9HI     -0.577000
     46 O7         -4.9870   -2.2680   -8.3590 o         1 9HI     -0.577000
     47 HN3         0.7580   -1.8160    9.7590 hn        1 9HI      0.223000
     48 HN3A       -0.1010   -1.1570   10.9120 hn        1 9HI      0.223000
     49 H6         -2.2780    0.5480   -0.5270 hc        1 9HI      0.100000
     50 H7         -1.5920    1.4220   -1.9480 ha        1 9HI      0.123000
     51 H7A        -0.2690    1.5220   -2.8460 ha        1 9HI      0.123000
     52 H8         -1.6380   -0.9260   -2.2720 hc        1 9HI      0.097000
     53 H8A        -0.3120   -0.8300   -3.1640 hc        1 9HI      0.097000
     54 H10        -2.6860   -2.0250   -4.0750 hc        1 9HI      0.092500
     55 H10A       -1.6200   -1.7880   -5.2420 hc        1 9HI      0.092500
     56 H13        -1.7770    2.4000    1.1290 hc        1 9HI      0.092333
     57 H13A       -3.2840    1.8840    0.9430 hc        1 9HI      0.092333
     58 H13B       -2.3980    1.3480    2.1660 hc        1 9HI      0.092333
     59 H15         3.3450    3.7560   -3.8010 ha        1 9HI      0.155250
     60 H17         1.8250   -1.2940    5.5130 ha        1 9HI      0.168000
     61 H20         1.3120   -1.4450    7.8190 ha        1 9HI      0.132000
     62 H21         2.7740   -0.7730   -2.5570 ha        1 9HI      0.168000
     63 H22         5.7150    2.7160    1.2710 ha        1 9HI      0.155250
     64 H24         4.2540   -0.2020   -4.3030 ha        1 9HI      0.154500
     65 H26        -2.0880   -0.4150    4.6970 ha        1 9HI      0.138000
     66 H23        -2.6050   -0.5650    6.9960 ha        1 9HI      0.154000
     67 HN2        -0.6500   -1.0880    2.9370 hn        1 9HI      0.249000
     68 H25         3.4770    2.7760    0.5170 ha        1 9HI      0.155250
     69 H16         3.2410   -1.2860    0.9620 ha        1 9HI      0.146000
     70 H19         5.4800   -1.3410    1.7160 ha        1 9HI      0.154500
     71 H14        -1.4870   -1.4070    1.0880 hc        1 9HI      0.092333
     72 H14A       -2.6600   -0.6680    1.8850 hc        1 9HI      0.092333
     73 H14B       -2.9440   -1.2850    0.4330 hc        1 9HI      0.092333
     74 H18         1.8540    3.1860   -2.0630 ha        1 9HI      0.155250
     75 H9         -2.7820    0.4070   -3.8700 h1        1 9HI      0.076000
     76 HO4        -1.7090    1.3790   -5.2870 ho        1 9HI      0.249000
     77 H11        -4.1790   -0.5630   -5.3480 h1        1 9HI      0.069000
     78 HO3        -3.6110   -0.0100   -7.2600 ho        1 9HI      0.270000
     79 H35        -4.5690   -2.8720   -5.2940 hc        1 9HI      0.077500
     80 H35A       -3.5100   -3.0930   -6.4670 hc        1 9HI      0.077500
@<TRIPOS>BOND
     1    1    3 1   
     2    1   33 1   
     3    2   18 1   
     4    2   47 1   
     5    2   48 1   
     6    3   27 1   
     7    3   35 1   
     8    4    8 1   
     9    4   33 1   
    10    4   34 1   
    11    4   49 1   
    12    5    6 1   
    13    5   50 1   
    14    5   51 1   
    15    6   39 1   
    16    6   52 1   
    17    6   53 1   
    18    7   39 1   
    19    7   41 1   
    20    7   54 1   
    21    7   55 1   
    22    8   56 1   
    23    8   57 1   
    24    8   58 1   
    25    9   37 1   
    26    9   59 1   
    27   10   21 1   
    28   10   60 1   
    29   11   19 1   
    30   11   61 1   
    31   12   35 1   
    32   12   62 1   
    33   13   29 1   
    34   13   63 1   
    35   14   36 1   
    36   14   64 1   
    37   15   20 1   
    38   15   65 1   
    39   16   31 1   
    40   16   32 1   
    41   17   18 1   
    42   18   19 1   
    43   19   20 1   
    44   20   66 1   
    45   21   22 1   
    46   22   23 1   
    47   22   67 1   
    48   23   24 1   
    49   23   25 1   
    50   26   27 1   
    51   26   33 1   
    52   27   28 1   
    53   28   30 1   
    54   29   68 1   
    55   30   69 1   
    56   31   70 1   
    57   34   71 1   
    58   34   72 1   
    59   34   73 1   
    60   36   38 1   
    61   37   74 1   
    62   39   40 1   
    63   39   75 1   
    64   40   76 1   
    65   41   42 1   
    66   41   43 1   
    67   41   77 1   
    68   42   78 1   
    69   43   44 1   
    70   43   79 1   
    71   43   80 1   
    72   44   45 1   
    73   44   46 1   
@<TRIPOS>SUBSTRUCTURE
     1 9HI         1 TEMP              0 ****  ****    0 ROOT
