@<TRIPOS>MOLECULE
9HI
   80    83     1     0     0
SMALL
bcc


@<TRIPOS>ATOM
      1 N1         -0.7890    0.1850    0.1650 na        1 9HI     -0.024100
      2 N3          6.4710    3.5180   -4.0910 n         1 9HI     -0.677000
      3 C5         -0.0750   -0.9680   -0.2070 cc        1 9HI     -0.057300
      4 C6         -0.5300    2.2220    1.6170 c3        1 9HI     -0.022400
      5 C7         -2.1390    0.4780   -0.2640 c3        1 9HI      0.015300
      6 C8         -3.2280    0.1450    0.7540 c3        1 9HI     -0.098400
      7 C10        -5.6980    0.2270    1.1770 c3        1 9HI     -0.122400
      8 C13         0.1780    3.4360    1.0480 c3        1 9HI     -0.102600
      9 C15        -1.4180   -4.2620   -1.4080 ca        1 9HI     -0.167000
     10 C17         4.1530    2.7560    0.0820 ca        1 9HI     -0.200000
     11 C20         4.7530    3.5780   -0.8630 ca        1 9HI     -0.057000
     12 C21        -0.7980   -1.7380   -2.4520 ca        1 9HI     -0.080500
     13 C22         3.5900   -3.3090   -1.1900 ca        1 9HI     -0.173000
     14 C24        -1.2840   -2.7260   -3.3010 ca        1 9HI     -0.167000
     15 C26         5.3020    0.8480   -0.8890 ca        1 9HI     -0.200000
     16 C28         4.1240   -3.9570   -0.0610 ca        1 9HI      0.121900
     17 O5          6.5040    5.1670   -2.5350 o         1 9HI     -0.617100
     18 C29         5.6130    3.0530   -1.8340 ca        1 9HI     -0.187600
     19 C23         5.8900    1.6830   -1.8300 ca        1 9HI     -0.057000
     20 C32         4.4090    1.3640    0.0840 ca        1 9HI      0.224600
     21 S1          2.5750    0.7370    2.0650 sy        1 9HI      1.560200
     22 O1          2.7720   -0.1830    3.1200 o         1 9HI     -0.664800
     23 O2          2.5350    2.0870    2.4670 o         1 9HI     -0.664800
     24 C2          1.2550    0.3080    1.1860 cd        1 9HI     -0.497500
     25 C1          1.1820   -0.9200    0.4090 cd        1 9HI     -0.010000
     26 C31         2.2060   -1.9380    0.2630 ca        1 9HI     -0.055000
     27 C25         2.6380   -2.3110   -1.0200 ca        1 9HI     -0.094500
     28 C16         2.7440   -2.5910    1.3830 ca        1 9HI     -0.094500
     29 C19         3.6970   -3.5930    1.2290 ca        1 9HI     -0.173000
     30 C12        -0.0070    0.9490    1.0170 cc        1 9HI      0.089400
     31 C14        -0.4700    2.1920    3.1310 c3        1 9HI     -0.102600
     32 C27        -0.6120   -1.9980   -1.0880 ca        1 9HI     -0.043000
     33 C30        -1.5940   -3.9960   -2.7790 ca        1 9HI      0.136900
     34 C18        -0.9320   -3.2610   -0.5730 ca        1 9HI     -0.080500
     35 F1         -2.0620   -4.9660   -3.5990 f         1 9HI     -0.140900
     36 C9         -4.5810    0.6120    0.2150 c3        1 9HI      0.157100
     37 O4         -4.7400    0.0160   -1.0650 oh        1 9HI     -0.640800
     38 C11        -6.9780    1.0230    0.9180 c3        1 9HI      0.173100
     39 O3         -7.4630    0.6190   -0.3560 oh        1 9HI     -0.678800
     40 C35        -8.0010    0.7850    2.0150 c3        1 9HI     -0.237400
     41 C36        -9.2080    1.7290    1.8690 c         1 9HI      0.910600
     42 O6         -9.6270    1.9800    0.6970 o         1 9HI     -0.842800
     43 O7         -9.7250    2.1980    2.9180 o         1 9HI     -0.842800
     44 HN3         6.8210    4.1420   -4.7730 hn        1 9HI      0.308000
     45 HN3A        6.1530    2.6290   -4.3760 hn        1 9HI      0.308000
     46 H6         -1.6260    2.3290    1.3490 hc        1 9HI      0.064700
     47 H7         -2.1950    1.5730   -0.5280 h1        1 9HI      0.083200
     48 H7A        -2.3450   -0.1130   -1.2050 h1        1 9HI      0.083200
     49 H8         -3.2610   -0.9600    0.9320 hc        1 9HI      0.056700
     50 H8A        -3.0340    0.6520    1.7340 hc        1 9HI      0.056700
     51 H10        -5.9170   -0.8670    1.0690 hc        1 9HI      0.052700
     52 H10A       -5.3680    0.4210    2.2290 hc        1 9HI      0.052700
     53 H13         0.1460    3.4180   -0.0670 hc        1 9HI      0.052033
     54 H13A       -0.3360    4.3610    1.4060 hc        1 9HI      0.052033
     55 H13B        1.2440    3.4780    1.3820 hc        1 9HI      0.052033
     56 H15        -1.6730   -5.2540   -1.0080 ha        1 9HI      0.150500
     57 H17         3.4900    3.2110    0.8390 ha        1 9HI      0.156000
     58 H20         4.5630    4.6650   -0.8450 ha        1 9HI      0.142500
     59 H21        -0.5590   -0.7420   -2.8570 ha        1 9HI      0.146500
     60 H22         3.9240   -3.6020   -2.1960 ha        1 9HI      0.150000
     61 H24        -1.4380   -2.5250   -4.3700 ha        1 9HI      0.150500
     62 H26         5.5420   -0.2270   -0.9050 ha        1 9HI      0.156000
     63 H23         6.5900    1.2490   -2.5600 ha        1 9HI      0.142500
     64 HN2         4.2020   -0.4260    0.9620 hn        1 9HI      0.449800
     65 H25         2.2070   -1.8110   -1.9010 ha        1 9HI      0.164000
     66 H16         2.4130   -2.3060    2.3990 ha        1 9HI      0.164000
     67 H19         4.1160   -4.1040    2.1080 ha        1 9HI      0.150000
     68 H14         0.5840    2.2330    3.5010 hc        1 9HI      0.052033
     69 H14A       -1.0120    3.0810    3.5360 hc        1 9HI      0.052033
     70 H14B       -0.9590    1.2680    3.5230 hc        1 9HI      0.052033
     71 H18        -0.7980   -3.4640    0.5010 ha        1 9HI      0.146500
     72 H9         -4.5650    1.7330    0.0810 h1        1 9HI      0.033700
     73 HO4        -5.6820    0.0640   -1.2890 ho        1 9HI      0.448000
     74 H11        -6.7340    2.1240    0.8700 h1        1 9HI      0.029700
     75 HO3        -8.3630    0.9880   -0.4420 ho        1 9HI      0.470000
     76 H35        -8.3770   -0.2660    1.9590 hc        1 9HI      0.038200
     77 H35A       -7.5310    0.9430    3.0160 hc        1 9HI      0.038200
     78 N2          3.8270    0.5000    1.0120 nh        1 9HI     -0.754500
     79 F2          5.0520   -4.9310   -0.2170 f         1 9HI     -0.143900
     80 C3          6.2200    3.9840   -2.8200 c         1 9HI      0.676700
@<TRIPOS>BOND
     1    1    3 1   
     2    1    5 1   
     3    1   30 1   
     4    2   44 1   
     5    2   45 1   
     6    2   80 1   
     7    3   25 2   
     8    3   32 1   
     9    4    8 1   
    10    4   30 1   
    11    4   31 1   
    12    4   46 1   
    13    5    6 1   
    14    5   47 1   
    15    5   48 1   
    16    6   36 1   
    17    6   49 1   
    18    6   50 1   
    19    7   36 1   
    20    7   38 1   
    21    7   51 1   
    22    7   52 1   
    23    8   53 1   
    24    8   54 1   
    25    8   55 1   
    26    9   33 ar  
    27    9   34 ar  
    28    9   56 1   
    29   10   11 ar  
    30   10   20 ar  
    31   10   57 1   
    32   11   18 ar  
    33   11   58 1   
    34   12   14 ar  
    35   12   32 ar  
    36   12   59 1   
    37   13   16 ar  
    38   13   27 ar  
    39   13   60 1   
    40   14   33 ar  
    41   14   61 1   
    42   15   19 ar  
    43   15   20 ar  
    44   15   62 1   
    45   16   29 ar  
    46   16   79 1   
    47   17   80 2   
    48   18   19 ar  
    49   18   80 1   
    50   19   63 1   
    51   20   78 1   
    52   21   22 2   
    53   21   23 2   
    54   21   24 1   
    55   21   78 1   
    56   24   25 1   
    57   24   30 2   
    58   25   26 1   
    59   26   27 ar  
    60   26   28 ar  
    61   27   65 1   
    62   28   29 ar  
    63   28   66 1   
    64   29   67 1   
    65   31   68 1   
    66   31   69 1   
    67   31   70 1   
    68   32   34 ar  
    69   33   35 1   
    70   34   71 1   
    71   36   37 1   
    72   36   72 1   
    73   37   73 1   
    74   38   39 1   
    75   38   40 1   
    76   38   74 1   
    77   39   75 1   
    78   40   41 1   
    79   40   76 1   
    80   40   77 1   
    81   41   42 1   
    82   41   43 1   
    83   64   78 1   
@<TRIPOS>SUBSTRUCTURE
     1 9HI         1 TEMP              0 ****  ****    0 ROOT
