@<TRIPOS>MOLECULE
9HL
   46    49     1     0     0
SMALL
bcc


@<TRIPOS>ATOM
      1 N01         0.4010   -2.1590    0.2310 nc        1 9HL     -0.638000
      2 C02         1.6310   -1.6420    0.2150 cd        1 9HL      0.427400
      3 N03         1.8430   -0.7920    1.3380 na        1 9HL     -0.269700
      4 C04         0.6370   -0.8050    2.0790 cd        1 9HL     -0.200600
      5 C05        -0.2300   -1.6490    1.3820 cc        1 9HL      0.310200
      6 C1'         9.5370   -3.6860   -5.3090 ca        1 9HL     -0.065300
      7 N11         4.0950   -0.2240    0.7980 nb        1 9HL     -0.763000
      8 C12         3.0120   -0.0800    1.6500 ca        1 9HL      0.786500
      9 N13         3.0030    0.7190    2.7900 nb        1 9HL     -0.690000
     10 C14         4.1330    1.3820    3.0570 ca        1 9HL      0.481200
     11 C15         5.2900    1.3000    2.2510 ca        1 9HL     -0.384600
     12 C16         5.2120    0.4710    1.1190 ca        1 9HL      0.452600
     13 C17         6.4220    0.3860    0.2290 c3        1 9HL     -0.156700
     14 C18         6.3430   -0.7850   -0.7450 c3        1 9HL      0.110800
     15 N19         7.5730   -0.9110   -1.5820 ny        1 9HL     -0.767000
     16 C2'         9.0830   -4.7830   -6.0500 ca        1 9HL     -0.151000
     17 C20         7.4900   -2.0770   -2.5220 c3        1 9HL      0.147800
     18 C21         8.7140   -2.1750   -3.3790 cx        1 9HL     -0.219700
     19 C22         8.8710   -1.2830   -4.5830 cx        1 9HL     -0.116400
     20 C23         8.5460   -2.7360   -4.7840 cx        1 9HL     -0.002400
     21 C3'        10.0110   -5.7050   -6.5680 ca        1 9HL      0.141900
     22 C4'        11.3900   -5.5300   -6.3450 ca        1 9HL     -0.143000
     23 C5'        11.8240   -4.4340   -5.6060 ca        1 9HL     -0.095000
     24 C6'        10.9100   -3.5170   -5.0890 ca        1 9HL     -0.141000
     25 F7'         9.5710   -6.7640   -7.2840 f         1 9HL     -0.123900
     26 H02         2.4020   -1.8200   -0.5410 h5        1 9HL      0.066100
     27 H04         0.5100   -0.2340    2.9990 h4        1 9HL      0.207000
     28 H05        -1.2570   -1.9240    1.6260 h4        1 9HL      0.063100
     29 H14         4.1140    2.0150    3.9670 h4        1 9HL      0.056100
     30 H15         6.1980    1.8600    2.5040 ha        1 9HL      0.167000
     31 H17         6.5000    1.3570   -0.3330 hc        1 9HL      0.080700
     32 H17A        7.3280    0.2900    0.8870 hc        1 9HL      0.080700
     33 H18         6.2080   -1.7530   -0.1790 hx        1 9HL      0.121700
     34 H18A        5.4650   -0.6550   -1.4430 hx        1 9HL      0.121700
     35 HN19        7.7100   -0.0530   -2.1280 hn        1 9HL      0.448300
     36 H2'         8.0110   -4.9350   -6.2410 ha        1 9HL      0.153000
     37 H20         7.3710   -3.0120   -1.9020 hx        1 9HL      0.109700
     38 H20A        6.5620   -1.9400   -3.1510 hx        1 9HL      0.109700
     39 H21         9.6250   -2.4720   -2.8200 hc        1 9HL      0.112700
     40 H22         8.0900   -0.5350   -4.8100 hc        1 9HL      0.093200
     41 H22A        9.8830   -0.9140   -4.8400 hc        1 9HL      0.093200
     42 H23         7.5090   -2.9780   -5.1090 hc        1 9HL      0.097700
     43 H4'        12.1070   -6.2570   -6.7580 ha        1 9HL      0.166000
     44 H5'        12.9020   -4.2890   -5.4320 ha        1 9HL      0.151000
     45 H6'        11.2760   -2.6550   -4.5130 ha        1 9HL      0.127000
     46 H192        8.3930   -1.0270   -0.9760 hn        1 9HL      0.448300
@<TRIPOS>BOND
     1    1    2 2   
     2    1    5 1   
     3    2    3 1   
     4    2   26 1   
     5    3    4 1   
     6    3    8 1   
     7    4    5 2   
     8    4   27 1   
     9    5   28 1   
    10    6   16 ar  
    11    6   20 1   
    12    6   24 ar  
    13    7    8 ar  
    14    7   12 ar  
    15    8    9 ar  
    16    9   10 ar  
    17   10   11 ar  
    18   10   29 1   
    19   11   12 ar  
    20   11   30 1   
    21   12   13 1   
    22   13   14 1   
    23   13   31 1   
    24   13   32 1   
    25   14   15 1   
    26   14   33 1   
    27   14   34 1   
    28   15   17 1   
    29   15   35 1   
    30   15   46 1   
    31   16   21 ar  
    32   16   36 1   
    33   17   18 1   
    34   17   37 1   
    35   17   38 1   
    36   18   19 1   
    37   18   20 1   
    38   18   39 1   
    39   19   20 1   
    40   19   40 1   
    41   19   41 1   
    42   20   42 1   
    43   21   22 ar  
    44   21   25 1   
    45   22   23 ar  
    46   22   43 1   
    47   23   24 ar  
    48   23   44 1   
    49   24   45 1   
@<TRIPOS>SUBSTRUCTURE
     1 9HL         1 TEMP              0 ****  ****    0 ROOT
