@<TRIPOS>MOLECULE
9HL
   46    49     1     0     0
SMALL
bcc


@<TRIPOS>ATOM
      1 N01         0.4110   -2.1860    0.2580 nc        1 9HL     -0.638000
      2 C02         1.6380   -1.6600    0.2320 cd        1 9HL      0.427400
      3 N03         1.8470   -0.8000    1.3470 na        1 9HL     -0.269700
      4 C04         0.6450   -0.8170    2.0940 cd        1 9HL     -0.200600
      5 C05        -0.2180   -1.6730    1.4070 cc        1 9HL      0.310200
      6 C1'         9.5390   -3.6960   -5.3020 ca        1 9HL     -0.065300
      7 N11         4.0930   -0.2190    0.7930 nb        1 9HL     -0.763000
      8 C12         3.0120   -0.0770    1.6480 ca        1 9HL      0.786500
      9 N13         3.0030    0.7320    2.7830 nb        1 9HL     -0.690000
     10 C14         4.1290    1.4050    3.0390 ca        1 9HL      0.481200
     11 C15         5.2830    1.3260    2.2290 ca        1 9HL     -0.384600
     12 C16         5.2050    0.4870    1.1030 ca        1 9HL      0.452600
     13 C17         6.4120    0.4040    0.2090 c3        1 9HL     -0.156700
     14 C18         6.3390   -0.7760   -0.7530 c3        1 9HL      0.110800
     15 N19         7.5670   -0.9000   -1.5950 n4        1 9HL     -0.767000
     16 C2'         9.0910   -4.8040   -6.0300 ca        1 9HL     -0.151000
     17 C20         7.4890   -2.0750   -2.5240 c3        1 9HL      0.147800
     18 C21         8.7110   -2.1720   -3.3840 cx        1 9HL     -0.219700
     19 C22         8.8570   -1.2920   -4.5970 cx        1 9HL     -0.116400
     20 C23         8.5420   -2.7480   -4.7830 cx        1 9HL     -0.002400
     21 C3'        10.0240   -5.7230   -6.5420 ca        1 9HL      0.141900
     22 C4'        11.4030   -5.5360   -6.3270 ca        1 9HL     -0.143000
     23 C5'        11.8310   -4.4290   -5.6000 ca        1 9HL     -0.095000
     24 C6'        10.9110   -3.5140   -5.0890 ca        1 9HL     -0.141000
     25 F7'         9.5890   -6.7940   -7.2460 f         1 9HL     -0.123900
     26 H02         2.4060   -1.8380   -0.5260 h5        1 9HL      0.066100
     27 H04         0.5180   -0.2390    3.0100 h4        1 9HL      0.207000
     28 H05        -1.2420   -1.9530    1.6580 h4        1 9HL      0.063100
     29 H14         4.1090    2.0450    3.9440 h4        1 9HL      0.056100
     30 H15         6.1870    1.8940    2.4730 ha        1 9HL      0.167000
     31 H17         6.4800    1.3710   -0.3620 hc        1 9HL      0.080700
     32 H17A        7.3230    0.3220    0.8640 hc        1 9HL      0.080700
     33 H18         6.2140   -1.7400   -0.1790 hx        1 9HL      0.121700
     34 H18A        5.4570   -0.6600   -1.4500 hx        1 9HL      0.121700
     35 HN19        8.3900   -1.0040   -0.9910 hn        1 9HL      0.448300
     36 H2'         8.0190   -4.9660   -6.2160 ha        1 9HL      0.153000
     37 H20         6.5580   -1.9520   -3.1510 hx        1 9HL      0.109700
     38 H20A        7.3800   -3.0060   -1.8950 hx        1 9HL      0.109700
     39 H21         9.6270   -2.4570   -2.8250 hc        1 9HL      0.112700
     40 H22         9.8650   -0.9170   -4.8610 hc        1 9HL      0.093200
     41 H22A        8.0690   -0.5520   -4.8290 hc        1 9HL      0.093200
     42 H23         7.5060   -3.0020   -5.1010 hc        1 9HL      0.097700
     43 H4'        12.1230   -6.2610   -6.7350 ha        1 9HL      0.166000
     44 H5'        12.9080   -4.2740   -5.4310 ha        1 9HL      0.151000
     45 H6'        11.2730   -2.6440   -4.5220 ha        1 9HL      0.127000
     46 H192        7.6950   -0.0460   -2.1490 hn        1 9HL      0.448300
@<TRIPOS>BOND
     1    1    2 2   
     2    1    5 1   
     3    2    3 1   
     4    2   26 1   
     5    3    4 1   
     6    3    8 1   
     7    4    5 2   
     8    4   27 1   
     9    5   28 1   
    10    6   16 ar  
    11    6   20 1   
    12    6   24 ar  
    13    7    8 ar  
    14    7   12 ar  
    15    8    9 ar  
    16    9   10 ar  
    17   10   11 ar  
    18   10   29 1   
    19   11   12 ar  
    20   11   30 1   
    21   12   13 1   
    22   13   14 1   
    23   13   31 1   
    24   13   32 1   
    25   14   15 1   
    26   14   33 1   
    27   14   34 1   
    28   15   17 1   
    29   15   35 1   
    30   15   46 1   
    31   16   21 ar  
    32   16   36 1   
    33   17   18 1   
    34   17   37 1   
    35   17   38 1   
    36   18   19 1   
    37   18   20 1   
    38   18   39 1   
    39   19   20 1   
    40   19   40 1   
    41   19   41 1   
    42   20   42 1   
    43   21   22 ar  
    44   21   25 1   
    45   22   23 ar  
    46   22   43 1   
    47   23   24 ar  
    48   23   44 1   
    49   24   45 1   
@<TRIPOS>SUBSTRUCTURE
     1 9HL         1 TEMP              0 ****  ****    0 ROOT
