@<TRIPOS>MOLECULE
9HO
   52    48     1     0     0
SMALL
bcc


@<TRIPOS>ATOM
      1 O2          0.8820    0.8670   10.2280 o         1 9HO     -0.587000
      2 C1          1.6760    0.9280    9.2530 c1        1 9HO      0.327000
      3 O1          2.7060    0.2040    9.2330 os        1 9HO     -0.589000
      4 C2          1.3960    1.8770    8.1080 c3        1 9HO     -0.222000
      5 C3          0.5250    1.1860    7.0820 c3        1 9HO     -0.144000
      6 C4          0.4540    2.0310    5.8300 c3        1 9HO     -0.157000
      7 C5         -0.3440    1.3000    4.7720 c3        1 9HO     -0.157000
      8 C6         -0.2420    2.0450    3.4590 c3        1 9HO     -0.157000
      9 C7         -0.7950    1.1830    2.3460 c3        1 9HO     -0.158000
     10 C8         -0.6220    1.8950    1.0230 c3        1 9HO     -0.151000
     11 C9         -0.9970    0.9610   -0.1050 c3        1 9HO      0.053000
     12 C10        -0.4740    1.5120   -1.4120 c2        1 9HO     -0.177000
     13 C11        -0.8170    0.9260   -2.5760 c1        1 9HO     -0.140000
     14 C12        -1.7260   -0.2830   -2.5750 c1        1 9HO     -0.149500
     15 C13        -1.5560   -1.2540   -3.4940 c1        1 9HO     -0.149500
     16 C14        -0.4560   -1.1350   -4.5270 c2        1 9HO     -0.136000
     17 C15        -0.5480   -2.2910   -5.4980 c3        1 9HO     -0.157000
     18 C16         0.5890   -2.2070   -6.4910 c3        1 9HO     -0.158000
     19 C17         0.6690   -3.4980   -7.2760 c3        1 9HO     -0.159000
     20 C18         1.5110   -3.2830   -8.5150 c3        1 9HO     -0.210000
     21 O3         -0.4340   -0.3080    0.1280 oh        1 9HO     -0.320000
     22 H12C        0.9340    2.6690    8.4470 hc        1 9HO      0.058000
     23 H22C        2.2400    2.1440    7.6920 hc        1 9HO      0.058000
     24 H13C        0.9070    0.3120    6.8650 hc        1 9HO      0.083000
     25 H23C       -0.3750    1.0660    7.4460 hc        1 9HO      0.083000
     26 H14C        0.0190    2.8830    6.0350 hc        1 9HO      0.065000
     27 H24C        1.3590    2.1990    5.4980 hc        1 9HO      0.065000
     28 H15C        0.0130    0.3960    4.6620 hc        1 9HO      0.076500
     29 H25C       -1.2810    1.2500    5.0470 hc        1 9HO      0.076500
     30 H16C        0.6950    2.2540    3.2750 hc        1 9HO      0.073000
     31 H26C       -0.7560    2.8750    3.5150 hc        1 9HO      0.073000
     32 H17C       -1.7460    1.0160    2.5040 hc        1 9HO      0.084000
     33 H27C       -0.3150    0.3310    2.3240 hc        1 9HO      0.084000
     34 H18C       -1.1990    2.6840    0.9990 hc        1 9HO      0.088500
     35 H28C        0.3110    2.1700    0.9210 hc        1 9HO      0.088500
     36 H9         -1.9710    0.8810   -0.1520 h1        1 9HO      0.078000
     37 H10         0.1130    2.2920   -1.4120 ha        1 9HO      0.131000
     38 H3         -1.0400   -0.9370   -0.0370 ho        1 9HO      0.196000
     39 H11        -0.4790    1.2820   -3.4200 ha        1 9HO      0.121000
     40 H12        -2.4350   -0.3600   -1.9090 ha        1 9HO      0.123500
     41 H13        -2.1420   -2.0340   -3.4940 ha        1 9HO      0.123500
     42 H114        0.4140   -1.1520   -4.0800 ha        1 9HO      0.090500
     43 H214       -0.5560   -0.2920   -5.0130 ha        1 9HO      0.090500
     44 H115       -0.4900   -3.1350   -5.0060 hc        1 9HO      0.081000
     45 H215       -1.4020   -2.2490   -5.9740 hc        1 9HO      0.081000
     46 H116        1.4300   -2.0630   -6.0130 hc        1 9HO      0.079000
     47 H216        0.4320   -1.4610   -7.1050 hc        1 9HO      0.079000
     48 H117       -0.2310   -3.7770   -7.5380 hc        1 9HO      0.078000
     49 H217        1.0780   -4.1920   -6.7210 hc        1 9HO      0.078000
     50 H118        1.9670   -4.1180   -8.7490 hc        1 9HO      0.071333
     51 H218        2.1760   -2.5850   -8.3410 hc        1 9HO      0.071333
     52 H318        0.9340   -3.0060   -9.2580 hc        1 9HO      0.071333
@<TRIPOS>BOND
     1    1    2 1   
     2    2    4 1   
     3    4    5 1   
     4    4   22 1   
     5    4   23 1   
     6    5    6 1   
     7    5   24 1   
     8    5   25 1   
     9    6    7 1   
    10    6   26 1   
    11    6   27 1   
    12    7    8 1   
    13    7   28 1   
    14    7   29 1   
    15    8    9 1   
    16    8   30 1   
    17    8   31 1   
    18    9   10 1   
    19    9   32 1   
    20    9   33 1   
    21   10   11 1   
    22   10   34 1   
    23   10   35 1   
    24   11   12 1   
    25   11   21 1   
    26   11   36 1   
    27   12   13 1   
    28   12   37 1   
    29   13   39 1   
    30   14   15 1   
    31   14   40 1   
    32   15   41 1   
    33   16   17 1   
    34   16   42 1   
    35   16   43 1   
    36   17   18 1   
    37   17   44 1   
    38   17   45 1   
    39   18   19 1   
    40   18   46 1   
    41   18   47 1   
    42   19   20 1   
    43   19   48 1   
    44   19   49 1   
    45   20   50 1   
    46   20   51 1   
    47   20   52 1   
    48   21   38 1   
@<TRIPOS>SUBSTRUCTURE
     1 9HO         1 TEMP              0 ****  ****    0 ROOT
