@<TRIPOS>MOLECULE
9HO
   52    51     1     0     0
SMALL
bcc


@<TRIPOS>ATOM
      1 O2          8.8290   -1.9050   -0.3170 o         1 9HO     -0.852800
      2 C1          8.9800   -0.6550   -0.4430 c         1 9HO      0.907600
      3 O1         10.0860   -0.0610   -0.2890 o         1 9HO     -0.852800
      4 C2          7.7580    0.1960   -0.8310 c3        1 9HO     -0.194400
      5 C3          6.5520   -0.1640    0.0010 c3        1 9HO     -0.065400
      6 C4          5.2990    0.5310   -0.4920 c3        1 9HO     -0.078400
      7 C5          4.0990    0.1870    0.3630 c3        1 9HO     -0.078400
      8 C6          2.8480    0.8770   -0.1380 c3        1 9HO     -0.078400
      9 C7          1.6480    0.5430    0.7220 c3        1 9HO     -0.080400
     10 C8          0.4070    1.2530    0.2270 c3        1 9HO     -0.106400
     11 C9         -0.8270    0.8540    1.0360 c3        1 9HO      0.166300
     12 C10        -2.0040    1.6820    0.6280 c2        1 9HO     -0.190200
     13 C11        -3.2280    1.1840    0.4090 ce        1 9HO     -0.135000
     14 C12        -4.3590    2.0030    0.0290 ce        1 9HO     -0.140000
     15 C13        -5.6000    1.5400   -0.1810 c2        1 9HO     -0.159200
     16 C14        -6.0030    0.1200   -0.0570 c3        1 9HO     -0.052200
     17 C15        -7.4770   -0.0830   -0.3440 c3        1 9HO     -0.077400
     18 C16        -7.8640   -1.5400   -0.2110 c3        1 9HO     -0.080400
     19 C17        -9.3360   -1.7470   -0.4970 c3        1 9HO     -0.079400
     20 C18        -9.7260   -3.1970   -0.3650 c3        1 9HO     -0.092100
     21 O3         -1.0860   -0.5390    0.9430 oh        1 9HO     -0.594800
     22 H12C        8.0070    1.2800   -0.7080 hc        1 9HO      0.018700
     23 H22C        7.5440    0.0130   -1.9150 hc        1 9HO      0.018700
     24 H13C        6.4140   -1.2780   -0.0290 hc        1 9HO      0.044200
     25 H23C        6.7380    0.1170    1.0710 hc        1 9HO      0.044200
     26 H14C        5.4580    1.6410   -0.4870 hc        1 9HO      0.025700
     27 H24C        5.0990    0.2320   -1.5550 hc        1 9HO      0.025700
     28 H15C        3.9430   -0.9240    0.3610 hc        1 9HO      0.038200
     29 H25C        4.2960    0.4900    1.4250 hc        1 9HO      0.038200
     30 H16C        3.0090    1.9880   -0.1420 hc        1 9HO      0.033200
     31 H26C        2.6500    0.5690   -1.1980 hc        1 9HO      0.033200
     32 H17C        1.4690   -0.5650    0.7150 hc        1 9HO      0.046700
     33 H27C        1.8510    0.8370    1.7850 hc        1 9HO      0.046700
     34 H18C        0.5490    2.3620    0.3030 hc        1 9HO      0.044200
     35 H28C        0.2360    1.0080   -0.8540 hc        1 9HO      0.044200
     36 H9         -0.6320    1.0120    2.1380 h1        1 9HO      0.083700
     37 H10        -1.7930    2.7590    0.5350 ha        1 9HO      0.124000
     38 H3         -1.1130   -0.7630    0.0050 ho        1 9HO      0.398000
     39 H11        -3.4140    0.1000    0.5200 ha        1 9HO      0.134000
     40 H12        -4.1540    3.0820   -0.0870 ha        1 9HO      0.118000
     41 H13        -6.4020    2.2410   -0.4680 ha        1 9HO      0.118000
     42 H114       -5.3960   -0.5070   -0.7660 hc        1 9HO      0.052700
     43 H214       -5.7720   -0.2480    0.9810 hc        1 9HO      0.052700
     44 H115       -8.0880    0.5350    0.3650 hc        1 9HO      0.038700
     45 H215       -7.7120    0.2760   -1.3810 hc        1 9HO      0.038700
     46 H116       -7.2530   -2.1580   -0.9210 hc        1 9HO      0.041700
     47 H216       -7.6290   -1.8980    0.8260 hc        1 9HO      0.041700
     48 H117       -9.9460   -1.1270    0.2130 hc        1 9HO      0.037200
     49 H217       -9.5700   -1.3870   -1.5340 hc        1 9HO      0.037200
     50 H118      -10.8140   -3.3280   -0.5800 hc        1 9HO      0.032033
     51 H218       -9.1460   -3.8280   -1.0830 hc        1 9HO      0.032033
     52 H318       -9.5230   -3.5680    0.6680 hc        1 9HO      0.032033
@<TRIPOS>BOND
     1    1    2 1   
     2    2    3 1   
     3    2    4 1   
     4    4    5 1   
     5    4   22 1   
     6    4   23 1   
     7    5    6 1   
     8    5   24 1   
     9    5   25 1   
    10    6    7 1   
    11    6   26 1   
    12    6   27 1   
    13    7    8 1   
    14    7   28 1   
    15    7   29 1   
    16    8    9 1   
    17    8   30 1   
    18    8   31 1   
    19    9   10 1   
    20    9   32 1   
    21    9   33 1   
    22   10   11 1   
    23   10   34 1   
    24   10   35 1   
    25   11   12 1   
    26   11   21 1   
    27   11   36 1   
    28   12   13 2   
    29   12   37 1   
    30   13   14 1   
    31   13   39 1   
    32   14   15 2   
    33   14   40 1   
    34   15   16 1   
    35   15   41 1   
    36   16   17 1   
    37   16   42 1   
    38   16   43 1   
    39   17   18 1   
    40   17   44 1   
    41   17   45 1   
    42   18   19 1   
    43   18   46 1   
    44   18   47 1   
    45   19   20 1   
    46   19   48 1   
    47   19   49 1   
    48   20   50 1   
    49   20   51 1   
    50   20   52 1   
    51   21   38 1   
@<TRIPOS>SUBSTRUCTURE
     1 9HO         1 TEMP              0 ****  ****    0 ROOT
