@<TRIPOS>MOLECULE
9HO
   52    51     1     0     0
SMALL
bcc


@<TRIPOS>ATOM
      1 O2         -0.5240    0.2880   -0.2050 o         1 9HO     -0.852800
      2 C1          0.5310   -0.4100   -0.1890 c         1 9HO      0.907600
      3 O1          0.8180   -1.2300    0.7300 o         1 9HO     -0.852800
      4 C2          1.5410   -0.2410   -1.3380 c3        1 9HO     -0.194400
      5 C3          0.8500   -0.2420   -2.6790 c3        1 9HO     -0.065400
      6 C4          1.8040    0.0920   -3.8060 c3        1 9HO     -0.078400
      7 C5          1.1060    0.0660   -5.1490 c3        1 9HO     -0.079400
      8 C6          2.0630    0.3820   -6.2790 c3        1 9HO     -0.077400
      9 C7          1.3660    0.3330   -7.6220 c3        1 9HO     -0.084400
     10 C8          2.3270    0.6390   -8.7500 c3        1 9HO     -0.109400
     11 C9          1.7200    0.4270  -10.1360 c3        1 9HO      0.171300
     12 C10         1.3880   -1.0100  -10.3830 c2        1 9HO     -0.197200
     13 C11         0.7360   -1.4980  -11.4460 ce        1 9HO     -0.121000
     14 C12         0.2080   -0.7070  -12.5380 ce        1 9HO     -0.144000
     15 C13        -0.4090   -1.2120  -13.6160 c2        1 9HO     -0.162200
     16 C14        -0.6480   -2.6540  -13.8580 c3        1 9HO     -0.052200
     17 C15        -1.3580   -2.9020  -15.1740 c3        1 9HO     -0.077400
     18 C16        -1.5910   -4.3800  -15.3990 c3        1 9HO     -0.080400
     19 C17        -2.3010   -4.6320  -16.7120 c3        1 9HO     -0.080400
     20 C18        -2.5360   -6.1030  -16.9410 c3        1 9HO     -0.092100
     21 O3          0.6140    1.2950  -10.3470 oh        1 9HO     -0.601800
     22 H12C        2.0760    0.7300   -1.1830 hc        1 9HO      0.018700
     23 H22C        2.2990   -1.0620   -1.2880 hc        1 9HO      0.018700
     24 H13C        0.0090    0.5010   -2.6500 hc        1 9HO      0.044200
     25 H23C        0.3930   -1.2500   -2.8620 hc        1 9HO      0.044200
     26 H14C        2.6540   -0.6410   -3.8110 hc        1 9HO      0.026700
     27 H24C        2.2470    1.1080   -3.6350 hc        1 9HO      0.026700
     28 H15C        0.2650    0.8080   -5.1470 hc        1 9HO      0.037200
     29 H25C        0.6510   -0.9470   -5.3140 hc        1 9HO      0.037200
     30 H16C        2.5060    1.4010   -6.1220 hc        1 9HO      0.036200
     31 H26C        2.9110   -0.3520   -6.2680 hc        1 9HO      0.036200
     32 H17C        0.5250    1.0770   -7.6310 hc        1 9HO      0.038700
     33 H27C        0.9120   -0.6820   -7.7720 hc        1 9HO      0.038700
     34 H18C        2.6600    1.7070   -8.6710 hc        1 9HO      0.049700
     35 H28C        3.2370   -0.0100   -8.6590 hc        1 9HO      0.049700
     36 H9          2.4660    0.7680  -10.9160 h1        1 9HO      0.070700
     37 H10         1.7580   -1.7050   -9.6090 ha        1 9HO      0.130000
     38 H3         -0.0730    1.0400   -9.7190 ho        1 9HO      0.406000
     39 H11         0.5750   -2.5890  -11.5230 ha        1 9HO      0.117000
     40 H12         0.3340    0.3880  -12.4370 ha        1 9HO      0.147000
     41 H13        -0.7790   -0.5290  -14.3990 ha        1 9HO      0.119000
     42 H114        0.3320   -3.2060  -13.8550 hc        1 9HO      0.049200
     43 H214       -1.2630   -3.0800  -13.0180 hc        1 9HO      0.049200
     44 H115       -0.7460   -2.4850  -16.0160 hc        1 9HO      0.039700
     45 H215       -2.3410   -2.3610  -15.1790 hc        1 9HO      0.039700
     46 H116       -0.6090   -4.9220  -15.3930 hc        1 9HO      0.040700
     47 H216       -2.2040   -4.7970  -14.5560 hc        1 9HO      0.040700
     48 H117       -1.6880   -4.2130  -17.5540 hc        1 9HO      0.037700
     49 H217       -3.2820   -4.0890  -16.7170 hc        1 9HO      0.037700
     50 H118       -3.1650   -6.5330  -16.1250 hc        1 9HO      0.031700
     51 H218       -3.0590   -6.2670  -17.9130 hc        1 9HO      0.031700
     52 H318       -1.5670   -6.6580  -16.9640 hc        1 9HO      0.031700
@<TRIPOS>BOND
     1    1    2 1   
     2    2    3 1   
     3    2    4 1   
     4    4    5 1   
     5    4   22 1   
     6    4   23 1   
     7    5    6 1   
     8    5   24 1   
     9    5   25 1   
    10    6    7 1   
    11    6   26 1   
    12    6   27 1   
    13    7    8 1   
    14    7   28 1   
    15    7   29 1   
    16    8    9 1   
    17    8   30 1   
    18    8   31 1   
    19    9   10 1   
    20    9   32 1   
    21    9   33 1   
    22   10   11 1   
    23   10   34 1   
    24   10   35 1   
    25   11   12 1   
    26   11   21 1   
    27   11   36 1   
    28   12   13 2   
    29   12   37 1   
    30   13   14 1   
    31   13   39 1   
    32   14   15 2   
    33   14   40 1   
    34   15   16 1   
    35   15   41 1   
    36   16   17 1   
    37   16   42 1   
    38   16   43 1   
    39   17   18 1   
    40   17   44 1   
    41   17   45 1   
    42   18   19 1   
    43   18   46 1   
    44   18   47 1   
    45   19   20 1   
    46   19   48 1   
    47   19   49 1   
    48   20   50 1   
    49   20   51 1   
    50   20   52 1   
    51   21   38 1   
@<TRIPOS>SUBSTRUCTURE
     1 9HO         1 TEMP              0 ****  ****    0 ROOT
