@<TRIPOS>MOLECULE
9HO
   52    51     1     0     0
SMALL
bcc


@<TRIPOS>ATOM
      1 O2         -0.5530    0.3430   -0.2260 o         1 9HO     -0.852800
      2 C1          0.4890   -0.3740   -0.1980 c         1 9HO      0.907600
      3 O1          0.7540   -1.1950    0.7270 o         1 9HO     -0.852800
      4 C2          1.5110   -0.2290   -1.3400 c3        1 9HO     -0.194400
      5 C3          0.8310   -0.2230   -2.6870 c3        1 9HO     -0.065400
      6 C4          1.8000    0.0880   -3.8080 c3        1 9HO     -0.078400
      7 C5          1.1120    0.0690   -5.1560 c3        1 9HO     -0.079400
      8 C6          2.0840    0.3620   -6.2790 c3        1 9HO     -0.077400
      9 C7          1.3970    0.3200   -7.6280 c3        1 9HO     -0.084400
     10 C8          2.3730    0.6020   -8.7500 c3        1 9HO     -0.109400
     11 C9          1.7720    0.3960  -10.1390 c3        1 9HO      0.171300
     12 C10         1.4130   -1.0360  -10.3820 c2        1 9HO     -0.197200
     13 C11         0.7560   -1.5160  -11.4460 ce        1 9HO     -0.121000
     14 C12         0.2500   -0.7200  -12.5440 ce        1 9HO     -0.144000
     15 C13        -0.3730   -1.2180  -13.6220 c2        1 9HO     -0.162200
     16 C14        -0.6440   -2.6550  -13.8560 c3        1 9HO     -0.052200
     17 C15        -1.3590   -2.8940  -15.1710 c3        1 9HO     -0.077400
     18 C16        -1.6250   -4.3680  -15.3880 c3        1 9HO     -0.080400
     19 C17        -2.3390   -4.6120  -16.7010 c3        1 9HO     -0.080400
     20 C18        -2.6070   -6.0780  -16.9210 c3        1 9HO     -0.092100
     21 O3          0.6860    1.2850  -10.3630 oh        1 9HO     -0.601800
     22 H12C        2.0620    0.7340   -1.1860 hc        1 9HO      0.018700
     23 H22C        2.2540   -1.0630   -1.2810 hc        1 9HO      0.018700
     24 H13C        0.3570   -1.2230   -2.8690 hc        1 9HO      0.044200
     25 H23C        0.0040    0.5360   -2.6680 hc        1 9HO      0.044200
     26 H14C        2.2610    1.0970   -3.6370 hc        1 9HO      0.026700
     27 H24C        2.6360   -0.6600   -3.8020 hc        1 9HO      0.026700
     28 H15C        0.6390   -0.9350   -5.3210 hc        1 9HO      0.037200
     29 H25C        0.2850    0.8270   -5.1650 hc        1 9HO      0.037200
     30 H16C        2.9180   -0.3880   -6.2580 hc        1 9HO      0.036200
     31 H26C        2.5450    1.3730   -6.1240 hc        1 9HO      0.036200
     32 H17C        0.9240   -0.6870   -7.7770 hc        1 9HO      0.038700
     33 H27C        0.5710    1.0800   -7.6470 hc        1 9HO      0.038700
     34 H18C        3.2690   -0.0650   -8.6480 hc        1 9HO      0.049700
     35 H28C        2.7260    1.6630   -8.6730 hc        1 9HO      0.049700
     36 H9          2.5310    0.7170  -10.9150 h1        1 9HO      0.070700
     37 H10         1.7650   -1.7350   -9.6030 ha        1 9HO      0.130000
     38 H3         -0.0110    1.0470   -9.7400 ho        1 9HO      0.406000
     39 H11         0.5740   -2.6040  -11.5190 ha        1 9HO      0.117000
     40 H12         0.4000    0.3730  -12.4500 ha        1 9HO      0.147000
     41 H13        -0.7260   -0.5310  -14.4100 ha        1 9HO      0.119000
     42 H114        0.3230   -3.2280  -13.8500 hc        1 9HO      0.049200
     43 H214       -1.2690   -3.0630  -13.0150 hc        1 9HO      0.049200
     44 H115       -2.3290   -2.3310  -15.1800 hc        1 9HO      0.039700
     45 H215       -0.7370   -2.4960  -16.0160 hc        1 9HO      0.039700
     46 H116       -0.6550   -4.9320  -15.3790 hc        1 9HO      0.040700
     47 H216       -2.2470   -4.7670  -14.5430 hc        1 9HO      0.040700
     48 H117       -3.3080   -4.0460  -16.7090 hc        1 9HO      0.037700
     49 H217       -1.7170   -4.2120  -17.5440 hc        1 9HO      0.037700
     50 H118       -1.6510   -6.6550  -16.9400 hc        1 9HO      0.031700
     51 H218       -3.1340   -6.2360  -17.8930 hc        1 9HO      0.031700
     52 H318       -3.2470   -6.4890  -16.1020 hc        1 9HO      0.031700
@<TRIPOS>BOND
     1    1    2 1   
     2    2    3 1   
     3    2    4 1   
     4    4    5 1   
     5    4   22 1   
     6    4   23 1   
     7    5    6 1   
     8    5   24 1   
     9    5   25 1   
    10    6    7 1   
    11    6   26 1   
    12    6   27 1   
    13    7    8 1   
    14    7   28 1   
    15    7   29 1   
    16    8    9 1   
    17    8   30 1   
    18    8   31 1   
    19    9   10 1   
    20    9   32 1   
    21    9   33 1   
    22   10   11 1   
    23   10   34 1   
    24   10   35 1   
    25   11   12 1   
    26   11   21 1   
    27   11   36 1   
    28   12   13 2   
    29   12   37 1   
    30   13   14 1   
    31   13   39 1   
    32   14   15 2   
    33   14   40 1   
    34   15   16 1   
    35   15   41 1   
    36   16   17 1   
    37   16   42 1   
    38   16   43 1   
    39   17   18 1   
    40   17   44 1   
    41   17   45 1   
    42   18   19 1   
    43   18   46 1   
    44   18   47 1   
    45   19   20 1   
    46   19   48 1   
    47   19   49 1   
    48   20   50 1   
    49   20   51 1   
    50   20   52 1   
    51   21   38 1   
@<TRIPOS>SUBSTRUCTURE
     1 9HO         1 TEMP              0 ****  ****    0 ROOT
