@<TRIPOS>MOLECULE
9HP
   33    36     1     0     0
SMALL
bcc


@<TRIPOS>ATOM
      1 C1         -0.5020    0.0540   -2.5260 ca        1 9HP     -0.138300
      2 C2          0.0730   -0.0150   -3.8170 ca        1 9HP     -0.006000
      3 C3         -0.7770    0.0530   -4.9450 ca        1 9HP     -0.230300
      4 C4         -2.1470    0.1850   -4.7470 ca        1 9HP      0.389200
      5 N5         -2.7220    0.2540   -3.5150 nb        1 9HP     -0.662000
      6 C6         -1.9220    0.1910   -2.4530 ca        1 9HP      0.414200
      7 C10         0.3420   -0.0140   -1.3660 ca        1 9HP     -0.118300
      8 C11         1.7530   -0.1480   -1.5300 ca        1 9HP      0.395600
      9 C12         2.3020   -0.2140   -2.8670 ca        1 9HP     -0.148300
     10 C13         1.4930   -0.1500   -3.9550 ca        1 9HP     -0.123000
     11 C16        -0.1660    0.0470   -0.0460 ca        1 9HP     -0.083000
     12 C17         0.6990   -0.0230    1.0360 cp        1 9HP     -0.136300
     13 C18         2.0960   -0.1560    0.7600 ca        1 9HP      0.416200
     14 N19         2.6100   -0.2170   -0.4590 nb        1 9HP     -0.653000
     15 C22        -1.4160   -0.5700    4.0950 ca        1 9HP     -0.185000
     16 C23        -0.9580   -0.6200    2.7820 ca        1 9HP     -0.079000
     17 C24         0.2240    0.0350    2.4110 cp        1 9HP     -0.079000
     18 C25         0.9460    0.7490    3.3820 ca        1 9HP     -0.079000
     19 C26         0.5030    0.8130    4.6970 ca        1 9HP     -0.185000
     20 C27        -0.6840    0.1480    5.0510 ca        1 9HP      0.133100
     21 O32        -1.0710    0.2450    6.3670 oh        1 9HP     -0.494100
     22 HC3        -0.3530    0.0010   -5.9570 ha        1 9HP      0.146000
     23 HC4        -2.8490    0.2410   -5.5970 h4        1 9HP      0.025100
     24 HC6        -2.4300    0.2530   -1.4740 h4        1 9HP      0.021100
     25 H12         3.3950   -0.3180   -2.9760 ha        1 9HP      0.155000
     26 H13         1.9090   -0.2010   -4.9730 ha        1 9HP      0.141000
     27 H16        -1.2470    0.1560    0.1270 ha        1 9HP      0.143000
     28 H18         2.8170   -0.2230    1.5970 h4        1 9HP      0.028100
     29 H23        -1.5270   -1.1880    2.0310 ha        1 9HP      0.138500
     30 H25         1.8720    1.2730    3.0970 ha        1 9HP      0.138500
     31 H26         1.0600    1.3720    5.4610 ha        1 9HP      0.145500
     32 H32        -1.8960   -0.2520    6.4740 ho        1 9HP      0.422000
     33 H22        -2.3420   -1.0890    4.3800 ha        1 9HP      0.145500
@<TRIPOS>BOND
     1    1    2 ar  
     2    1    6 ar  
     3    1    7 ar  
     4    2    3 ar  
     5    2   10 ar  
     6    3    4 ar  
     7    3   22 1   
     8    4    5 ar  
     9    4   23 1   
    10    5    6 ar  
    11    6   24 1   
    12    7    8 ar  
    13    7   11 ar  
    14    8    9 ar  
    15    8   14 ar  
    16    9   10 ar  
    17    9   25 1   
    18   10   26 1   
    19   11   12 ar  
    20   11   27 1   
    21   12   13 ar  
    22   12   17 1   
    23   13   14 ar  
    24   13   28 1   
    25   15   16 ar  
    26   15   20 ar  
    27   15   33 1   
    28   16   17 ar  
    29   16   29 1   
    30   17   18 ar  
    31   18   19 ar  
    32   18   30 1   
    33   19   20 ar  
    34   19   31 1   
    35   20   21 1   
    36   21   32 1   
@<TRIPOS>SUBSTRUCTURE
     1 9HP         1 TEMP              0 ****  ****    0 ROOT
