@<TRIPOS>MOLECULE
9HP
   33    25     1     0     0
SMALL
bcc


@<TRIPOS>ATOM
      1 C1          2.1540   -0.0250    1.4860 c1        1 9HP     -0.063000
      2 C2          3.5120   -0.0780    1.4750 c1        1 9HP     -0.006000
      3 C3          4.2190   -0.0540    2.6800 c1        1 9HP     -0.144000
      4 C4          3.5350    0.0240    3.8830 c1        1 9HP     -0.076000
      5 N5          2.1910    0.0770    3.8930 n1        1 9HP     -0.135000
      6 C6          1.4780    0.0530    2.6930 c1        1 9HP     -0.066000
      7 C10         1.4230   -0.0320    0.2460 c1        1 9HP     -0.063000
      8 C11         2.1050   -0.0930   -0.9580 c1        1 9HP      0.002000
      9 C12         3.5200   -0.1490   -0.9670 c1        1 9HP     -0.083000
     10 C13         4.2200   -0.1420    0.2270 c1        1 9HP     -0.144000
     11 C16         0.0340    0.0190    0.2540 c1        1 9HP     -0.066000
     12 C17        -0.6660    0.0070   -0.9390 c1        1 9HP     -0.075000
     13 C18         0.0110   -0.0540   -2.1360 c1        1 9HP     -0.063000
     14 N19         1.4020   -0.1040   -2.1480 n1        1 9HP     -0.127000
     15 C22        -4.1600   -1.1280   -1.3110 c1        1 9HP     -0.213000
     16 C23        -2.8030   -1.1620   -1.1360 c1        1 9HP     -0.063000
     17 C24        -2.0690    0.0390   -1.0920 c1        1 9HP     -0.075000
     18 C25        -2.7160    1.2470   -1.2250 c1        1 9HP     -0.119000
     19 C26        -4.0750    1.2810   -1.4010 c1        1 9HP     -0.119000
     20 C27        -4.8080    0.0850   -1.4450 c1        1 9HP      0.088000
     21 O32        -6.2190    0.1290   -1.4420 oh        1 9HP     -0.248000
     22 HC3         5.1570   -0.0930    2.6740 ha        1 9HP      0.143500
     23 HC4         4.0400    0.0400    4.7420 ha        1 9HP      0.162000
     24 HC6         0.5380    0.0930    2.7040 ha        1 9HP      0.151500
     25 H12         3.9710   -0.0880   -1.7570 ha        1 9HP      0.155000
     26 H13         5.2200   -0.1740    0.2200 ha        1 9HP      0.143500
     27 H16        -0.4530    0.0620    1.1100 ha        1 9HP      0.151500
     28 H18        -0.4930   -0.0600   -2.9870 ha        1 9HP      0.151000
     29 H22        -4.6840   -1.9800   -1.3420 ha        1 9HP      0.137000
     30 H23        -2.3500   -2.0090   -1.0420 ha        1 9HP      0.151000
     31 H25        -2.1910    2.1040   -1.1940 ha        1 9HP      0.146500
     32 H26        -4.5220    2.1170   -1.4930 ha        1 9HP      0.146500
     33 H32        -6.5210    0.0480   -2.2710 ho        1 9HP      0.220000
@<TRIPOS>BOND
     1    1    6 1   
     2    1    7 1   
     3    2    3 1   
     4    2   10 1   
     5    3   22 1   
     6    4    5 1   
     7    4   23 1   
     8    6   24 1   
     9    7   11 1   
    10    8    9 1   
    11    8   14 1   
    12    9   25 1   
    13   10   26 1   
    14   11   27 1   
    15   12   13 1   
    16   13   28 1   
    17   15   20 1   
    18   15   29 1   
    19   16   17 1   
    20   16   30 1   
    21   18   19 1   
    22   18   31 1   
    23   19   32 1   
    24   20   21 1   
    25   21   33 1   
@<TRIPOS>SUBSTRUCTURE
     1 9HP         1 TEMP              0 ****  ****    0 ROOT
