@<TRIPOS>MOLECULE
9HP
   33    36     1     0     0
SMALL
bcc


@<TRIPOS>ATOM
      1 C1          0.0180   -0.0050   -0.0190 ca        1 9HP     -0.138300
      2 C2          1.4330    0.0290   -0.0040 ca        1 9HP     -0.006000
      3 C3          2.1000    0.0300    1.2420 ca        1 9HP     -0.230300
      4 C4          1.3440   -0.0020    2.4090 ca        1 9HP      0.389200
      5 N5         -0.0160   -0.0360    2.4190 nb        1 9HP     -0.662000
      6 C6         -0.6440   -0.0380    1.2460 ca        1 9HP      0.414200
      7 C10        -0.6810   -0.0060   -1.2740 ca        1 9HP     -0.118300
      8 C11         0.0610    0.0250   -2.4910 ca        1 9HP      0.395600
      9 C12         1.5070    0.0580   -2.4340 ca        1 9HP     -0.148300
     10 C13         2.1550    0.0600   -1.2420 ca        1 9HP     -0.123000
     11 C16        -2.0930   -0.0370   -1.3630 ca        1 9HP     -0.083000
     12 C17        -2.7120   -0.0380   -2.6030 cp        1 9HP     -0.136300
     13 C18        -1.8750   -0.0060   -3.7620 ca        1 9HP      0.416200
     14 N19        -0.5510    0.0240   -3.7210 nb        1 9HP     -0.653000
     15 C22        -6.3610    0.6450   -2.0060 ca        1 9HP     -0.185000
     16 C23        -4.9760    0.6690   -1.8750 ca        1 9HP     -0.079000
     17 C24        -4.1610   -0.0690   -2.7450 cp        1 9HP     -0.079000
     18 C25        -4.7590   -0.8390   -3.7560 ca        1 9HP     -0.079000
     19 C26        -6.1400   -0.8780   -3.9010 ca        1 9HP     -0.185000
     20 C27        -6.9410   -0.1300   -3.0200 ca        1 9HP      0.133100
     21 O32        -8.3000   -0.2060   -3.2130 oh        1 9HP     -0.494100
     22 HC3         3.1970    0.0560    1.2790 ha        1 9HP      0.146000
     23 HC4         1.8220   -0.0020    3.4050 h4        1 9HP      0.025100
     24 HC6        -1.7480   -0.0690    1.3000 h4        1 9HP      0.021100
     25 H12         2.0650    0.0820   -3.3850 ha        1 9HP      0.155000
     26 H13         3.2550    0.0860   -1.1960 ha        1 9HP      0.141000
     27 H16        -2.7050   -0.0680   -0.4480 ha        1 9HP      0.143000
     28 H18        -2.3320    0.0030   -4.7700 h4        1 9HP      0.028100
     29 H23        -4.5170    1.2820   -1.0840 ha        1 9HP      0.138500
     30 H25        -4.1270   -1.4280   -4.4390 ha        1 9HP      0.138500
     31 H26        -6.6150   -1.4810   -4.6870 ha        1 9HP      0.145500
     32 H32        -8.7290    0.3490   -2.5460 ho        1 9HP      0.422000
     33 H22        -6.9940    1.2290   -1.3230 ha        1 9HP      0.145500
@<TRIPOS>BOND
     1    1    2 ar  
     2    1    6 ar  
     3    1    7 ar  
     4    2    3 ar  
     5    2   10 ar  
     6    3    4 ar  
     7    3   22 1   
     8    4    5 ar  
     9    4   23 1   
    10    5    6 ar  
    11    6   24 1   
    12    7    8 ar  
    13    7   11 ar  
    14    8    9 ar  
    15    8   14 ar  
    16    9   10 ar  
    17    9   25 1   
    18   10   26 1   
    19   11   12 ar  
    20   11   27 1   
    21   12   13 ar  
    22   12   17 1   
    23   13   14 ar  
    24   13   28 1   
    25   15   16 ar  
    26   15   20 ar  
    27   15   33 1   
    28   16   17 ar  
    29   16   29 1   
    30   17   18 ar  
    31   18   19 ar  
    32   18   30 1   
    33   19   20 ar  
    34   19   31 1   
    35   20   21 1   
    36   21   32 1   
@<TRIPOS>SUBSTRUCTURE
     1 9HP         1 TEMP              0 ****  ****    0 ROOT
