@<TRIPOS>MOLECULE
9HX
   15    10     1     0     0
SMALL
bcc


@<TRIPOS>ATOM
      1 C9         -0.1210    0.0010   -2.0070 cg        1 9HX     -0.176000
      2 C8          1.2520    0.0010   -2.0070 ch        1 9HX     -0.041000
      3 N7          1.6730    0.0010   -0.7130 nf        1 9HX     -0.405400
      4 C5          0.5510    0.0010    0.1030 c1        1 9HX      0.032400
      5 C6          0.4070    0.0010    1.4790 c1        1 9HX      0.596500
      6 O6          1.3900   -0.0090    2.1930 o         1 9HX     -0.601500
      7 N1         -0.8220    0.0010    2.0260 n1        1 9HX     -0.815200
      8 C2         -1.9290    0.0010    1.2220 c1        1 9HX      0.419300
      9 N3         -1.7890    0.0010   -0.1350 n1        1 9HX     -0.466800
     10 C4         -0.5470    0.0010   -0.6920 cg        1 9HX      0.307800
     11 H9         -0.6950    0.0010   -2.7960 DU        1 9HX      0.203333
     12 H8          1.8260    0.0010   -2.7960 DU        1 9HX      0.203333
     13 HN7         2.5400    0.0010   -0.4320 DU        1 9HX      0.203333
     14 HN1        -0.9170    0.0010    2.9330 hn        1 9HX      0.414400
     15 H2         -2.8210    0.0010    1.6200 ha        1 9HX      0.124500
@<TRIPOS>BOND
     1    1    2 3   
     2    1   10 1   
     3    2    3 1   
     4    3    4 2   
     5    4    5 2   
     6    5    6 2   
     7    7    8 3   
     8    7   14 1   
     9    8   15 1   
    10    9   10 3   
@<TRIPOS>SUBSTRUCTURE
     1 9HX         1 TEMP              0 ****  ****    0 ROOT
