@<TRIPOS>MOLECULE
9HX
   15    16     1     0     0
SMALL
bcc


@<TRIPOS>ATOM
      1 C9          0.9660    0.0000   -2.0830 cc        1 9HX     -0.176000
      2 C8         -0.3690   -0.0000   -2.5280 cd        1 9HX     -0.117300
      3 N7         -1.2350   -0.0000   -1.4440 na        1 9HX     -0.134100
      4 C5         -0.4730   -0.0000   -0.2850 cd        1 9HX     -0.232900
      5 C6         -0.8930   -0.0000    1.1090 c         1 9HX      0.726100
      6 O6         -2.0670   -0.0010    1.5240 o         1 9HX     -0.643500
      7 N1          0.1880   -0.0000    2.0120 n         1 9HX     -0.486400
      8 C2          1.5100   -0.0000    1.5620 cd        1 9HX      0.459800
      9 N3          1.9200    0.0000    0.3100 nc        1 9HX     -0.568100
     10 C4          0.9190    0.0000   -0.6470 cc        1 9HX      0.121400
     11 H9          1.8580    0.0000   -2.7000 ha        1 9HX      0.171000
     12 H8         -0.7500   -0.0000   -3.5510 h4        1 9HX      0.173000
     13 HN7        -2.2230   -0.0000   -1.4690 hn        1 9HX      0.315700
     14 HN1        -0.0080   -0.0000    2.9860 hn        1 9HX      0.337500
     15 H2          2.2840    0.0000    2.3580 h5        1 9HX      0.052800
@<TRIPOS>BOND
     1    1    2 2   
     2    1   10 1   
     3    1   11 1   
     4    2    3 1   
     5    2   12 1   
     6    3    4 1   
     7    3   13 1   
     8    4    5 1   
     9    4   10 2   
    10    5    6 2   
    11    5    7 1   
    12    7    8 1   
    13    7   14 1   
    14    8    9 2   
    15    8   15 1   
    16    9   10 1   
@<TRIPOS>SUBSTRUCTURE
     1 9HX         1 TEMP              0 ****  ****    0 ROOT
