@<TRIPOS>MOLECULE
9IP
   43    45     1     0     0
SMALL
bcc


@<TRIPOS>ATOM
      1 C1          0.7920   -0.2530   -1.2660 c3        1 9IP      0.104700
      2 O2          2.1890   -0.2180   -0.9570 os        1 9IP     -0.323900
      3 C3          2.5140   -0.0840    0.3680 ca        1 9IP      0.030800
      4 C4          1.5810    0.0570    1.4290 ca        1 9IP      0.377200
      5 N5          1.9620    0.1890    2.7080 nb        1 9IP     -0.601000
      6 C6          3.2780    0.1930    2.9890 ca        1 9IP      0.402200
      7 C7          4.2840    0.0640    2.0030 cp        1 9IP     -0.189300
      8 C8          3.8860   -0.0830    0.6660 ca        1 9IP     -0.134000
      9 C9          5.6910    0.0740    2.3710 cp        1 9IP      0.018000
     10 C10         6.1490    0.8710    3.4370 ca        1 9IP     -0.072000
     11 C11         7.4970    0.8670    3.7980 ca        1 9IP     -0.100000
     12 C12         8.4090    0.0710    3.1070 ca        1 9IP     -0.139000
     13 C13         7.9670   -0.7240    2.0390 ca        1 9IP     -0.238300
     14 C14         8.8980   -1.6910    1.4020 c3        1 9IP      0.172100
     15 N15        10.0050   -0.9970    0.6300 n4        1 9IP     -0.650400
     16 C16         9.7100   -0.7790   -0.7830 ca        1 9IP     -0.127700
     17 C17        10.2870   -1.6520   -1.7400 ca        1 9IP     -0.056000
     18 C18        10.0340   -1.4590   -3.0940 ca        1 9IP     -0.153300
     19 C19         9.2000   -0.3860   -3.4850 ca        1 9IP      0.493200
     20 N20         8.6390    0.4530   -2.6020 nb        1 9IP     -0.619000
     21 C21         8.8800    0.2680   -1.2780 ca        1 9IP      0.501200
     22 N22         8.2140    1.2370   -0.3840 n4        1 9IP     -0.847300
     23 C23         6.6120   -0.7260    1.6770 ca        1 9IP     -0.145000
     24 H11A        0.3020   -1.1190   -0.7610 h1        1 9IP      0.065367
     25 H12A        0.3070    0.7100   -0.9750 h1        1 9IP      0.065367
     26 H13         0.7840   -0.3830   -2.3790 h1        1 9IP      0.065367
     27 H4          0.4900    0.0610    1.2450 h4        1 9IP      0.058100
     28 H6          3.5320    0.2860    4.0610 h4        1 9IP      0.039100
     29 H8          4.6140   -0.1950   -0.1470 ha        1 9IP      0.122000
     30 H10         5.4310    1.4920    4.0030 ha        1 9IP      0.187000
     31 H11         7.8370    1.4790    4.6520 ha        1 9IP      0.184000
     32 H12         9.4580    0.0350    3.4400 ha        1 9IP      0.147000
     33 H141        9.4120   -2.3090    2.2010 hx        1 9IP      0.133200
     34 H142        8.3610   -2.3890    0.6950 hx        1 9IP      0.133200
     35 HN15       10.2250   -0.1020    1.0890 hn        1 9IP      0.467300
     36 H17        10.9410   -2.4890   -1.4270 ha        1 9IP      0.198000
     37 H18        10.4760   -2.1290   -3.8570 ha        1 9IP      0.224000
     38 H19         8.9650   -0.1810   -4.5560 h4        1 9IP      0.108100
     39 H221        7.6750    0.7350    0.3480 hn        1 9IP      0.490467
     40 H222        8.9150    1.8530    0.0450 hn        1 9IP      0.490467
     41 H23         6.2450   -1.4110    0.8930 ha        1 9IP      0.162000
     42 H152       10.8510   -1.5890    0.6860 hn        1 9IP      0.467300
     43 H223        7.5570    1.8290   -0.9270 hn        1 9IP      0.490467
@<TRIPOS>BOND
     1    1    2 1   
     2    1   24 1   
     3    1   25 1   
     4    1   26 1   
     5    2    3 1   
     6    3    4 ar  
     7    3    8 ar  
     8    4    5 ar  
     9    4   27 1   
    10    5    6 ar  
    11    6    7 ar  
    12    6   28 1   
    13    7    8 ar  
    14    7    9 1   
    15    8   29 1   
    16    9   10 ar  
    17    9   23 ar  
    18   10   11 ar  
    19   10   30 1   
    20   11   12 ar  
    21   11   31 1   
    22   12   13 ar  
    23   12   32 1   
    24   13   14 1   
    25   13   23 ar  
    26   14   15 1   
    27   14   33 1   
    28   14   34 1   
    29   15   16 1   
    30   15   35 1   
    31   15   42 1   
    32   16   17 ar  
    33   16   21 ar  
    34   17   18 ar  
    35   17   36 1   
    36   18   19 ar  
    37   18   37 1   
    38   19   20 ar  
    39   19   38 1   
    40   20   21 ar  
    41   21   22 1   
    42   22   39 1   
    43   22   40 1   
    44   22   43 1   
    45   23   41 1   
@<TRIPOS>SUBSTRUCTURE
     1 9IP         1 TEMP              0 ****  ****    0 ROOT
