@<TRIPOS>MOLECULE
9IP
   41    43     1     0     0
SMALL
bcc


@<TRIPOS>ATOM
      1 C1         -0.2980   -0.1530    0.2930 c3        1 9IP      0.110700
      2 O2          1.1210   -0.0460    0.2290 os        1 9IP     -0.318900
      3 C3          1.7830   -0.1030    1.4360 ca        1 9IP      0.010800
      4 C4          1.1620   -0.2740    2.6920 ca        1 9IP      0.325200
      5 N5          1.8600   -0.3250    3.8420 nb        1 9IP     -0.634000
      6 C6          3.1950   -0.2060    3.7750 ca        1 9IP      0.369200
      7 C7          3.9100   -0.0300    2.5640 cp        1 9IP     -0.118300
      8 C8          3.1830    0.0220    1.3710 ca        1 9IP     -0.115000
      9 C9          5.3630    0.0920    2.5700 cp        1 9IP     -0.041000
     10 C10         6.0090    0.8180    3.5810 ca        1 9IP     -0.109000
     11 C11         7.3980    0.9320    3.5840 ca        1 9IP     -0.133000
     12 C12         8.1560    0.3230    2.5860 ca        1 9IP     -0.103000
     13 C13         7.5210   -0.4050    1.5740 ca        1 9IP     -0.104300
     14 C14         8.3330   -1.0970    0.5170 c3        1 9IP      0.223100
     15 N15         9.1900   -0.1850   -0.2160 nh        1 9IP     -0.713600
     16 C16         9.8280   -0.6830   -1.3660 ca        1 9IP      0.005300
     17 C17         9.9090   -2.0600   -1.6530 ca        1 9IP     -0.139000
     18 C18        10.6260   -2.5050   -2.7610 ca        1 9IP     -0.242300
     19 C19        11.2590   -1.5560   -3.5750 ca        1 9IP      0.387200
     20 N20        11.2260   -0.2360   -3.3400 nb        1 9IP     -0.697000
     21 C21        10.5250    0.2210   -2.2650 ca        1 9IP      0.558200
     22 N22        10.4110    1.6210   -2.0630 nh        1 9IP     -0.906500
     23 C23         6.1290   -0.5150    1.5650 ca        1 9IP     -0.105000
     24 H11A       -0.5990   -1.1400    0.7200 h1        1 9IP      0.048033
     25 H12A       -0.6110   -0.0740   -0.7790 h1        1 9IP      0.048033
     26 H13        -0.7300    0.6840    0.8930 h1        1 9IP      0.048033
     27 H4          0.0680   -0.3740    2.7910 h4        1 9IP      0.027100
     28 H6          3.7330   -0.2620    4.7390 h4        1 9IP      0.027100
     29 H8          3.6780    0.1640    0.3990 ha        1 9IP      0.158000
     30 H10         5.4160    1.3060    4.3700 ha        1 9IP      0.139000
     31 H11         7.8980    1.5070    4.3780 ha        1 9IP      0.137000
     32 H12         9.2530    0.4100    2.5910 ha        1 9IP      0.146000
     33 H141        7.6370   -1.6620   -0.1730 h1        1 9IP      0.047200
     34 H142        8.9990   -1.8580    1.0210 h1        1 9IP      0.047200
     35 HN15        8.7460    0.7010   -0.3710 hn        1 9IP      0.404800
     36 H17         9.4100   -2.8000   -1.0090 ha        1 9IP      0.138000
     37 H18        10.6920   -3.5750   -2.9940 ha        1 9IP      0.142000
     38 H19        11.8370   -1.8610   -4.4660 h4        1 9IP      0.021100
     39 H221       10.8770    2.1610   -2.7650 hn        1 9IP      0.386800
     40 H222       10.7190    1.8830   -1.1480 hn        1 9IP      0.386800
     41 H23         5.6250   -1.0880    0.7700 ha        1 9IP      0.139000
@<TRIPOS>BOND
     1    1    2 1   
     2    1   24 1   
     3    1   25 1   
     4    1   26 1   
     5    2    3 1   
     6    3    4 ar  
     7    3    8 ar  
     8    4    5 ar  
     9    4   27 1   
    10    5    6 ar  
    11    6    7 ar  
    12    6   28 1   
    13    7    8 ar  
    14    7    9 1   
    15    8   29 1   
    16    9   10 ar  
    17    9   23 ar  
    18   10   11 ar  
    19   10   30 1   
    20   11   12 ar  
    21   11   31 1   
    22   12   13 ar  
    23   12   32 1   
    24   13   14 1   
    25   13   23 ar  
    26   14   15 1   
    27   14   33 1   
    28   14   34 1   
    29   15   16 1   
    30   15   35 1   
    31   16   17 ar  
    32   16   21 ar  
    33   17   18 ar  
    34   17   36 1   
    35   18   19 ar  
    36   18   37 1   
    37   19   20 ar  
    38   19   38 1   
    39   20   21 ar  
    40   21   22 1   
    41   22   39 1   
    42   22   40 1   
    43   23   41 1   
@<TRIPOS>SUBSTRUCTURE
     1 9IP         1 TEMP              0 ****  ****    0 ROOT
