@<TRIPOS>MOLECULE
9IP
   41    43     1     0     0
SMALL
bcc


@<TRIPOS>ATOM
      1 C1         -0.2990   -0.1560    0.2940 c3        1 9IP      0.110700
      2 O2          1.1190   -0.0470    0.2310 os        1 9IP     -0.318900
      3 C3          1.7820   -0.1100    1.4370 ca        1 9IP      0.010800
      4 C4          1.1610   -0.2880    2.6920 ca        1 9IP      0.325200
      5 N5          1.8600   -0.3440    3.8420 nb        1 9IP     -0.634000
      6 C6          3.1950   -0.2250    3.7750 ca        1 9IP      0.369200
      7 C7          3.9090   -0.0420    2.5650 cp        1 9IP     -0.118300
      8 C8          3.1820    0.0160    1.3720 ca        1 9IP     -0.115000
      9 C9          5.3620    0.0820    2.5720 cp        1 9IP     -0.041000
     10 C10         6.0080    0.8030    3.5860 ca        1 9IP     -0.109000
     11 C11         7.3970    0.9170    3.5890 ca        1 9IP     -0.133000
     12 C12         8.1550    0.3130    2.5880 ca        1 9IP     -0.103000
     13 C13         7.5200   -0.4090    1.5720 ca        1 9IP     -0.104300
     14 C14         8.3320   -1.0950    0.5120 c3        1 9IP      0.223100
     15 N15         9.1900   -0.1800   -0.2150 nu        1 9IP     -0.713600
     16 C16         9.8290   -0.6710   -1.3680 ca        1 9IP      0.005300
     17 C17         9.9090   -2.0460   -1.6640 ca        1 9IP     -0.139000
     18 C18        10.6270   -2.4840   -2.7740 ca        1 9IP     -0.242300
     19 C19        11.2620   -1.5320   -3.5810 ca        1 9IP      0.387200
     20 N20        11.2300   -0.2130   -3.3370 nb        1 9IP     -0.697000
     21 C21        10.5280    0.2380   -2.2600 ca        1 9IP      0.558200
     22 N22        10.4160    1.6370   -2.0490 nv        1 9IP     -0.906500
     23 C23         6.1280   -0.5200    1.5630 ca        1 9IP     -0.105000
     24 H11A       -0.6000   -1.1450    0.7160 h1        1 9IP      0.048033
     25 H12A       -0.6130   -0.0710   -0.7780 h1        1 9IP      0.048033
     26 H13        -0.7320    0.6780    0.8990 h1        1 9IP      0.048033
     27 H4          0.0670   -0.3890    2.7910 h4        1 9IP      0.027100
     28 H6          3.7330   -0.2850    4.7380 h4        1 9IP      0.027100
     29 H8          3.6760    0.1630    0.4010 ha        1 9IP      0.158000
     30 H10         5.4140    1.2860    4.3770 ha        1 9IP      0.139000
     31 H11         7.8960    1.4880    4.3860 ha        1 9IP      0.137000
     32 H12         9.2520    0.4010    2.5930 ha        1 9IP      0.146000
     33 H141        7.6360   -1.6550   -0.1830 h1        1 9IP      0.047200
     34 H142        8.9970   -1.8600    1.0110 h1        1 9IP      0.047200
     35 HN15        8.7480    0.7080   -0.3650 hn        1 9IP      0.404800
     36 H17         9.4090   -2.7890   -1.0240 ha        1 9IP      0.138000
     37 H18        10.6920   -3.5530   -3.0130 ha        1 9IP      0.142000
     38 H19        11.8400   -1.8310   -4.4730 h4        1 9IP      0.021100
     39 H221       10.8830    2.1810   -2.7470 hn        1 9IP      0.386800
     40 H222       10.7230    1.8930   -1.1320 hn        1 9IP      0.386800
     41 H23         5.6250   -1.0890    0.7650 ha        1 9IP      0.139000
@<TRIPOS>BOND
     1    1    2 1   
     2    1   24 1   
     3    1   25 1   
     4    1   26 1   
     5    2    3 1   
     6    3    4 ar  
     7    3    8 ar  
     8    4    5 ar  
     9    4   27 1   
    10    5    6 ar  
    11    6    7 ar  
    12    6   28 1   
    13    7    8 ar  
    14    7    9 1   
    15    8   29 1   
    16    9   10 ar  
    17    9   23 ar  
    18   10   11 ar  
    19   10   30 1   
    20   11   12 ar  
    21   11   31 1   
    22   12   13 ar  
    23   12   32 1   
    24   13   14 1   
    25   13   23 ar  
    26   14   15 1   
    27   14   33 1   
    28   14   34 1   
    29   15   16 1   
    30   15   35 1   
    31   16   17 ar  
    32   16   21 ar  
    33   17   18 ar  
    34   17   36 1   
    35   18   19 ar  
    36   18   37 1   
    37   19   20 ar  
    38   19   38 1   
    39   20   21 ar  
    40   21   22 1   
    41   22   39 1   
    42   22   40 1   
    43   23   41 1   
@<TRIPOS>SUBSTRUCTURE
     1 9IP         1 TEMP              0 ****  ****    0 ROOT
