@<TRIPOS>MOLECULE
9IP
   41    43     1     0     0
SMALL
bcc


@<TRIPOS>ATOM
      1 C1          8.6010   -3.8420   -0.7780 c3        1 9IP      0.110700
      2 O2          7.6530   -3.1230    0.0050 os        1 9IP     -0.318900
      3 C3          6.3660   -3.0940   -0.4870 ca        1 9IP      0.010800
      4 C4          5.9390   -3.7280   -1.6730 ca        1 9IP      0.325200
      5 N5          4.6650   -3.6690   -2.1050 nb        1 9IP     -0.634000
      6 C6          3.7810   -2.9750   -1.3710 ca        1 9IP      0.369200
      7 C7          4.1140   -2.3040   -0.1680 cp        1 9IP     -0.118300
      8 C8          5.4360   -2.3680    0.2800 ca        1 9IP     -0.115000
      9 C9          3.0980   -1.5680    0.5770 cp        1 9IP     -0.041000
     10 C10         2.1250   -0.8200   -0.1010 ca        1 9IP     -0.109000
     11 C11         1.1560   -0.1190    0.6150 ca        1 9IP     -0.133000
     12 C12         1.1420   -0.1610    2.0080 ca        1 9IP     -0.103000
     13 C13         2.1080   -0.9050    2.6930 ca        1 9IP     -0.104300
     14 C14         2.0760   -0.9870    4.1910 c3        1 9IP      0.223100
     15 N15         2.1490    0.3170    4.8240 nh        1 9IP     -0.713600
     16 C16         2.3460    0.3480    6.2160 ca        1 9IP      0.005300
     17 C17         2.1780   -0.7870    7.0330 ca        1 9IP     -0.139000
     18 C18         2.3030   -0.6800    8.4160 ca        1 9IP     -0.242300
     19 C19         2.5960    0.5730    8.9690 ca        1 9IP      0.387200
     20 N20         2.7510    1.6880    8.2390 nb        1 9IP     -0.697000
     21 C21         2.6400    1.6050    6.8840 ca        1 9IP      0.558200
     22 N22         2.8930    2.7620    6.1010 nh        1 9IP     -0.906500
     23 C23         3.0840   -1.6030    1.9780 ca        1 9IP     -0.105000
     24 H11A        9.5540   -3.7240   -0.2020 h1        1 9IP      0.048033
     25 H12A        8.6960   -3.3900   -1.7960 h1        1 9IP      0.048033
     26 H13         8.3150   -4.9190   -0.8520 h1        1 9IP      0.048033
     27 H4          6.6330   -4.3070   -2.3050 h4        1 9IP      0.027100
     28 H6          2.7450   -2.9570   -1.7540 h4        1 9IP      0.027100
     29 H8          5.7590   -1.8620    1.2010 ha        1 9IP      0.158000
     30 H10         2.1330   -0.7790   -1.2010 ha        1 9IP      0.139000
     31 H11         0.3980    0.4690    0.0760 ha        1 9IP      0.137000
     32 H12         0.3740    0.3900    2.5720 ha        1 9IP      0.146000
     33 H141        1.0990   -1.4610    4.5030 h1        1 9IP      0.047200
     34 H142        2.9090   -1.6680    4.5430 h1        1 9IP      0.047200
     35 HN15        2.7620    0.9370    4.3300 hn        1 9IP      0.404800
     36 H17         1.9460   -1.7680    6.5920 ha        1 9IP      0.138000
     37 H18         2.1760   -1.5600    9.0600 ha        1 9IP      0.142000
     38 H19         2.7070    0.7060   10.0600 h4        1 9IP      0.021100
     39 H221        3.1430    3.5620    6.6480 hn        1 9IP      0.386800
     40 H222        2.1230    2.9680    5.4970 hn        1 9IP      0.386800
     41 H23         3.8450   -2.1910    2.5140 ha        1 9IP      0.139000
@<TRIPOS>BOND
     1    1    2 1   
     2    1   24 1   
     3    1   25 1   
     4    1   26 1   
     5    2    3 1   
     6    3    4 ar  
     7    3    8 ar  
     8    4    5 ar  
     9    4   27 1   
    10    5    6 ar  
    11    6    7 ar  
    12    6   28 1   
    13    7    8 ar  
    14    7    9 1   
    15    8   29 1   
    16    9   10 ar  
    17    9   23 ar  
    18   10   11 ar  
    19   10   30 1   
    20   11   12 ar  
    21   11   31 1   
    22   12   13 ar  
    23   12   32 1   
    24   13   14 1   
    25   13   23 ar  
    26   14   15 1   
    27   14   33 1   
    28   14   34 1   
    29   15   16 1   
    30   15   35 1   
    31   16   17 ar  
    32   16   21 ar  
    33   17   18 ar  
    34   17   36 1   
    35   18   19 ar  
    36   18   37 1   
    37   19   20 ar  
    38   19   38 1   
    39   20   21 ar  
    40   21   22 1   
    41   22   39 1   
    42   22   40 1   
    43   23   41 1   
@<TRIPOS>SUBSTRUCTURE
     1 9IP         1 TEMP              0 ****  ****    0 ROOT
