@<TRIPOS>MOLECULE
9IP
   41    35     1     0     0
SMALL
bcc


@<TRIPOS>ATOM
      1 C1          0.8730   -5.8840   -2.8960 c3        1 9IP     -0.079000
      2 O2         -0.3430   -5.2320   -3.2160 os        1 9IP     -0.202000
      3 C3         -0.2080   -3.8510   -3.4420 c2        1 9IP      0.030000
      4 C4          0.2680   -3.3930   -4.6620 c2        1 9IP     -0.139000
      5 N5          0.3060   -2.0540   -4.9200 n1        1 9IP     -0.107000
      6 C6         -0.1240   -1.1640   -3.9780 c1        1 9IP     -0.105000
      7 C7         -0.6000   -1.6200   -2.7590 c1        1 9IP     -0.046000
      8 C8         -0.6380   -2.9610   -2.4990 c1        1 9IP     -0.114000
      9 C9         -1.0130   -0.7060   -1.7820 c1        1 9IP     -0.046000
     10 C10        -2.3400   -0.3230   -1.7100 c1        1 9IP     -0.105000
     11 C11        -2.7540    0.5740   -0.7280 c1        1 9IP     -0.131500
     12 C12        -1.8370    1.0840    0.1770 c1        1 9IP     -0.131500
     13 C13        -0.5030    0.7000    0.1060 c1        1 9IP     -0.120000
     14 C14         0.5030    1.2080    1.1590 c3        1 9IP     -0.033000
     15 N15        -0.1150    2.2480    1.9590 n3        1 9IP     -0.256000
     16 C16         0.5370    2.7160    3.1790 c2        1 9IP     -0.068000
     17 C17         0.6840    1.8700    4.2430 c2        1 9IP     -0.066000
     18 C18         1.2480    2.3230    5.4010 c1        1 9IP     -0.211000
     19 C19         1.6710    3.6420    5.4970 c1        1 9IP     -0.046000
     20 N20         1.5240    4.4860    4.4350 n1        1 9IP     -0.186000
     21 C21         0.9610    4.0360    3.2770 c1        1 9IP      0.058000
     22 N22         0.7100    4.9410    2.2120 n3        1 9IP     -0.315000
     23 C23        -0.0910   -0.1950   -0.8730 c1        1 9IP     -0.104000
     24 H11A        1.1230   -5.6730   -1.9730 h1        1 9IP      0.087333
     25 H12A        1.5780   -5.5760   -3.5040 h1        1 9IP      0.087333
     26 H13         0.7580   -6.8570   -2.9920 h1        1 9IP      0.087333
     27 H4          0.5770   -4.0300   -5.3370 h4        1 9IP      0.164000
     28 H6         -0.0970   -0.2040   -4.1640 ha        1 9IP      0.152500
     29 H8         -0.9740   -3.2830   -1.6400 ha        1 9IP      0.158000
     30 H10        -2.9870   -0.6830   -2.3490 ha        1 9IP      0.152500
     31 H11        -3.6940    0.8450   -0.6780 ha        1 9IP      0.138000
     32 H12        -2.1260    1.7090    0.8610 ha        1 9IP      0.138000
     33 H141        1.2910    1.5700    0.7090 h1        1 9IP      0.104500
     34 H142        0.7720    0.4640    1.7410 h1        1 9IP      0.104500
     35 HN15       -0.8810    2.6440    1.6730 hn        1 9IP      0.182000
     36 H17         0.3880    0.9470    4.1750 ha        1 9IP      0.146000
     37 H18         1.3530    1.7190    6.1610 ha        1 9IP      0.144000
     38 H19         2.0750    3.9670    6.3270 ha        1 9IP      0.158000
     39 H221        0.7830    5.8360    2.3500 hn        1 9IP      0.189500
     40 H222        0.4990    4.6230    1.3830 hn        1 9IP      0.189500
     41 H23         0.8440   -0.4640   -0.9230 ha        1 9IP      0.141000
@<TRIPOS>BOND
     1    1    2 1   
     2    1   24 1   
     3    1   25 1   
     4    1   26 1   
     5    2    3 1   
     6    3    4 1   
     7    3    8 1   
     8    4    5 1   
     9    4   27 1   
    10    6    7 1   
    11    6   28 1   
    12    8   29 1   
    13    9   10 1   
    14   10   30 1   
    15   11   12 1   
    16   11   31 1   
    17   12   32 1   
    18   13   14 1   
    19   13   23 1   
    20   14   15 1   
    21   14   33 1   
    22   14   34 1   
    23   15   16 1   
    24   15   35 1   
    25   16   17 1   
    26   16   21 1   
    27   17   18 1   
    28   17   36 1   
    29   18   37 1   
    30   19   20 1   
    31   19   38 1   
    32   21   22 1   
    33   22   39 1   
    34   22   40 1   
    35   23   41 1   
@<TRIPOS>SUBSTRUCTURE
     1 9IP         1 TEMP              0 ****  ****    0 ROOT
