@<TRIPOS>MOLECULE
9JZ
   75    71     1     0     0
SMALL
bcc


@<TRIPOS>ATOM
      1 O3         -3.3610   -1.1810   -0.6620 o         1 9JZ     -0.366000
      2 C5         -2.1540   -1.0310   -0.7110 c1        1 9JZ      0.265000
      3 C4         -1.3390   -0.8540    0.6230 c2        1 9JZ      0.007000
      4 C12        -1.0540   -2.0870    1.1470 c3        1 9JZ     -0.100000
      5 C18        -1.4840   -2.1990    2.6690 c3        1 9JZ     -0.158000
      6 C17        -1.1530   -3.5550    3.2850 c3        1 9JZ     -0.153500
      7 C16        -0.2180   -4.2090    2.5670 c3        1 9JZ     -0.157000
      8 C15         0.8630   -3.6360    1.9800 c3        1 9JZ     -0.153500
      9 C14         0.5220   -2.2900    1.3820 c3        1 9JZ     -0.158000
     10 N2         -2.1520   -0.0730    1.6010 n         1 9JZ     -0.347000
     11 C3         -1.5920    1.1250    2.2250 c2        1 9JZ      0.309000
     12 O2         -0.3900    1.2420    2.3450 o         1 9JZ     -0.390000
     13 C2         -2.5250    2.2110    2.7700 c3        1 9JZ     -0.027000
     14 C13        -2.6870    3.3000    1.7420 c3        1 9JZ     -0.254000
     15 N1         -1.9690    2.7610    3.9620 n3        1 9JZ     -0.301000
     16 C1         -3.0320    3.0560    4.9020 c3        1 9JZ     -0.123000
     17 N3         -1.4330   -1.3060   -1.9780 n3        1 9JZ     -0.290000
     18 C9         -1.9480   -1.7080   -3.0940 c3        1 9JZ     -0.050000
     19 C8         -0.8220   -2.5180   -3.8590 c3        1 9JZ     -0.175000
     20 C7          0.2850   -1.9050   -3.6440 c3        1 9JZ     -0.119000
     21 C28         1.4810   -2.9400   -3.5690 c3        1 9JZ     -0.213000
     22 C6          0.1040   -1.1700   -2.2350 c3        1 9JZ     -0.008000
     23 C10         0.5810    0.1640   -2.2130 c2        1 9JZ      0.307000
     24 O1         -0.1390    1.0530   -1.8130 o         1 9JZ     -0.360000
     25 N4          1.8130    0.4900   -2.8940 n         1 9JZ     -0.308000
     26 C11         2.1820    1.8680   -3.0950 c2        1 9JZ      0.112000
     27 C27         2.1790    2.4040   -4.3810 c2        1 9JZ     -0.147000
     28 C26         2.7080    3.6660   -4.6090 c1        1 9JZ     -0.101000
     29 C25         3.2410    4.3960   -3.5560 c1        1 9JZ     -0.128000
     30 C24         3.2460    3.8650   -2.2740 c1        1 9JZ     -0.128000
     31 C19         2.7160    2.6010   -2.0420 c1        1 9JZ     -0.060000
     32 C20         2.6030    2.1260   -0.7370 c1        1 9JZ      0.083000
     33 N6          1.8890    2.8380    0.1810 n1        1 9JZ     -0.157000
     34 C23         1.9350    2.5000    1.4770 c1        1 9JZ     -0.030000
     35 C22         2.6960    1.4420    1.8780 c1        1 9JZ     -0.128000
     36 C21         3.4110    0.7280    0.9600 c1        1 9JZ     -0.128000
     37 N5          3.3640    1.0670   -0.3350 n1        1 9JZ     -0.171000
     38 H4         -0.5090   -0.3790    0.4370 h4        1 9JZ      0.133000
     39 H12        -1.4330   -2.8070    0.6140 hc        1 9JZ      0.095000
     40 H18        -1.0230   -1.5010    3.1780 hc        1 9JZ      0.089500
     41 H18A       -2.4510   -2.0510    2.7350 hc        1 9JZ      0.089500
     42 H17        -0.8180   -3.4190    4.1980 hc        1 9JZ      0.081250
     43 H17A       -1.9720   -4.1010    3.3210 hc        1 9JZ      0.081250
     44 H16        -0.7040   -4.6670    1.8460 hc        1 9JZ      0.079500
     45 H16A        0.1370   -4.9110    3.1600 hc        1 9JZ      0.079500
     46 H15         1.5700   -3.5180    2.6540 hc        1 9JZ      0.081250
     47 H15A        1.1930   -4.2280    1.2680 hc        1 9JZ      0.081250
     48 H14         0.8430   -1.5890    1.9850 hc        1 9JZ      0.089500
     49 H14A        0.9830   -2.2020    0.5210 hc        1 9JZ      0.089500
     50 HN2        -3.0210   -0.3090    1.7630 hn        1 9JZ      0.237000
     51 H2         -3.3970    1.8200    2.9690 h1        1 9JZ      0.108000
     52 H13        -3.3250    3.0080    1.0540 hc        1 9JZ      0.092667
     53 H13A       -1.8190    3.4870    1.3250 hc        1 9JZ      0.092667
     54 H13B       -3.0240    4.1160    2.1780 hc        1 9JZ      0.092667
     55 HN1        -1.5180    3.5320    3.7610 hn        1 9JZ      0.180000
     56 H1         -2.6650    3.5590    5.6660 h1        1 9JZ      0.072333
     57 H1A        -3.4280    2.2150    5.2220 h1        1 9JZ      0.072333
     58 H1B        -3.7190    3.5920    4.4590 h1        1 9JZ      0.072333
     59 H9         -2.7220   -2.2940   -2.9160 h1        1 9JZ      0.110000
     60 H9A        -2.2270   -0.9400   -3.6280 h1        1 9JZ      0.110000
     61 H8         -0.7710   -3.4340   -3.5110 hc        1 9JZ      0.097500
     62 H8A        -1.0150   -2.5350   -4.8230 hc        1 9JZ      0.097500
     63 H7          0.4510   -1.2450   -4.3530 hc        1 9JZ      0.144000
     64 H28         1.2970   -3.5990   -2.8750 hc        1 9JZ      0.078333
     65 H28A        2.3110   -2.4650   -3.3570 hc        1 9JZ      0.078333
     66 H28B        1.5760   -3.3930   -4.4320 hc        1 9JZ      0.078333
     67 H6          0.6350   -1.5850   -1.5300 h1        1 9JZ      0.117000
     68 HN4         2.3510   -0.1750   -3.2060 hn        1 9JZ      0.261000
     69 H27         1.8040    1.8910   -5.1220 ha        1 9JZ      0.161000
     70 H26         2.7050    4.0420   -5.5110 ha        1 9JZ      0.133000
     71 H25         3.6130    5.2830   -3.7160 ha        1 9JZ      0.147000
     72 H24         3.6210    4.3790   -1.5350 ha        1 9JZ      0.147000
     73 H23         1.4210    3.0130    2.1370 ha        1 9JZ      0.162000
     74 H22         2.7300    1.1940    2.8240 ha        1 9JZ      0.147000
     75 H21         3.9550   -0.0290    1.2470 ha        1 9JZ      0.147000
@<TRIPOS>BOND
     1    1    2 1   
     2    2   17 1   
     3    3    4 1   
     4    3   10 1   
     5    3   38 1   
     6    4    5 1   
     7    4    9 1   
     8    4   39 1   
     9    5    6 1   
    10    5   40 1   
    11    5   41 1   
    12    6    7 1   
    13    6   42 1   
    14    6   43 1   
    15    7    8 1   
    16    7   44 1   
    17    7   45 1   
    18    8    9 1   
    19    8   46 1   
    20    8   47 1   
    21    9   48 1   
    22    9   49 1   
    23   10   11 1   
    24   10   50 1   
    25   11   12 1   
    26   11   13 1   
    27   13   14 1   
    28   13   15 1   
    29   13   51 1   
    30   14   52 1   
    31   14   53 1   
    32   14   54 1   
    33   15   16 1   
    34   15   55 1   
    35   16   56 1   
    36   16   57 1   
    37   16   58 1   
    38   17   18 1   
    39   17   22 1   
    40   18   19 1   
    41   18   59 1   
    42   18   60 1   
    43   19   20 1   
    44   19   61 1   
    45   19   62 1   
    46   20   21 1   
    47   20   22 1   
    48   20   63 1   
    49   21   64 1   
    50   21   65 1   
    51   21   66 1   
    52   22   23 1   
    53   22   67 1   
    54   23   24 1   
    55   23   25 1   
    56   25   26 1   
    57   25   68 1   
    58   26   27 1   
    59   26   31 1   
    60   27   28 1   
    61   27   69 1   
    62   28   70 1   
    63   29   30 1   
    64   29   71 1   
    65   30   72 1   
    66   32   37 1   
    67   33   34 1   
    68   34   73 1   
    69   35   36 1   
    70   35   74 1   
    71   36   75 1   
@<TRIPOS>SUBSTRUCTURE
     1 9JZ         1 TEMP              0 ****  ****    0 ROOT
