@<TRIPOS>MOLECULE
9JZ
   75    78     1     0     0
SMALL
bcc


@<TRIPOS>ATOM
      1 O3          0.0250    0.8550   -0.0170 o         1 9JZ     -0.639100
      2 C5          0.8950    0.1560   -0.5830 c         1 9JZ      0.640100
      3 C4          2.2730   -0.0560    0.1030 c3        1 9JZ      0.049700
      4 C12         2.0020   -0.7020    1.4830 c3        1 9JZ     -0.068700
      5 C18         3.2990   -0.9030    2.2520 c3        1 9JZ     -0.074400
      6 C17         3.0490   -1.6010    3.5750 c3        1 9JZ     -0.076400
      7 C16         2.3320   -2.9200    3.3810 c3        1 9JZ     -0.078400
      8 C15         1.0450   -2.7280    2.6070 c3        1 9JZ     -0.076400
      9 C14         1.2950   -2.0370    1.2830 c3        1 9JZ     -0.074400
     10 N2          2.9630    1.2050    0.1890 n         1 9JZ     -0.557900
     11 C3          3.9240    1.5930   -0.7200 c         1 9JZ      0.619100
     12 O2          4.2950    0.8310   -1.6370 o         1 9JZ     -0.626100
     13 C2          4.5350    3.0070   -0.5440 c3        1 9JZ      0.118500
     14 C13         3.5260    4.0050   -1.1130 c3        1 9JZ     -0.096100
     15 N1          5.8460    3.1560   -1.1460 n3        1 9JZ     -0.802200
     16 C1          6.8830    2.3810   -0.5150 c3        1 9JZ      0.143100
     17 N3          0.6270   -0.4660   -1.7840 n         1 9JZ     -0.449800
     18 C9          1.6580   -0.9850   -2.6690 c3        1 9JZ      0.073000
     19 C8          1.1180   -0.9280   -4.1050 c3        1 9JZ     -0.088400
     20 C7         -0.3070   -0.3730   -4.0230 c3        1 9JZ     -0.073700
     21 C28        -0.4450    0.9460   -4.7430 c3        1 9JZ     -0.092100
     22 C6         -0.6130   -0.2100   -2.5100 c3        1 9JZ      0.027700
     23 C10        -1.7460   -1.1750   -2.0690 c         1 9JZ      0.662100
     24 O1         -2.2250   -2.0090   -2.8570 o         1 9JZ     -0.595100
     25 N4         -2.1730   -1.0270   -0.7600 n         1 9JZ     -0.459100
     26 C11        -3.2360   -1.7200   -0.1600 ca        1 9JZ      0.105600
     27 C27        -3.6340   -3.0030   -0.6030 ca        1 9JZ     -0.159000
     28 C26        -4.6450   -3.6960    0.0510 ca        1 9JZ     -0.096000
     29 C25        -5.2820   -3.1480    1.1640 ca        1 9JZ     -0.164000
     30 C24        -4.9100   -1.8850    1.6140 ca        1 9JZ     -0.073000
     31 C19        -3.9100   -1.1620    0.9580 cp        1 9JZ     -0.182500
     32 C20        -3.5970    0.2030    1.4590 cp        1 9JZ      0.695500
     33 N6         -3.2220    0.3200    2.7760 nb        1 9JZ     -0.685500
     34 C23        -2.9800    1.5660    3.2220 ca        1 9JZ      0.430200
     35 C22        -3.1000    2.7050    2.4050 ca        1 9JZ     -0.364600
     36 C21        -3.4880    2.4800    1.0710 ca        1 9JZ      0.430200
     37 N5         -3.7390    1.2510    0.5830 nb        1 9JZ     -0.685500
     38 H4          2.9170   -0.7670   -0.4960 h1        1 9JZ      0.099700
     39 H12         1.3240   -0.0220    2.0710 hc        1 9JZ      0.070700
     40 H18         4.0080   -1.5120    1.6330 hc        1 9JZ      0.045450
     41 H18A        3.7880    0.0860    2.4520 hc        1 9JZ      0.045450
     42 H17         4.0290   -1.7760    4.0910 hc        1 9JZ      0.044200
     43 H17A        2.4340   -0.9360    4.2370 hc        1 9JZ      0.044200
     44 H16         3.0000   -3.6310    2.8270 hc        1 9JZ      0.040700
     45 H16A        2.1070   -3.3760    4.3790 hc        1 9JZ      0.040700
     46 H15         0.5650   -3.7240    2.4190 hc        1 9JZ      0.044200
     47 H15A        0.3270   -2.1180    3.2170 hc        1 9JZ      0.044200
     48 H14         0.3130   -1.8680    0.7650 hc        1 9JZ      0.045450
     49 H14A        1.9190   -2.6970    0.6260 hc        1 9JZ      0.045450
     50 HN2         2.5960    1.8700    0.8300 hn        1 9JZ      0.321500
     51 H2          4.6570    3.2080    0.5630 h1        1 9JZ      0.072700
     52 H13         3.3250    3.7990   -2.1920 hc        1 9JZ      0.050700
     53 H13A        2.5670    3.9310   -0.5470 hc        1 9JZ      0.050700
     54 H13B        3.9180    5.0470   -1.0180 hc        1 9JZ      0.050700
     55 HN1         5.7960    2.9450   -2.1280 hn        1 9JZ      0.375800
     56 H1          7.8450    2.5750   -1.0580 h1        1 9JZ      0.038367
     57 H1A         6.9990    2.7140    0.5500 h1        1 9JZ      0.038367
     58 H1B         6.6820    1.2740   -0.5220 h1        1 9JZ      0.038367
     59 H9          2.6060   -0.3800   -2.5800 h1        1 9JZ      0.066700
     60 H9A         1.8860   -2.0460   -2.3730 h1        1 9JZ      0.066700
     61 H8          1.7690   -0.2760   -4.7370 hc        1 9JZ      0.059200
     62 H8A         1.1140   -1.9520   -4.5540 hc        1 9JZ      0.059200
     63 H7         -1.0260   -1.1120   -4.4740 hc        1 9JZ      0.101700
     64 H28        -0.2030    0.8140   -5.8260 hc        1 9JZ      0.040033
     65 H28A       -1.4910    1.3270   -4.6590 hc        1 9JZ      0.040033
     66 H28B        0.2480    1.7110   -4.3170 hc        1 9JZ      0.040033
     67 H6         -0.9690    0.8430   -2.2940 h1        1 9JZ      0.088700
     68 HN4        -1.7840   -0.2680   -0.2360 hn        1 9JZ      0.347500
     69 H27        -3.1470   -3.4590   -1.4810 ha        1 9JZ      0.168000
     70 H26        -4.9400   -4.6910   -0.3160 ha        1 9JZ      0.134000
     71 H25        -6.0730   -3.7070    1.6820 ha        1 9JZ      0.134000
     72 H24        -5.4090   -1.4470    2.4910 ha        1 9JZ      0.141000
     73 H23        -2.6760    1.6490    4.2810 h4        1 9JZ      0.027600
     74 H22        -2.9000    3.7120    2.7850 ha        1 9JZ      0.153000
     75 H21        -3.6050    3.3150    0.3570 h4        1 9JZ      0.027600
@<TRIPOS>BOND
     1    1    2 2   
     2    2    3 1   
     3    2   17 1   
     4    3    4 1   
     5    3   10 1   
     6    3   38 1   
     7    4    5 1   
     8    4    9 1   
     9    4   39 1   
    10    5    6 1   
    11    5   40 1   
    12    5   41 1   
    13    6    7 1   
    14    6   42 1   
    15    6   43 1   
    16    7    8 1   
    17    7   44 1   
    18    7   45 1   
    19    8    9 1   
    20    8   46 1   
    21    8   47 1   
    22    9   48 1   
    23    9   49 1   
    24   10   11 1   
    25   10   50 1   
    26   11   12 2   
    27   11   13 1   
    28   13   14 1   
    29   13   15 1   
    30   13   51 1   
    31   14   52 1   
    32   14   53 1   
    33   14   54 1   
    34   15   16 1   
    35   15   55 1   
    36   16   56 1   
    37   16   57 1   
    38   16   58 1   
    39   17   18 1   
    40   17   22 1   
    41   18   19 1   
    42   18   59 1   
    43   18   60 1   
    44   19   20 1   
    45   19   61 1   
    46   19   62 1   
    47   20   21 1   
    48   20   22 1   
    49   20   63 1   
    50   21   64 1   
    51   21   65 1   
    52   21   66 1   
    53   22   23 1   
    54   22   67 1   
    55   23   24 2   
    56   23   25 1   
    57   25   26 1   
    58   25   68 1   
    59   26   27 ar  
    60   26   31 ar  
    61   27   28 ar  
    62   27   69 1   
    63   28   29 ar  
    64   28   70 1   
    65   29   30 ar  
    66   29   71 1   
    67   30   31 ar  
    68   30   72 1   
    69   31   32 1   
    70   32   33 ar  
    71   32   37 ar  
    72   33   34 ar  
    73   34   35 ar  
    74   34   73 1   
    75   35   36 ar  
    76   35   74 1   
    77   36   37 ar  
    78   36   75 1   
@<TRIPOS>SUBSTRUCTURE
     1 9JZ         1 TEMP              0 ****  ****    0 ROOT
