@<TRIPOS>MOLECULE
9JZ
   77    80     1     0     0
SMALL
bcc


@<TRIPOS>ATOM
      1 O3          0.4670    0.4190    0.9290 o         1 9JZ     -0.643100
      2 C5          1.6480    0.1230    0.6270 c         1 9JZ      0.668100
      3 C4          2.5040   -0.5180    1.7580 c3        1 9JZ      0.058500
      4 C12         2.3050   -2.0570    1.7340 c3        1 9JZ     -0.084700
      5 C18         2.6590   -2.7180    3.0600 c3        1 9JZ     -0.082900
      6 C17         2.5510   -4.2310    2.9740 c3        1 9JZ     -0.076400
      7 C16         3.4080   -4.7880    1.8600 c3        1 9JZ     -0.087400
      8 C15         3.0430   -4.1440    0.5420 c3        1 9JZ     -0.076400
      9 C14         3.1610   -2.6340    0.6080 c3        1 9JZ     -0.082900
     10 N2          2.0080    0.0530    3.0870 n4        1 9JZ     -0.656800
     11 C3          2.1680    1.5220    3.2100 c         1 9JZ      0.520100
     12 O2          3.2130    2.0430    2.8390 o         1 9JZ     -0.404100
     13 C2          1.0020    2.3020    3.8480 c3        1 9JZ      0.064500
     14 C13        -0.2810    2.1310    3.0430 c3        1 9JZ     -0.152100
     15 N1          1.3670    3.7620    3.9840 n4        1 9JZ     -0.762000
     16 C1          0.6990    4.4020    5.1460 c3        1 9JZ      0.076100
     17 N3          2.2070    0.4580   -0.5730 n         1 9JZ     -0.407800
     18 C9          3.6270    0.3950   -0.8910 c3        1 9JZ      0.066000
     19 C8          3.7610    0.5860   -2.4090 c3        1 9JZ     -0.087400
     20 C7          2.3510    0.4840   -2.9970 c3        1 9JZ     -0.070700
     21 C28         2.0270    1.6440   -3.9060 c3        1 9JZ     -0.102100
     22 C6          1.3810    0.4300   -1.7880 c3        1 9JZ      0.014700
     23 C10         0.4740   -0.8330   -1.8560 c         1 9JZ      0.653100
     24 O1          0.5380   -1.6890   -0.9470 o         1 9JZ     -0.635100
     25 N4         -0.3640   -0.8970   -2.9350 n         1 9JZ     -0.437100
     26 C11        -1.2770   -1.9450   -3.1980 ca        1 9JZ      0.064600
     27 C27        -0.9920   -3.2660   -2.7930 ca        1 9JZ     -0.147000
     28 C26        -1.8770   -4.3010   -3.0810 ca        1 9JZ     -0.096000
     29 C25        -3.0580   -4.0460   -3.7730 ca        1 9JZ     -0.131000
     30 C24        -3.3580   -2.7470   -4.1740 ca        1 9JZ     -0.068000
     31 C19        -2.4860   -1.6880   -3.8920 cp        1 9JZ     -0.153500
     32 C20        -2.8870   -0.3310   -4.3560 cp        1 9JZ      0.692500
     33 N6         -4.1780    0.0570   -4.0840 nb        1 9JZ     -0.705500
     34 C23        -4.5710    1.2420   -4.5840 ca        1 9JZ      0.433200
     35 C22        -3.7210    2.0640   -5.3500 ca        1 9JZ     -0.354600
     36 C21        -2.4110    1.5950   -5.5500 ca        1 9JZ      0.433200
     37 N5         -1.9770    0.4170   -5.0590 nb        1 9JZ     -0.705500
     38 H4          3.5960   -0.2480    1.6770 hx        1 9JZ      0.128700
     39 H12         1.2220   -2.2660    1.4820 hc        1 9JZ      0.121700
     40 H18         1.9560   -2.3920    3.8740 hc        1 9JZ      0.041950
     41 H18A        3.7050   -2.4400    3.3560 hc        1 9JZ      0.041950
     42 H17         2.8690   -4.6720    3.9560 hc        1 9JZ      0.067700
     43 H17A        1.4800   -4.5180    2.8040 hc        1 9JZ      0.067700
     44 H16         3.2560   -5.8980    1.7930 hc        1 9JZ      0.065700
     45 H16A        4.4920   -4.6120    2.0860 hc        1 9JZ      0.065700
     46 H15         3.7220   -4.5240   -0.2670 hc        1 9JZ      0.067700
     47 H15A        1.9930   -4.4230    0.2590 hc        1 9JZ      0.067700
     48 H14         4.2350   -2.3500    0.7650 hc        1 9JZ      0.041950
     49 H14A        2.8040   -2.2170   -0.3720 hc        1 9JZ      0.041950
     50 HN2         1.0060   -0.2000    3.1510 hn        1 9JZ      0.490800
     51 H2          0.8520    1.8990    4.9010 hx        1 9JZ      0.143700
     52 H13        -0.6320    1.0670    3.0800 hc        1 9JZ      0.114033
     53 H13A       -1.1030    2.7640    3.4660 hc        1 9JZ      0.114033
     54 H13B       -0.1370    2.3920    1.9610 hc        1 9JZ      0.114033
     55 HN1         1.0850    4.2500    3.1190 hn        1 9JZ      0.476300
     56 H1          0.9550    5.5000    5.1460 hx        1 9JZ      0.126700
     57 H1A        -0.4160    4.2790    5.0620 hx        1 9JZ      0.126700
     58 H1B         1.0620    3.9360    6.1020 hx        1 9JZ      0.126700
     59 H9          4.0830   -0.5850   -0.5810 h1        1 9JZ      0.057200
     60 H9A         4.1500    1.2220   -0.3360 h1        1 9JZ      0.057200
     61 H8          4.2160    1.5840   -2.6330 hc        1 9JZ      0.081700
     62 H8A         4.4300   -0.2000   -2.8390 hc        1 9JZ      0.081700
     63 H7          2.2700   -0.4720   -3.5850 hc        1 9JZ      0.089700
     64 H28         1.0010    1.5340   -4.3350 hc        1 9JZ      0.056033
     65 H28A        2.0820    2.6150   -3.3570 hc        1 9JZ      0.056033
     66 H28B        2.7580    1.6760   -4.7530 hc        1 9JZ      0.056033
     67 H6          0.7100    1.3380   -1.7610 h1        1 9JZ      0.099700
     68 HN4        -0.3070   -0.1720   -3.6190 hn        1 9JZ      0.351500
     69 H27        -0.0670   -3.4870   -2.2390 ha        1 9JZ      0.150000
     70 H26        -1.6350   -5.3260   -2.7610 ha        1 9JZ      0.147000
     71 H25        -3.7550   -4.8670   -4.0060 ha        1 9JZ      0.155000
     72 H24        -4.2970   -2.5520   -4.7190 ha        1 9JZ      0.162000
     73 H23        -5.6150    1.5360   -4.3660 h4        1 9JZ      0.038100
     74 H22        -4.0660    3.0150   -5.7740 ha        1 9JZ      0.169000
     75 H21        -1.6760    2.1750   -6.1380 h4        1 9JZ      0.038100
     76 H221        2.5350   -0.4120    3.8430 hn        1 9JZ      0.490800
     77 H121        2.3900    3.8600    4.0810 hn        1 9JZ      0.476300
@<TRIPOS>BOND
     1    1    2 2   
     2    2    3 1   
     3    2   17 1   
     4    3    4 1   
     5    3   10 1   
     6    3   38 1   
     7    4    5 1   
     8    4    9 1   
     9    4   39 1   
    10    5    6 1   
    11    5   40 1   
    12    5   41 1   
    13    6    7 1   
    14    6   42 1   
    15    6   43 1   
    16    7    8 1   
    17    7   44 1   
    18    7   45 1   
    19    8    9 1   
    20    8   46 1   
    21    8   47 1   
    22    9   48 1   
    23    9   49 1   
    24   10   11 1   
    25   10   50 1   
    26   10   76 1   
    27   11   12 2   
    28   11   13 1   
    29   13   14 1   
    30   13   15 1   
    31   13   51 1   
    32   14   52 1   
    33   14   53 1   
    34   14   54 1   
    35   15   16 1   
    36   15   55 1   
    37   15   77 1   
    38   16   56 1   
    39   16   57 1   
    40   16   58 1   
    41   17   18 1   
    42   17   22 1   
    43   18   19 1   
    44   18   59 1   
    45   18   60 1   
    46   19   20 1   
    47   19   61 1   
    48   19   62 1   
    49   20   21 1   
    50   20   22 1   
    51   20   63 1   
    52   21   64 1   
    53   21   65 1   
    54   21   66 1   
    55   22   23 1   
    56   22   67 1   
    57   23   24 2   
    58   23   25 1   
    59   25   26 1   
    60   25   68 1   
    61   26   27 ar  
    62   26   31 ar  
    63   27   28 ar  
    64   27   69 1   
    65   28   29 ar  
    66   28   70 1   
    67   29   30 ar  
    68   29   71 1   
    69   30   31 ar  
    70   30   72 1   
    71   31   32 1   
    72   32   33 ar  
    73   32   37 ar  
    74   33   34 ar  
    75   34   35 ar  
    76   34   73 1   
    77   35   36 ar  
    78   35   74 1   
    79   36   37 ar  
    80   36   75 1   
@<TRIPOS>SUBSTRUCTURE
     1 9JZ         1 TEMP              0 ****  ****    0 ROOT
