@<TRIPOS>MOLECULE
9JZ
   77    80     1     0     0
SMALL
bcc


@<TRIPOS>ATOM
      1 O3          1.0670    1.1460    0.0520 o         1 9JZ     -0.688100
      2 C5          2.1800    0.5500    0.1260 c         1 9JZ      0.691100
      3 C4          2.8370    0.4460    1.5190 c3        1 9JZ      0.079500
      4 C12         3.0160   -0.9820    2.0930 c3        1 9JZ     -0.084700
      5 C18         4.4480   -1.1560    2.5960 c3        1 9JZ     -0.091400
      6 C17         4.5860   -2.4740    3.3350 c3        1 9JZ     -0.080900
      7 C16         4.1420   -3.6460    2.4850 c3        1 9JZ     -0.089400
      8 C15         2.7480   -3.4420    1.9290 c3        1 9JZ     -0.080900
      9 C14         2.6510   -2.1320    1.1650 c3        1 9JZ     -0.091400
     10 N2          2.0760    1.3150    2.5190 ny        1 9JZ     -0.663800
     11 C3          0.6810    1.7610    2.1450 c         1 9JZ      0.551100
     12 O2          0.5730    2.9380    1.8240 o         1 9JZ     -0.415100
     13 C2         -0.5470    0.8570    2.3630 c3        1 9JZ      0.096500
     14 C13        -0.2350   -0.5360    2.8740 c3        1 9JZ     -0.156100
     15 N1         -1.3750    0.8300    1.1050 ny        1 9JZ     -0.752000
     16 C1         -2.7860    0.4690    1.3630 c3        1 9JZ      0.085100
     17 N3          2.7860    0.1260   -1.0080 n         1 9JZ     -0.395800
     18 C9          4.1660   -0.3040   -1.1860 c3        1 9JZ      0.072000
     19 C8          4.1860   -1.2650   -2.3840 c3        1 9JZ     -0.092400
     20 C7          2.8120   -1.1690   -3.0590 c3        1 9JZ     -0.067700
     21 C28         2.9160   -0.7070   -4.4920 c3        1 9JZ     -0.105100
     22 C6          1.9870   -0.1670   -2.2060 c3        1 9JZ      0.026700
     23 C10         0.5790   -0.7150   -1.8760 c         1 9JZ      0.683100
     24 O1          0.2560   -1.0190   -0.6980 o         1 9JZ     -0.700100
     25 N4         -0.3040   -0.8170   -2.9110 ns        1 9JZ     -0.445100
     26 C11        -1.6720   -1.1450   -2.7000 ca        1 9JZ      0.031600
     27 C27        -2.0930   -2.4870   -2.6660 ca        1 9JZ     -0.107000
     28 C26        -3.4400   -2.7890   -2.4700 ca        1 9JZ     -0.103000
     29 C25        -4.3760   -1.7720   -2.2940 ca        1 9JZ     -0.110000
     30 C24        -3.9710   -0.4370   -2.3240 ca        1 9JZ     -0.107000
     31 C19        -2.6280   -0.1180   -2.5320 cp        1 9JZ     -0.156500
     32 C20        -2.2400    1.3140   -2.6590 cp        1 9JZ      0.691500
     33 N6         -2.3130    2.1060   -1.5430 nb        1 9JZ     -0.727500
     34 C23        -2.0650    3.4220   -1.7280 ca        1 9JZ      0.436700
     35 C22        -1.7290    3.9630   -2.9790 ca        1 9JZ     -0.333600
     36 C21        -1.6250    3.0540   -4.0530 ca        1 9JZ      0.436700
     37 N5         -1.8660    1.7370   -3.9090 nb        1 9JZ     -0.727500
     38 H4          3.8660    0.9240    1.4350 hx        1 9JZ      0.131700
     39 H12         2.3420   -1.1080    2.9970 hc        1 9JZ      0.056700
     40 H18         5.1630   -1.1360    1.7320 hc        1 9JZ      0.059950
     41 H18A        4.7180   -0.3130    3.2830 hc        1 9JZ      0.059950
     42 H17         3.9790   -2.4410    4.2780 hc        1 9JZ      0.062200
     43 H17A        5.6590   -2.6120    3.6340 hc        1 9JZ      0.062200
     44 H16         4.8650   -3.7910    1.6390 hc        1 9JZ      0.068700
     45 H16A        4.1640   -4.5820    3.1040 hc        1 9JZ      0.068700
     46 H15         1.9990   -3.4530    2.7640 hc        1 9JZ      0.062200
     47 H15A        2.4910   -4.2870    1.2370 hc        1 9JZ      0.062200
     48 H14         3.3580   -2.1910    0.2970 hc        1 9JZ      0.059950
     49 H14A        1.6170   -1.9980    0.7520 hc        1 9JZ      0.059950
     50 HN2         2.0320    0.8170    3.4170 hn        1 9JZ      0.472300
     51 H2         -1.1620    1.4070    3.1510 hx        1 9JZ      0.141700
     52 H13         0.3520   -1.1300    2.1260 hc        1 9JZ      0.095033
     53 H13A       -1.1840   -1.0970    3.0850 hc        1 9JZ      0.095033
     54 H13B        0.3210   -0.4740    3.8410 hc        1 9JZ      0.095033
     55 HN1        -0.9490    0.1530    0.4320 hn        1 9JZ      0.498800
     56 H1         -2.8440   -0.5510    1.8280 hx        1 9JZ      0.115033
     57 H1A        -3.2610    1.2280    2.0400 hx        1 9JZ      0.115033
     58 H1B        -3.3280    0.4580    0.3720 hx        1 9JZ      0.115033
     59 H9          4.5750   -0.7830   -0.2570 h1        1 9JZ      0.072700
     60 H9A         4.7850    0.6130   -1.4080 h1        1 9JZ      0.072700
     61 H8          5.0050   -0.9770   -3.0910 hc        1 9JZ      0.086700
     62 H8A         4.3810   -2.3110   -2.0400 hc        1 9JZ      0.086700
     63 H7          2.3130   -2.1760   -3.0310 hc        1 9JZ      0.083700
     64 H28         3.4130    0.2920   -4.5600 hc        1 9JZ      0.059700
     65 H28A        1.9040   -0.6340   -4.9590 hc        1 9JZ      0.059700
     66 H28B        3.5200   -1.4400   -5.0820 hc        1 9JZ      0.059700
     67 H6          1.8530    0.8100   -2.7630 h1        1 9JZ      0.107700
     68 HN4        -0.0450   -0.5460   -3.8360 hn        1 9JZ      0.355500
     69 H27        -1.3660   -3.3030   -2.8040 ha        1 9JZ      0.157000
     70 H26        -3.7640   -3.8430   -2.4660 ha        1 9JZ      0.164000
     71 H25        -5.4410   -2.0190   -2.1510 ha        1 9JZ      0.164000
     72 H24        -4.7160    0.3680   -2.2150 ha        1 9JZ      0.158000
     73 H23        -2.1520    4.0670   -0.8340 h4        1 9JZ      0.044100
     74 H22        -1.5600    5.0390   -3.1190 ha        1 9JZ      0.182000
     75 H21        -1.3480    3.3900   -5.0720 h4        1 9JZ      0.044100
     76 H221        2.6270    2.1800    2.6520 hn        1 9JZ      0.472300
     77 H121       -1.3310    1.7610    0.6580 hn        1 9JZ      0.498800
@<TRIPOS>BOND
     1    1    2 2   
     2    2    3 1   
     3    2   17 1   
     4    3    4 1   
     5    3   10 1   
     6    3   38 1   
     7    4    5 1   
     8    4    9 1   
     9    4   39 1   
    10    5    6 1   
    11    5   40 1   
    12    5   41 1   
    13    6    7 1   
    14    6   42 1   
    15    6   43 1   
    16    7    8 1   
    17    7   44 1   
    18    7   45 1   
    19    8    9 1   
    20    8   46 1   
    21    8   47 1   
    22    9   48 1   
    23    9   49 1   
    24   10   11 1   
    25   10   50 1   
    26   10   76 1   
    27   11   12 2   
    28   11   13 1   
    29   13   14 1   
    30   13   15 1   
    31   13   51 1   
    32   14   52 1   
    33   14   53 1   
    34   14   54 1   
    35   15   16 1   
    36   15   55 1   
    37   15   77 1   
    38   16   56 1   
    39   16   57 1   
    40   16   58 1   
    41   17   18 1   
    42   17   22 1   
    43   18   19 1   
    44   18   59 1   
    45   18   60 1   
    46   19   20 1   
    47   19   61 1   
    48   19   62 1   
    49   20   21 1   
    50   20   22 1   
    51   20   63 1   
    52   21   64 1   
    53   21   65 1   
    54   21   66 1   
    55   22   23 1   
    56   22   67 1   
    57   23   24 2   
    58   23   25 1   
    59   25   26 1   
    60   25   68 1   
    61   26   27 ar  
    62   26   31 ar  
    63   27   28 ar  
    64   27   69 1   
    65   28   29 ar  
    66   28   70 1   
    67   29   30 ar  
    68   29   71 1   
    69   30   31 ar  
    70   30   72 1   
    71   31   32 1   
    72   32   33 ar  
    73   32   37 ar  
    74   33   34 ar  
    75   34   35 ar  
    76   34   73 1   
    77   35   36 ar  
    78   35   74 1   
    79   36   37 ar  
    80   36   75 1   
@<TRIPOS>SUBSTRUCTURE
     1 9JZ         1 TEMP              0 ****  ****    0 ROOT
