@<TRIPOS>MOLECULE
9JZ
   78    81     1     0     0
SMALL
bcc


@<TRIPOS>ATOM
      1 O3          0.1120    1.0000   -0.0430 o         1 9JZ     -0.603100
      2 C5          1.2500    0.4810   -0.0120 c         1 9JZ      0.654100
      3 C4          1.8890    0.2340    1.3840 c3        1 9JZ      0.071500
      4 C12         1.4100   -1.1100    1.9760 c3        1 9JZ     -0.089700
      5 C18         2.0630   -1.3600    3.3300 c3        1 9JZ     -0.077400
      6 C17         1.5840   -2.6710    3.9260 c3        1 9JZ     -0.080900
      7 C16         1.8690   -3.8280    2.9920 c3        1 9JZ     -0.088400
      8 C15         1.2710   -3.5820    1.6250 c3        1 9JZ     -0.080900
      9 C14         1.7400   -2.2650    1.0330 c3        1 9JZ     -0.077400
     10 N2          1.4520    1.3890    2.2910 n4        1 9JZ     -0.661800
     11 C3          2.5280    1.9320    3.1640 c         1 9JZ      0.515100
     12 O2          3.6740    1.9770    2.7390 o         1 9JZ     -0.388100
     13 C2          2.1040    2.4130    4.5650 c3        1 9JZ      0.061500
     14 C13         0.9860    3.4440    4.4530 c3        1 9JZ     -0.160100
     15 N1          3.2910    2.9550    5.3220 n4        1 9JZ     -0.760000
     16 C1          3.1390    2.7940    6.7950 c3        1 9JZ      0.074100
     17 N3          1.9330    0.1570   -1.1490 n         1 9JZ     -0.432800
     18 C9          3.3430   -0.2050   -1.2360 c3        1 9JZ      0.079000
     19 C8          3.7540   -0.0760   -2.7090 c3        1 9JZ     -0.091400
     20 C7          2.4680    0.1310   -3.5150 c3        1 9JZ     -0.071700
     21 C28         2.5420    1.3470   -4.4060 c3        1 9JZ     -0.112100
     22 C6          1.3230    0.2740   -2.4690 c3        1 9JZ      0.034700
     23 C10         0.2390   -0.7930   -2.7180 c         1 9JZ      0.518100
     24 O1         -0.0810   -1.6800   -1.9400 o         1 9JZ     -0.404100
     25 N4         -0.4860   -0.6600   -4.0180 n4        1 9JZ     -0.566200
     26 C11        -0.8410   -1.9380   -4.6480 ca        1 9JZ     -0.020400
     27 C27         0.2070   -2.8230   -4.9620 ca        1 9JZ     -0.128000
     28 C26        -0.0610   -4.0330   -5.5940 ca        1 9JZ     -0.082000
     29 C25        -1.3750   -4.3710   -5.9110 ca        1 9JZ     -0.074000
     30 C24        -2.4180   -3.4990   -5.6020 ca        1 9JZ     -0.062000
     31 C19        -2.1830   -2.2670   -4.9670 cp        1 9JZ     -0.096500
     32 C20        -3.3490   -1.3760   -4.6940 cp        1 9JZ      0.695500
     33 N6         -4.5960   -1.8430   -5.0210 nb        1 9JZ     -0.739000
     34 C23        -5.6410   -1.0230   -4.8040 ca        1 9JZ      0.466200
     35 C22        -5.4890    0.2710   -4.2600 ca        1 9JZ     -0.318600
     36 C21        -4.1790    0.6680   -3.9410 ca        1 9JZ      0.466200
     37 N5         -3.1190   -0.1370   -4.1490 nb        1 9JZ     -0.739000
     38 H4          3.0180    0.2500    1.3270 hx        1 9JZ      0.137700
     39 H12         0.2870   -1.0800    2.0940 hc        1 9JZ      0.094700
     40 H18         1.8230   -0.5280    4.0460 hc        1 9JZ      0.038200
     41 H18A        3.1790   -1.3970    3.2090 hc        1 9JZ      0.038200
     42 H17         2.1030   -2.8420    4.9060 hc        1 9JZ      0.070700
     43 H17A        0.4820   -2.6120    4.1310 hc        1 9JZ      0.070700
     44 H16         2.9770   -3.9800    2.9040 hc        1 9JZ      0.076200
     45 H16A        1.4370   -4.7700    3.4250 hc        1 9JZ      0.076200
     46 H15         1.5670   -4.4130    0.9300 hc        1 9JZ      0.070700
     47 H15A        0.1510   -3.5860    1.6920 hc        1 9JZ      0.070700
     48 H14         1.2260   -2.1150    0.0470 hc        1 9JZ      0.038200
     49 H14A        2.8480   -2.3050    0.8630 hc        1 9JZ      0.038200
     50 HN2         0.6640    1.0540    2.8670 hn        1 9JZ      0.489800
     51 H2          1.7320    1.5020    5.1410 hx        1 9JZ      0.159700
     52 H13         0.0470    2.9570    4.0870 hc        1 9JZ      0.109033
     53 H13A        1.2590    4.2840    3.7660 hc        1 9JZ      0.109033
     54 H13B        0.7430    3.8830    5.4590 hc        1 9JZ      0.109033
     55 HN1         4.1520    2.4730    5.0170 hn        1 9JZ      0.480300
     56 H1          3.1110    1.7030    7.0620 hx        1 9JZ      0.132700
     57 H1A         2.1970    3.2990    7.1420 hx        1 9JZ      0.132700
     58 H1B         4.0280    3.2780    7.2970 hx        1 9JZ      0.132700
     59 H9          3.9560    0.4870   -0.5950 h1        1 9JZ      0.070200
     60 H9A         3.4840   -1.2620   -0.8720 h1        1 9JZ      0.070200
     61 H8          4.2910   -1.0000   -3.0430 hc        1 9JZ      0.098200
     62 H8A         4.4520    0.7900   -2.8440 hc        1 9JZ      0.098200
     63 H7          2.2950   -0.7820   -4.1480 hc        1 9JZ      0.073700
     64 H28         3.3880    1.2320   -5.1320 hc        1 9JZ      0.066700
     65 H28A        2.7200    2.2760   -3.8110 hc        1 9JZ      0.066700
     66 H28B        1.5990    1.4750   -4.9900 hc        1 9JZ      0.066700
     67 H6          0.8170    1.2850   -2.5470 h1        1 9JZ      0.118700
     68 HN4        -1.4010   -0.1190   -3.8480 hn        1 9JZ      0.493800
     69 H27         1.2520   -2.5720   -4.7160 ha        1 9JZ      0.137000
     70 H26         0.7680   -4.7180   -5.8440 ha        1 9JZ      0.177000
     71 H25        -1.5960   -5.3300   -6.4130 ha        1 9JZ      0.186000
     72 H24        -3.4490   -3.7990   -5.8740 ha        1 9JZ      0.201000
     73 H23        -6.6370   -1.4240   -5.0820 h4        1 9JZ      0.056600
     74 H22        -6.3510    0.9330   -4.0990 ha        1 9JZ      0.193000
     75 H21        -3.9670    1.6640   -3.5100 h4        1 9JZ      0.056600
     76 H221        1.0880    2.1540    1.6890 hn        1 9JZ      0.489800
     77 H121        3.3960    3.9590    5.1040 hn        1 9JZ      0.480300
     78 H42         0.0910   -0.1280   -4.6790 hn        1 9JZ      0.493800
@<TRIPOS>BOND
     1    1    2 2   
     2    2    3 1   
     3    2   17 1   
     4    3    4 1   
     5    3   10 1   
     6    3   38 1   
     7    4    5 1   
     8    4    9 1   
     9    4   39 1   
    10    5    6 1   
    11    5   40 1   
    12    5   41 1   
    13    6    7 1   
    14    6   42 1   
    15    6   43 1   
    16    7    8 1   
    17    7   44 1   
    18    7   45 1   
    19    8    9 1   
    20    8   46 1   
    21    8   47 1   
    22    9   48 1   
    23    9   49 1   
    24   10   11 1   
    25   10   50 1   
    26   10   76 1   
    27   11   12 2   
    28   11   13 1   
    29   13   14 1   
    30   13   15 1   
    31   13   51 1   
    32   14   52 1   
    33   14   53 1   
    34   14   54 1   
    35   15   16 1   
    36   15   55 1   
    37   15   77 1   
    38   16   56 1   
    39   16   57 1   
    40   16   58 1   
    41   17   18 1   
    42   17   22 1   
    43   18   19 1   
    44   18   59 1   
    45   18   60 1   
    46   19   20 1   
    47   19   61 1   
    48   19   62 1   
    49   20   21 1   
    50   20   22 1   
    51   20   63 1   
    52   21   64 1   
    53   21   65 1   
    54   21   66 1   
    55   22   23 1   
    56   22   67 1   
    57   23   24 2   
    58   23   25 1   
    59   25   26 1   
    60   25   68 1   
    61   25   78 1   
    62   26   27 ar  
    63   26   31 ar  
    64   27   28 ar  
    65   27   69 1   
    66   28   29 ar  
    67   28   70 1   
    68   29   30 ar  
    69   29   71 1   
    70   30   31 ar  
    71   30   72 1   
    72   31   32 1   
    73   32   33 ar  
    74   32   37 ar  
    75   33   34 ar  
    76   34   35 ar  
    77   34   73 1   
    78   35   36 ar  
    79   35   74 1   
    80   36   37 ar  
    81   36   75 1   
@<TRIPOS>SUBSTRUCTURE
     1 9JZ         1 TEMP              0 ****  ****    0 ROOT
