@<TRIPOS>MOLECULE
9KQ
   32    26     1     0     0
SMALL
bcc


@<TRIPOS>ATOM
      1 N1         -0.6490   -0.0020   -0.5040 n1        1 9KQ     -0.188000
      2 C2          0.7120   -0.1600   -0.5060 c1        1 9KQ      0.097000
      3 N3          1.3930   -0.2410    0.6760 n1        1 9KQ     -0.154000
      4 C4          0.7200   -0.1640    1.8580 c1        1 9KQ     -0.049500
      5 C5         -0.6290   -0.0080    1.8610 c1        1 9KQ     -0.049500
      6 C6         -1.3180    0.0740    0.6610 c1        1 9KQ      0.174000
      7 CAA         1.4240   -0.2480    3.0800 c2        1 9KQ     -0.104000
      8 CAB         0.7380   -0.1700    4.2810 c1        1 9KQ     -0.114000
      9 CAC        -0.6370   -0.0110    4.2840 c1        1 9KQ     -0.114000
     10 CAD        -1.3270    0.0710    3.0860 c2        1 9KQ     -0.104000
     11 CAK         1.5870    1.1980   -2.3530 c1        1 9KQ     -0.085000
     12 CAL         2.2660    1.3830   -3.5470 c1        1 9KQ     -0.118750
     13 CAM         2.8050    0.2940   -4.2130 c1        1 9KQ     -0.118750
     14 CAN         2.6650   -0.9800   -3.6860 c1        1 9KQ     -0.118750
     15 CAO         1.9860   -1.1650   -2.4920 c1        1 9KQ     -0.118750
     16 CAP         1.4470   -0.0760   -1.8250 c1        1 9KQ     -0.040000
     17 CAQ        -3.3750   -1.1190    0.0300 c1        1 9KQ     -0.102500
     18 NAQ        -2.6760    0.0050    0.2570 n3        1 9KQ     -0.164000
     19 CAR        -3.4980    1.0500    0.0700 c1        1 9KQ     -0.102500
     20 NAS        -4.7030    0.5730   -0.2720 n2        1 9KQ     -0.081000
     21 NAT        -4.6280   -0.7690   -0.2960 n2        1 9KQ     -0.081000
     22 HAA         2.3940   -0.3600    3.0780 ha        1 9KQ      0.154000
     23 HAB         1.2250   -0.2280    5.1250 ha        1 9KQ      0.144500
     24 HAC        -1.1200    0.0440    5.1300 ha        1 9KQ      0.144500
     25 HAD        -2.2970    0.1840    3.0880 ha        1 9KQ      0.154000
     26 HAK         1.2070    1.9650   -1.8830 ha        1 9KQ      0.144000
     27 HAL         2.3640    2.2810   -3.9190 ha        1 9KQ      0.139250
     28 HAM         3.2830    0.4250   -5.0540 ha        1 9KQ      0.139250
     29 HAN         3.0450   -1.7470   -4.1550 ha        1 9KQ      0.139250
     30 HAO         1.8880   -2.0620   -2.1200 ha        1 9KQ      0.139250
     31 HAQ        -3.0320   -2.0310    0.0930 DU        1 9KQ      0.220500
     32 HAR        -3.2590    1.9910    0.1660 DU        1 9KQ      0.220500
@<TRIPOS>BOND
     1    1    6 1   
     2    2    3 1   
     3    2   16 1   
     4    4    5 1   
     5    4    7 1   
     6    5   10 1   
     7    6   18 1   
     8    7    8 1   
     9    7   22 1   
    10    8   23 1   
    11    9   10 1   
    12    9   24 1   
    13   10   25 1   
    14   11   16 1   
    15   11   26 1   
    16   12   13 1   
    17   12   27 1   
    18   13   28 1   
    19   14   15 1   
    20   14   29 1   
    21   15   30 1   
    22   17   18 1   
    23   17   21 1   
    24   18   19 1   
    25   19   20 1   
    26   20   21 1   
@<TRIPOS>SUBSTRUCTURE
     1 9KQ         1 TEMP              0 ****  ****    0 ROOT
