@<TRIPOS>MOLECULE
9KQ
   32    35     1     0     0
SMALL
bcc


@<TRIPOS>ATOM
      1 N1         -0.2590    0.7150   -0.1020 nb        1 9KQ     -0.715000
      2 C2         -1.1850   -0.3150    0.0590 cp        1 9KQ      0.731500
      3 N3         -0.8890   -1.6150    0.2210 nb        1 9KQ     -0.680000
      4 C4          0.4430   -1.9700    0.1840 ca        1 9KQ      0.430600
      5 C5          1.4810   -1.0030   -0.0110 ca        1 9KQ     -0.266600
      6 C6          1.0390    0.3790   -0.1160 ca        1 9KQ      0.565800
      7 CAA         0.8110   -3.3460    0.3330 ca        1 9KQ     -0.173300
      8 CAB         2.1280   -3.7220    0.2530 ca        1 9KQ     -0.101000
      9 CAC         3.1400   -2.7650    0.0120 ca        1 9KQ     -0.127000
     10 CAD         2.8240   -1.4340   -0.1200 ca        1 9KQ     -0.100000
     11 CAK        -3.5660   -0.7120   -0.5850 ca        1 9KQ     -0.085500
     12 CAL        -4.9080   -0.3320   -0.5860 ca        1 9KQ     -0.141500
     13 CAM        -5.3050    0.8430    0.0520 ca        1 9KQ     -0.109000
     14 CAN        -4.3580    1.6420    0.6930 ca        1 9KQ     -0.141500
     15 CAO        -3.0140    1.2720    0.6970 ca        1 9KQ     -0.085500
     16 CAP        -2.6160    0.0920    0.0570 cp        1 9KQ     -0.149500
     17 CAQ         1.8340    2.6160   -0.9890 cc        1 9KQ      0.385900
     18 NAQ         1.9820    1.4210   -0.2480 na        1 9KQ     -0.405500
     19 CAR         3.1830    1.6070    0.4760 cc        1 9KQ      0.385900
     20 NAS         3.7030    2.8090    0.1370 nd        1 9KQ     -0.345000
     21 NAT         2.9030    3.4090   -0.7390 nd        1 9KQ     -0.345000
     22 HAA         0.0180   -4.0920    0.5060 ha        1 9KQ      0.160000
     23 HAB         2.4100   -4.7810    0.3670 ha        1 9KQ      0.144000
     24 HAC         4.1860   -3.1010   -0.0740 ha        1 9KQ      0.145000
     25 HAD         3.6230   -0.7060   -0.3350 ha        1 9KQ      0.148000
     26 HAL        -5.6530   -0.9640   -1.0910 ha        1 9KQ      0.137000
     27 HAM        -6.3640    1.1390    0.0500 ha        1 9KQ      0.135000
     28 HAN        -4.6700    2.5690    1.1970 ha        1 9KQ      0.137000
     29 HAO        -2.2750    1.9100    1.2050 ha        1 9KQ      0.148000
     30 HAQ         0.9830    2.8160   -1.6480 h5        1 9KQ      0.084600
     31 HAR         3.5830    0.8820    1.1920 h5        1 9KQ      0.084600
     32 HAK        -3.2620   -1.6430   -1.0870 ha        1 9KQ      0.148000
@<TRIPOS>BOND
     1    1    2 ar  
     2    1    6 ar  
     3    2    3 ar  
     4    2   16 1   
     5    3    4 ar  
     6    4    5 ar  
     7    4    7 ar  
     8    5    6 ar  
     9    5   10 ar  
    10    6   18 1   
    11    7    8 ar  
    12    7   22 1   
    13    8    9 ar  
    14    8   23 1   
    15    9   10 ar  
    16    9   24 1   
    17   10   25 1   
    18   11   12 ar  
    19   11   16 ar  
    20   11   32 1   
    21   12   13 ar  
    22   12   26 1   
    23   13   14 ar  
    24   13   27 1   
    25   14   15 ar  
    26   14   28 1   
    27   15   16 ar  
    28   15   29 1   
    29   17   18 1   
    30   17   21 2   
    31   17   30 1   
    32   18   19 1   
    33   19   20 2   
    34   19   31 1   
    35   20   21 1   
@<TRIPOS>SUBSTRUCTURE
     1 9KQ         1 TEMP              0 ****  ****    0 ROOT
