@<TRIPOS>MOLECULE
9KQ
   32    35     1     0     0
SMALL
bcc


@<TRIPOS>ATOM
      1 N1         -0.0310    0.1150   -0.0180 nb        1 9KQ     -0.715000
      2 C2          1.3530   -0.0550    0.0160 cp        1 9KQ      0.731500
      3 N3          2.0920   -0.2390    1.1230 nb        1 9KQ     -0.680000
      4 C4          1.4330   -0.2170    2.3340 ca        1 9KQ      0.430600
      5 C5          0.0190   -0.0130    2.4250 ca        1 9KQ     -0.266600
      6 C6         -0.6790    0.1150    1.1550 ca        1 9KQ      0.565800
      7 CAA         2.1780   -0.3890    3.5460 ca        1 9KQ     -0.173300
      8 CAB         1.5450   -0.3240    4.7610 ca        1 9KQ     -0.101000
      9 CAC         0.1560   -0.0750    4.8410 ca        1 9KQ     -0.127000
     10 CAD        -0.5920    0.0800    3.6980 ca        1 9KQ     -0.100000
     11 CAK         3.2840    0.5980   -1.4280 ca        1 9KQ     -0.085500
     12 CAL         3.9310    0.6130   -2.6630 ca        1 9KQ     -0.141500
     13 CAM         3.3480   -0.0030   -3.7700 ca        1 9KQ     -0.109000
     14 CAN         2.1120   -0.6380   -3.6420 ca        1 9KQ     -0.141500
     15 CAO         1.4560   -0.6570   -2.4120 ca        1 9KQ     -0.085500
     16 CAP         2.0430   -0.0380   -1.3020 cp        1 9KQ     -0.149500
     17 CAQ        -2.8430    1.0180    0.2070 cc        1 9KQ      0.385900
     18 NAQ        -2.0840    0.2570    1.1250 na        1 9KQ     -0.405500
     19 CAR        -3.0490   -0.4720    1.8570 cc        1 9KQ      0.385900
     20 NAS        -4.2770   -0.1170    1.4120 nd        1 9KQ     -0.345000
     21 NAT        -4.1560    0.7730    0.4330 nd        1 9KQ     -0.345000
     22 HAA         3.2630   -0.5700    3.4810 ha        1 9KQ      0.160000
     23 HAB         2.1180   -0.4570    5.6930 ha        1 9KQ      0.144000
     24 HAC        -0.3200   -0.0010    5.8320 ha        1 9KQ      0.145000
     25 HAD        -1.6680    0.3010    3.7800 ha        1 9KQ      0.148000
     26 HAL         4.9060    1.1140   -2.7620 ha        1 9KQ      0.137000
     27 HAM         3.8620    0.0110   -4.7420 ha        1 9KQ      0.135000
     28 HAN         1.6510   -1.1260   -4.5140 ha        1 9KQ      0.137000
     29 HAO         0.4810   -1.1600   -2.3230 ha        1 9KQ      0.148000
     30 HAQ        -2.3980    1.6860   -0.5380 h5        1 9KQ      0.084600
     31 HAR        -2.8030   -1.2010    2.6350 h5        1 9KQ      0.084600
     32 HAK         3.7540    1.0840   -0.5590 ha        1 9KQ      0.148000
@<TRIPOS>BOND
     1    1    2 ar  
     2    1    6 ar  
     3    2    3 ar  
     4    2   16 1   
     5    3    4 ar  
     6    4    5 ar  
     7    4    7 ar  
     8    5    6 ar  
     9    5   10 ar  
    10    6   18 1   
    11    7    8 ar  
    12    7   22 1   
    13    8    9 ar  
    14    8   23 1   
    15    9   10 ar  
    16    9   24 1   
    17   10   25 1   
    18   11   12 ar  
    19   11   16 ar  
    20   11   32 1   
    21   12   13 ar  
    22   12   26 1   
    23   13   14 ar  
    24   13   27 1   
    25   14   15 ar  
    26   14   28 1   
    27   15   16 ar  
    28   15   29 1   
    29   17   18 1   
    30   17   21 2   
    31   17   30 1   
    32   18   19 1   
    33   19   20 2   
    34   19   31 1   
    35   20   21 1   
@<TRIPOS>SUBSTRUCTURE
     1 9KQ         1 TEMP              0 ****  ****    0 ROOT
