@<TRIPOS>MOLECULE
9L9
   52    52     1     0     0
SMALL
bcc


@<TRIPOS>ATOM
      1 N2A      -222.7770  133.6220   71.9010 nz        1 9L9     -0.815600
      2 N1       -220.7630  132.3550   72.1480 n2        1 9L9     -0.640900
      3 C2       -221.9010  132.4410   71.5400 c2        1 9L9      0.557800
      4 N3       -222.4150  131.5760   70.5580 ns        1 9L9     -0.533400
      5 C4       -221.5550  130.5780   70.0490 c         1 9L9      0.564200
      6 O4A      -222.0130  129.7790   69.2300 o         1 9L9     -0.513500
      7 C5       -220.1040  130.5850   70.4950 ce        1 9L9      0.361300
      8 C6       -219.8760  131.1870   71.9070 c3        1 9L9      0.368400
      9 N7       -218.4960  131.4210   72.2070 n8        1 9L9     -0.884800
     10 O8A       129.7550  -76.4080  -40.0810 o         1 9L9     -0.628100
     11 N9        130.8650  -78.2910  -40.8500 ns        1 9L9     -0.470100
     12 C1B       129.8540  -79.2150  -40.7000 c2        1 9L9      0.121500
     13 C2B       124.5370  -70.7630  -40.5660 c2        1 9L9     -0.197000
     14 C3B       125.2280  -71.8570  -40.8860 c2        1 9L9     -0.018900
     15 C4B       126.3310  -78.3250  -39.2840 ce        1 9L9     -0.323300
     16 C5B       127.5100  -78.6640  -39.7740 c1        1 9L9      0.130100
     17 C6B       128.6400  -78.9390  -40.2270 c1        1 9L9     -0.174900
     18 C7B       126.0080  -76.9720  -38.8770 c         1 9L9      0.582300
     19 O7B       124.9730  -76.5560  -38.3730 o         1 9L9     -0.447100
     20 CAW       130.7830  -76.9350  -40.5340 c         1 9L9      0.697900
     21 N         127.1180  -75.9470  -39.1120 ny        1 9L9     -0.680800
     22 CA        126.7460  -74.5290  -38.8090 c3        1 9L9      0.075500
     23 C         126.2970  -73.8150  -40.0830 c         1 9L9      0.628100
     24 O         126.4330  -74.2330  -41.2320 o         1 9L9     -0.511000
     25 CB        127.9060  -73.7400  -38.1880 c3        1 9L9     -0.099400
     26 CG        128.1990  -74.1990  -36.7940 cx        1 9L9      0.005100
     27 CD        129.5590  -74.5080  -36.3750 c         1 9L9      0.730600
     28 OE1       128.7400  -75.5770  -36.6880 os        1 9L9     -0.471900
     29 OE2       130.7030  -74.4300  -36.0220 o         1 9L9     -0.436500
     30 OXT       125.7170  -72.6230  -39.8030 os        1 9L9     -0.346200
     31 H2A1     -222.9570  134.1840   71.0610 hn        1 9L9      0.479800
     32 H2A2     -222.2970  134.2060   72.6020 hn        1 9L9      0.479800
     33 H71N     -220.2440  130.3960   72.6490 h2        1 9L9      0.118700
     34 H72N     -218.0060  131.9570   71.5220 hn        1 9L9      0.402300
     35 H9        131.7320  -78.6300  -41.2150 hn        1 9L9      0.355500
     36 H2B       124.1400  -70.1070  -41.3530 ha        1 9L9      0.150000
     37 H6B       130.1080  -80.2560  -41.0080 h4        1 9L9      0.196000
     38 H3B       124.3330  -70.4590  -39.5320 ha        1 9L9      0.150000
     39 H5B       125.5110  -79.0550  -39.1470 ha        1 9L9      0.218000
     40 H5A       131.7270  -76.3710  -40.7280 h5        1 9L9      0.083200
     41 HN3      -223.3810  131.5560   70.3100 hn        1 9L9      0.351500
     42 H         125.4710  -72.2370  -41.8870 h4        1 9L9      0.181000
     43 HA        127.9350  -76.2200  -38.5400 hn        1 9L9      0.486300
     44 HB1C      125.8680  -74.5370  -38.0850 hx        1 9L9      0.159700
     45 HB2C      127.5980  -72.6560  -38.1530 hc        1 9L9      0.112200
     46 HG1C      128.8200  -73.8150  -38.8380 hc        1 9L9      0.112200
     47 HG2C      127.4180  -73.9720  -36.0360 h1        1 9L9      0.140700
     48 N5A      -219.1580  130.0830   69.8040 n2        1 9L9     -0.622100
     49 H2A3     -223.6640  133.2870   72.2930 hn        1 9L9      0.479800
     50 H73      -218.3430  131.7590   73.1340 hn        1 9L9      0.402300
     51 H2        127.4140  -76.0160  -40.1020 hn        1 9L9      0.486300
     52 H5A2     -219.3910  129.6500   68.9300 hn        1 9L9      0.447400
@<TRIPOS>BOND
     1    1    3 1   
     2    1   31 1   
     3    1   32 1   
     4    1   49 1   
     5    2    3 2   
     6    2    8 1   
     7    3    4 1   
     8    4    5 1   
     9    4   41 1   
    10    5    6 2   
    11    5    7 1   
    12    7    8 1   
    13    7   48 2   
    14    8    9 1   
    15    8   33 1   
    16    9   34 1   
    17    9   50 1   
    18   10   20 2   
    19   11   12 1   
    20   11   20 1   
    21   11   35 1   
    22   12   17 2   
    23   12   37 1   
    24   13   14 2   
    25   13   36 1   
    26   13   38 1   
    27   14   30 1   
    28   14   42 1   
    29   15   16 2   
    30   15   18 1   
    31   15   39 1   
    32   16   17 2   
    33   18   19 2   
    34   18   21 1   
    35   20   40 1   
    36   21   22 1   
    37   21   43 1   
    38   21   51 1   
    39   22   23 1   
    40   22   25 1   
    41   22   44 1   
    42   23   24 2   
    43   23   30 1   
    44   25   26 1   
    45   25   45 1   
    46   25   46 1   
    47   26   27 1   
    48   26   28 1   
    49   26   47 1   
    50   27   28 1   
    51   27   29 2   
    52   48   52 1   
@<TRIPOS>SUBSTRUCTURE
     1 9L9         1 TEMP              0 ****  ****    0 ROOT
