@<TRIPOS>MOLECULE
9L9
   48    45     1     0     0
SMALL
bcc


@<TRIPOS>ATOM
      1 N2A         2.8740   -6.3710    6.2750 n3        1 9L9     -0.323000
      2 N1          0.9200   -5.0120    5.5310 n1        1 9L9     -0.292000
      3 C2          2.2140   -5.6330    5.2590 c2        1 9L9      0.227000
      4 N3          2.8090   -5.5280    3.9290 n         1 9L9     -0.331000
      5 C4          2.0580   -4.9810    2.8570 c2        1 9L9      0.341000
      6 O4A         2.5610   -4.8730    1.7560 o         1 9L9     -0.389000
      7 N5A        -0.1220   -4.0940    2.0080 n         1 9L9     -0.253000
      8 C5          0.7050   -4.4580    3.1020 c2        1 9L9     -0.241000
      9 C6          0.1540   -4.4710    4.4670 c1        1 9L9      0.227000
     10 N7         -1.1780   -4.0430    4.6970 n3        1 9L9     -0.298000
     11 O8A         1.1280   -2.2390    1.5450 o         1 9L9     -0.394000
     12 N9         -0.6500   -2.5710    0.1500 n         1 9L9     -0.292000
     13 C1B        -0.3490   -1.4100   -0.6140 c2        1 9L9      0.030000
     14 C2B        -0.0850   -1.5260   -1.9710 c2        1 9L9     -0.191000
     15 C3B         0.0810   -0.3880   -2.7450 c1        1 9L9     -0.075000
     16 C4B        -0.0170    0.8660   -2.1630 c1        1 9L9     -0.095000
     17 C5B        -0.2810    0.9830   -0.8070 c1        1 9L9     -0.086000
     18 C6B        -0.4470   -0.1560   -0.0330 c1        1 9L9     -0.140000
     19 C7B         0.0620    2.1090   -3.0280 c2        1 9L9      0.323000
     20 O7B         0.2100    2.0040   -4.2290 o         1 9L9     -0.419000
     21 CAW         0.1700   -2.9260    1.2540 c2        1 9L9      0.358000
     22 N          -0.1210    3.3910   -2.4450 n         1 9L9     -0.286000
     23 CA         -0.4540    4.5030   -3.2650 c3        1 9L9     -0.072000
     24 C           0.6980    5.4820   -3.2800 c1        1 9L9      0.323000
     25 O           1.1100    5.9860   -2.2020 o         1 9L9     -0.602000
     26 CB         -1.6860    5.1840   -2.7140 c3        1 9L9     -0.132000
     27 CG         -2.2100    6.1770   -3.7290 c3        1 9L9     -0.211000
     28 CD         -1.9480    7.5840   -3.2390 c2        1 9L9      0.324000
     29 OE1        -0.7650    7.9950   -3.1110 o         1 9L9     -0.609000
     30 OE2        -2.9130    8.3530   -2.9880 o         1 9L9     -0.609000
     31 OXT         1.2300    5.8110   -4.3730 os        1 9L9     -0.570000
     32 H2A1        3.6490   -6.8170    6.0850 hn        1 9L9      0.202500
     33 H2A2        2.5160   -6.4130    7.1150 hn        1 9L9      0.202500
     34 H71N       -1.5800   -4.2130    5.5000 hn        1 9L9      0.228000
     35 H72N       -1.6410   -3.6130    4.0360 hn        1 9L9      0.228000
     36 H9         -1.3670   -3.0880   -0.0700 hn        1 9L9      0.213000
     37 H2B        -0.0160   -2.4090   -2.3800 ha        1 9L9      0.112000
     38 H6B        -0.6080   -0.0740    0.9260 ha        1 9L9      0.158000
     39 H3B         0.2470   -0.4700   -3.7030 ha        1 9L9      0.153000
     40 H5B        -0.3500    1.8660   -0.3980 ha        1 9L9      0.166000
     41 H5A        -0.8350   -4.6170    1.7810 hn        1 9L9      0.210000
     42 HN3         3.6500   -5.8470    3.7800 hn        1 9L9      0.245000
     43 H          -0.0270    3.5000   -1.5450 hn        1 9L9      0.230000
     44 HA         -0.6320    4.1950   -4.1760 h1        1 9L9      0.110000
     45 HB1C       -1.4570    5.6530   -1.8870 hc        1 9L9      0.090500
     46 HB2C       -2.3740    4.5140   -2.5290 hc        1 9L9      0.090500
     47 HG1C       -1.7570    6.0390   -4.5840 hc        1 9L9      0.058500
     48 HG2C       -3.1730    6.0460   -3.8460 hc        1 9L9      0.058500
@<TRIPOS>BOND
     1    1    3 1   
     2    1   32 1   
     3    1   33 1   
     4    2    3 1   
     5    3    4 1   
     6    4    5 1   
     7    4   42 1   
     8    5    6 1   
     9    5    8 1   
    10    7    8 1   
    11    7   21 1   
    12    7   41 1   
    13    8    9 1   
    14    9   10 1   
    15   10   34 1   
    16   10   35 1   
    17   11   21 1   
    18   12   13 1   
    19   12   21 1   
    20   12   36 1   
    21   13   14 1   
    22   13   18 1   
    23   14   15 1   
    24   14   37 1   
    25   15   39 1   
    26   16   17 1   
    27   16   19 1   
    28   17   40 1   
    29   18   38 1   
    30   19   20 1   
    31   19   22 1   
    32   22   23 1   
    33   22   43 1   
    34   23   24 1   
    35   23   26 1   
    36   23   44 1   
    37   24   25 1   
    38   26   27 1   
    39   26   45 1   
    40   26   46 1   
    41   27   28 1   
    42   27   47 1   
    43   27   48 1   
    44   28   29 1   
    45   28   30 1   
@<TRIPOS>SUBSTRUCTURE
     1 9L9         1 TEMP              0 ****  ****    0 ROOT
