@<TRIPOS>MOLECULE
9L9
   48    49     1     0     0
SMALL
bcc


@<TRIPOS>ATOM
      1 N2A         8.6900    2.1940   -1.3880 nh        1 9L9     -0.882800
      2 N1          6.8670    1.9200    0.1240 nc        1 9L9     -0.720300
      3 C2          7.6270    1.4100   -0.8550 cd        1 9L9      0.674800
      4 N3          7.4710    0.1110   -1.3560 n         1 9L9     -0.491400
      5 C4          6.4700   -0.7360   -0.8340 c         1 9L9      0.703700
      6 O4A         6.4050   -1.8930   -1.2990 o         1 9L9     -0.664500
      7 C5          5.6180   -0.1920    0.2230 cd        1 9L9     -0.259600
      8 C6          5.8760    1.1130    0.7070 cc        1 9L9      0.450600
      9 N7          5.2080    1.6390    1.8000 nh        1 9L9     -0.788600
     10 O8A         2.9430    0.5650    0.4160 o         1 9L9     -0.635100
     11 N9          2.2890   -1.6680    0.3510 n         1 9L9     -0.442100
     12 C1B         0.9000   -1.4600    0.5370 ca        1 9L9      0.025600
     13 C2B         0.1370   -2.4940    1.1290 ca        1 9L9     -0.165500
     14 C3B        -1.2380   -2.3520    1.2710 ca        1 9L9     -0.080000
     15 C4B        -1.8840   -1.1910    0.8320 ca        1 9L9     -0.116600
     16 C5B        -1.1340   -0.1660    0.2540 ca        1 9L9     -0.080000
     17 C6B         0.2470   -0.2920    0.1030 ca        1 9L9     -0.165500
     18 C7B        -3.3730   -1.0800    1.0360 c         1 9L9      0.649700
     19 O7B        -3.8530   -1.4580    2.1320 o         1 9L9     -0.658100
     20 CAW         3.2410   -0.6510    0.4820 c         1 9L9      0.731100
     21 N          -4.0830   -0.5120    0.0210 n         1 9L9     -0.476900
     22 CA         -5.5370   -0.5150   -0.0580 c3        1 9L9     -0.045300
     23 C          -6.0300   -1.4800   -1.1920 c         1 9L9      0.903600
     24 O          -7.1740   -1.9930   -1.0560 o         1 9L9     -0.851300
     25 CB         -6.0990    0.8910   -0.3250 c3        1 9L9     -0.053400
     26 CG         -5.9520    1.8270    0.8510 c3        1 9L9     -0.182400
     27 CD         -6.3120    3.2770    0.5030 c         1 9L9      0.904600
     28 OE1        -5.6430    3.8870   -0.3850 o         1 9L9     -0.874800
     29 OE2        -7.2460    3.8410    1.1530 o         1 9L9     -0.874800
     30 OXT        -5.2620   -1.7130   -2.1720 o         1 9L9     -0.851300
     31 H2A1        8.7020    3.1300   -1.0380 hn        1 9L9      0.406800
     32 H2A2        8.7510    2.1580   -2.3840 hn        1 9L9      0.406800
     33 H71N        5.2670    2.6260    1.9280 hn        1 9L9      0.432300
     34 H72N        4.2990    1.2560    1.9720 hn        1 9L9      0.432300
     35 H9          2.5860   -2.6030    0.5270 hn        1 9L9      0.301500
     36 H2B         0.6190   -3.4190    1.4770 ha        1 9L9      0.134500
     37 H6B         0.8200    0.5330   -0.3480 ha        1 9L9      0.134500
     38 H3B        -1.8360   -3.1490    1.7410 ha        1 9L9      0.159500
     39 H5B        -1.6310    0.7590   -0.0860 ha        1 9L9      0.159500
     40 H5A         4.8190   -1.9930    0.5900 hn        1 9L9      0.296500
     41 HN3         8.0710   -0.2480   -2.0650 hn        1 9L9      0.332500
     42 H          -3.6470   -0.4520   -0.8760 hn        1 9L9      0.315500
     43 HA         -5.9460   -0.8910    0.9230 h1        1 9L9      0.070700
     44 HB1C       -7.1860    0.7570   -0.5690 hc        1 9L9      0.050700
     45 HB2C       -5.6040    1.3440   -1.2230 hc        1 9L9      0.050700
     46 HG1C       -6.6020    1.4810    1.6950 hc        1 9L9      0.019200
     47 HG2C       -4.8930    1.8260    1.2140 hc        1 9L9      0.019200
     48 N5A         4.6040   -1.0250    0.7460 n         1 9L9     -0.406100
@<TRIPOS>BOND
     1    1    3 1   
     2    1   31 1   
     3    1   32 1   
     4    2    3 2   
     5    2    8 1   
     6    3    4 1   
     7    4    5 1   
     8    4   41 1   
     9    5    6 2   
    10    5    7 1   
    11    7    8 2   
    12    7   48 1   
    13    8    9 1   
    14    9   33 1   
    15    9   34 1   
    16   10   20 2   
    17   11   12 1   
    18   11   20 1   
    19   11   35 1   
    20   12   13 ar  
    21   12   17 ar  
    22   13   14 ar  
    23   13   36 1   
    24   14   15 ar  
    25   14   38 1   
    26   15   16 ar  
    27   15   18 1   
    28   16   17 ar  
    29   16   39 1   
    30   17   37 1   
    31   18   19 2   
    32   18   21 1   
    33   20   48 1   
    34   21   22 1   
    35   21   42 1   
    36   22   23 1   
    37   22   25 1   
    38   22   43 1   
    39   23   24 1   
    40   23   30 1   
    41   25   26 1   
    42   25   44 1   
    43   25   45 1   
    44   26   27 1   
    45   26   46 1   
    46   26   47 1   
    47   27   28 1   
    48   27   29 1   
    49   40   48 1   
@<TRIPOS>SUBSTRUCTURE
     1 9L9         1 TEMP              0 ****  ****    0 ROOT
