@<TRIPOS>MOLECULE
9LI
   28    29     1     0     0
SMALL
bcc


@<TRIPOS>ATOM
      1 C1         -0.0840   -0.1120   -0.3170 c3        1 9LI     -0.066900
      2 Cl1         4.5070    0.4020    3.4280 cl        1 9LI     -0.097400
      3 C2          1.3680   -0.1040   -0.0450 cc        1 9LI      0.018700
      4 Cl2         7.5220   -0.0490   -0.9380 cl        1 9LI     -0.034400
      5 C3          2.0050    0.0350    1.2040 cd        1 9LI     -0.242400
      6 C4          3.4320    0.0360    0.9590 ca        1 9LI     -0.103800
      7 C5          3.5960   -0.1240   -0.4710 ca        1 9LI     -0.031200
      8 N6          2.3280   -0.2230   -1.0480 na        1 9LI     -0.163400
      9 C8          4.8600   -0.1590   -1.0810 ca        1 9LI     -0.108000
     10 C9          5.9720   -0.0200   -0.2590 ca        1 9LI      0.032400
     11 C10         5.8460    0.1530    1.1360 ca        1 9LI     -0.105000
     12 C11         4.5930    0.1750    1.7310 ca        1 9LI      0.009400
     13 C14         1.3220    0.2450    2.4840 c3        1 9LI     -0.022200
     14 C15         1.1770   -1.0480    3.2910 c3        1 9LI      0.105800
     15 N16         2.4440   -1.8280    3.3210 nz        1 9LI     -0.856600
     16 H1         -0.6270   -0.5910    0.5340 hc        1 9LI      0.072033
     17 H1A        -0.3360   -0.6670   -1.2560 hc        1 9LI      0.072033
     18 H1B        -0.4500    0.9430   -0.4240 hc        1 9LI      0.072033
     19 H8          4.9640   -0.2810   -2.1700 ha        1 9LI      0.173000
     20 H10         6.7570    0.2820    1.7470 ha        1 9LI      0.178000
     21 H14         1.8730    1.0140    3.0940 hc        1 9LI      0.092700
     22 H14A        0.2820    0.6420    2.3130 hc        1 9LI      0.092700
     23 H15         0.8880   -0.8050    4.3530 hx        1 9LI      0.101700
     24 H15A        0.3800   -1.7020    2.8350 hx        1 9LI      0.101700
     25 HN16        3.2270   -1.2020    3.6240 hn        1 9LI      0.461467
     26 HN1A        2.6630   -2.1530    2.3720 hn        1 9LI      0.461467
     27 HN6         2.1440   -0.2730   -2.0190 hn        1 9LI      0.323700
     28 H163        2.3650   -2.6270    3.9500 hn        1 9LI      0.461467
@<TRIPOS>BOND
     1    1    3 1   
     2    1   16 1   
     3    1   17 1   
     4    1   18 1   
     5    2   12 1   
     6    3    5 2   
     7    3    8 1   
     8    4   10 1   
     9    5    6 1   
    10    5   13 1   
    11    6    7 ar  
    12    6   12 ar  
    13    7    8 1   
    14    7    9 ar  
    15    8   27 1   
    16    9   10 ar  
    17    9   19 1   
    18   10   11 ar  
    19   11   12 ar  
    20   11   20 1   
    21   13   14 1   
    22   13   21 1   
    23   13   22 1   
    24   14   15 1   
    25   14   23 1   
    26   14   24 1   
    27   15   25 1   
    28   15   26 1   
    29   15   28 1   
@<TRIPOS>SUBSTRUCTURE
     1 9LI         1 TEMP              0 ****  ****    0 ROOT
