@<TRIPOS>MOLECULE
9LI
   27    23     1     0     0
SMALL
bcc


@<TRIPOS>ATOM
      1 C1         -3.0450   -0.3240   -0.6700 c3        1 9LI     -0.171000
      2 CL1         3.3670   -0.2820    1.0130 cl        1 9LI     -0.012000
      3 C2         -1.5310   -0.2210   -0.5610 c2        1 9LI     -0.013000
      4 CL2         3.8820   -0.5630   -3.9160 cl        1 9LI     -0.014000
      5 C3         -0.3940   -0.1450    0.2550 c1        1 9LI     -0.132000
      6 C4          0.7150   -0.1990   -0.5570 c1        1 9LI     -0.068000
      7 C5          0.2810   -0.3090   -1.8680 c1        1 9LI      0.014000
      8 N6         -1.1100   -0.3220   -1.8650 n1        1 9LI     -0.208000
      9 C8          1.2330   -0.4460   -2.9270 c1        1 9LI     -0.141000
     10 C9          2.5950   -0.4690   -2.6380 c2        1 9LI     -0.040000
     11 C10         3.0360   -0.3570   -1.3030 c2        1 9LI     -0.150000
     12 C11         2.1060   -0.2220   -0.2650 c1        1 9LI     -0.008000
     13 C14        -0.4580   -0.3170    1.7680 c2        1 9LI     -0.098000
     14 C15        -0.4550    1.0850    2.4500 c3        1 9LI     -0.079000
     15 N16        -0.5420    0.9250    3.8790 n3        1 9LI     -0.349000
     16 H1         -3.2900   -1.2160   -0.9670 hc        1 9LI      0.097000
     17 H1A        -3.3780    0.3500   -1.3310 hc        1 9LI      0.097000
     18 H1B        -3.4400   -0.1530    0.1880 hc        1 9LI      0.097000
     19 H8          0.9340   -0.3740   -3.8650 ha        1 9LI      0.150000
     20 H10         3.9600   -0.3370   -1.1130 ha        1 9LI      0.159000
     21 H14        -1.2730   -0.7940    2.0070 ha        1 9LI      0.095500
     22 H14A        0.3400   -0.8420    2.0790 ha        1 9LI      0.095500
     23 H15         0.3720    1.5550    2.2240 h1        1 9LI      0.070000
     24 H15A       -1.2280    1.6100    2.1300 h1        1 9LI      0.070000
     25 HN16        0.2240    1.1760    4.2520 hn        1 9LI      0.142500
     26 HN1A       -1.2480    1.4630    4.2150 hn        1 9LI      0.142500
     27 HN6        -1.6530   -0.2740   -2.6130 DU        1 9LI      0.253000
@<TRIPOS>BOND
     1    1    3 1   
     2    1   16 1   
     3    1   17 1   
     4    1   18 1   
     5    2   12 1   
     6    3    5 1   
     7    3    8 1   
     8    4   10 1   
     9    5    6 1   
    10    6    7 1   
    11    9   10 1   
    12    9   19 1   
    13   10   11 1   
    14   11   12 1   
    15   11   20 1   
    16   13   14 1   
    17   13   21 1   
    18   13   22 1   
    19   14   15 1   
    20   14   23 1   
    21   14   24 1   
    22   15   25 1   
    23   15   26 1   
@<TRIPOS>SUBSTRUCTURE
     1 9LI         1 TEMP              0 ****  ****    0 ROOT
