@<TRIPOS>MOLECULE
9LI
   28    29     1     0     0
SMALL
bcc


@<TRIPOS>ATOM
      1 C1          0.0030   -0.1970   -0.4800 c3        1 9LI     -0.066900
      2 CL1         4.3580    0.4860    3.5110 cl        1 9LI     -0.097400
      3 C2          1.4350   -0.1560   -0.1240 cc        1 9LI      0.018700
      4 CL2         7.6290   -0.0020   -0.6620 cl        1 9LI     -0.034400
      5 C3          1.9970    0.0220    1.1560 cd        1 9LI     -0.242400
      6 C4          3.4350    0.0460    0.9930 ca        1 9LI     -0.103800
      7 C5          3.6850   -0.1420   -0.4200 ca        1 9LI     -0.031200
      8 N6          2.4540   -0.2780   -1.0670 na        1 9LI     -0.163400
      9 C8          4.9820   -0.1660   -0.9560 ca        1 9LI     -0.108000
     10 C9          6.0420    0.0120   -0.0750 ca        1 9LI      0.032400
     11 C10         5.8320    0.2140    1.3070 ca        1 9LI     -0.105000
     12 C11         4.5460    0.2240    1.8280 ca        1 9LI      0.009400
     13 C14         1.2370    0.2480    2.3900 c3        1 9LI     -0.022200
     14 C15         1.0680   -1.0300    3.2160 c3        1 9LI      0.105800
     15 N16         2.3450   -1.7850    3.3370 n4        1 9LI     -0.856600
     16 H1         -0.5820   -0.6650    0.3510 hc        1 9LI      0.072033
     17 H1A        -0.1850   -0.7800   -1.4160 hc        1 9LI      0.072033
     18 H1B        -0.3750    0.8480   -0.6350 hc        1 9LI      0.072033
     19 H8          5.1510   -0.3090   -2.0340 ha        1 9LI      0.173000
     20 H10         6.7030    0.3730    1.9660 ha        1 9LI      0.178000
     21 H14         1.7370    1.0400    3.0120 hc        1 9LI      0.092700
     22 H14A        0.2010    0.6210    2.1500 hc        1 9LI      0.092700
     23 H15         0.7130   -0.7700    4.2540 hx        1 9LI      0.101700
     24 H15A        0.3110   -1.7090    2.7300 hx        1 9LI      0.101700
     25 HN16        3.0980   -1.1370    3.6700 hn        1 9LI      0.461467
     26 HN1A        2.6250   -2.1260    2.4090 hn        1 9LI      0.461467
     27 HN6         2.3280   -0.3520   -2.0460 hn        1 9LI      0.323700
     28 H163        2.2440   -2.5710    3.9790 hn        1 9LI      0.461467
@<TRIPOS>BOND
     1    1    3 1   
     2    1   16 1   
     3    1   17 1   
     4    1   18 1   
     5    2   12 1   
     6    3    5 2   
     7    3    8 1   
     8    4   10 1   
     9    5    6 1   
    10    5   13 1   
    11    6    7 ar  
    12    6   12 ar  
    13    7    8 1   
    14    7    9 ar  
    15    8   27 1   
    16    9   10 ar  
    17    9   19 1   
    18   10   11 ar  
    19   11   12 ar  
    20   11   20 1   
    21   13   14 1   
    22   13   21 1   
    23   13   22 1   
    24   14   15 1   
    25   14   23 1   
    26   14   24 1   
    27   15   25 1   
    28   15   26 1   
    29   15   28 1   
@<TRIPOS>SUBSTRUCTURE
     1 9LI         1 TEMP              0 ****  ****    0 ROOT
