@<TRIPOS>MOLECULE
9LI
   27    28     1     0     0
SMALL
bcc


@<TRIPOS>ATOM
      1 C1          2.6610    2.9500   -0.2570 c3        1 9LI     -0.048900
      2 CL1         0.3550   -2.5080   -0.3460 cl        1 9LI     -0.090400
      3 C2          1.5060    2.0340   -0.1880 cc        1 9LI     -0.044300
      4 CL2        -4.3340   -0.0610    0.2710 cl        1 9LI     -0.092400
      5 C3          1.5190    0.6340   -0.2810 cd        1 9LI     -0.124400
      6 C4          0.1470    0.1860   -0.1670 ca        1 9LI     -0.079800
      7 C5         -0.6600    1.3800   -0.0100 ca        1 9LI     -0.031200
      8 N6          0.1880    2.4850   -0.0280 na        1 9LI     -0.185400
      9 C8         -2.0550    1.3240    0.1280 ca        1 9LI     -0.141000
     10 C9         -2.6450    0.0670    0.1090 ca        1 9LI      0.038400
     11 C10        -1.8900   -1.1120   -0.0400 ca        1 9LI     -0.150000
     12 C11        -0.5070   -1.0520   -0.1760 ca        1 9LI      0.070400
     13 C14         2.7220   -0.1870   -0.4800 c3        1 9LI     -0.015200
     14 C15         3.2860   -0.6680    0.8630 c3        1 9LI      0.157800
     15 N16         4.5200   -1.4060    0.7260 n3        1 9LI     -0.916800
     16 H1          2.8760    3.2130   -1.3240 hc        1 9LI      0.057700
     17 H1A         2.4810    3.8960    0.3120 hc        1 9LI      0.057700
     18 H1B         3.5620    2.4430    0.1710 hc        1 9LI      0.057700
     19 H8         -2.6530    2.2380    0.2460 ha        1 9LI      0.150000
     20 H10        -2.4050   -2.0860   -0.0480 ha        1 9LI      0.159000
     21 H14         2.4780   -1.0700   -1.1290 hc        1 9LI      0.056200
     22 H14A        3.5030    0.4160   -1.0190 hc        1 9LI      0.056200
     23 H15         3.5030    0.2320    1.5060 h1        1 9LI      0.030700
     24 H15A        2.4780   -1.2630    1.3830 h1        1 9LI      0.030700
     25 HN16        4.7800   -1.8070    1.6050 hn        1 9LI      0.347300
     26 HN1A        4.4270   -2.1380    0.0490 hn        1 9LI      0.347300
     27 HN6        -0.0900    3.4250    0.0690 hn        1 9LI      0.302700
@<TRIPOS>BOND
     1    1    3 1   
     2    1   16 1   
     3    1   17 1   
     4    1   18 1   
     5    2   12 1   
     6    3    5 2   
     7    3    8 1   
     8    4   10 1   
     9    5    6 1   
    10    5   13 1   
    11    6    7 ar  
    12    6   12 ar  
    13    7    8 1   
    14    7    9 ar  
    15    8   27 1   
    16    9   10 ar  
    17    9   19 1   
    18   10   11 ar  
    19   11   12 ar  
    20   11   20 1   
    21   13   14 1   
    22   13   21 1   
    23   13   22 1   
    24   14   15 1   
    25   14   23 1   
    26   14   24 1   
    27   15   25 1   
    28   15   26 1   
@<TRIPOS>SUBSTRUCTURE
     1 9LI         1 TEMP              0 ****  ****    0 ROOT
