@<TRIPOS>MOLECULE
9LI
   28    29     1     0     0
SMALL
bcc


@<TRIPOS>ATOM
      1 C1         -0.1090   -0.1270   -0.2710 c3        1 9LI     -0.066900
      2 CL1         4.5350    0.4010    3.4050 cl        1 9LI     -0.097400
      3 C2          1.3470   -0.1070   -0.0220 cc        1 9LI      0.018700
      4 CL2         7.4840    0.0170   -1.0110 cl        1 9LI     -0.034400
      5 C3          2.0020    0.0270    1.2180 cd        1 9LI     -0.242400
      6 C4          3.4250    0.0450    0.9500 ca        1 9LI     -0.103800
      7 C5          3.5680   -0.1020   -0.4830 ca        1 9LI     -0.031200
      8 N6          2.2920   -0.2080   -1.0410 na        1 9LI     -0.163400
      9 C8          4.8220   -0.1180   -1.1140 ca        1 9LI     -0.108000
     10 C9          5.9450    0.0250   -0.3080 ca        1 9LI      0.032400
     11 C10         5.8400    0.1850    1.0900 ca        1 9LI     -0.105000
     12 C11         4.5960    0.1890    1.7050 ca        1 9LI      0.009400
     13 C14         1.3370    0.2200    2.5100 c3        1 9LI     -0.022200
     14 C15         1.2180   -1.0810    3.3080 c3        1 9LI      0.105800
     15 N16         2.4940   -1.8490    3.3120 n4        1 9LI     -0.856600
     16 H1         -0.6330   -0.6270    0.5810 hc        1 9LI      0.072033
     17 H1A        -0.3700   -0.6690   -1.2140 hc        1 9LI      0.072033
     18 H1B        -0.4890    0.9250   -0.3530 hc        1 9LI      0.072033
     19 H8          4.9100   -0.2300   -2.2050 ha        1 9LI      0.173000
     20 H10         6.7590    0.3180    1.6880 ha        1 9LI      0.178000
     21 H14         0.2900    0.6070    2.3590 hc        1 9LI      0.092700
     22 H14A        1.8890    0.9890    3.1180 hc        1 9LI      0.092700
     23 H15         0.4210   -1.7400    2.8590 hx        1 9LI      0.101700
     24 H15A        0.9430   -0.8510    4.3770 hx        1 9LI      0.101700
     25 HN16        2.4320   -2.6530    3.9350 hn        1 9LI      0.461467
     26 HN1A        3.2750   -1.2170    3.6080 hn        1 9LI      0.461467
     27 HN6         2.0930   -0.2510   -2.0090 hn        1 9LI      0.323700
     28 H163        2.7010   -2.1630    2.3560 hn        1 9LI      0.461467
@<TRIPOS>BOND
     1    1    3 1   
     2    1   16 1   
     3    1   17 1   
     4    1   18 1   
     5    2   12 1   
     6    3    5 2   
     7    3    8 1   
     8    4   10 1   
     9    5    6 1   
    10    5   13 1   
    11    6    7 ar  
    12    6   12 ar  
    13    7    8 1   
    14    7    9 ar  
    15    8   27 1   
    16    9   10 ar  
    17    9   19 1   
    18   10   11 ar  
    19   11   12 ar  
    20   11   20 1   
    21   13   14 1   
    22   13   21 1   
    23   13   22 1   
    24   14   15 1   
    25   14   23 1   
    26   14   24 1   
    27   15   25 1   
    28   15   26 1   
    29   15   28 1   
@<TRIPOS>SUBSTRUCTURE
     1 9LI         1 TEMP              0 ****  ****    0 ROOT
