@<TRIPOS>MOLECULE
9LO
   33    31     1     0     0
SMALL
bcc


@<TRIPOS>ATOM
      1 N2A        -6.3640    0.5920   -1.2100 n3        1 9LO     -0.322000
      2 N1         -4.4420    1.5160    0.0830 n1        1 9LO     -0.294000
      3 C2         -4.9630    0.7020   -1.0130 c2        1 9LO      0.229000
      4 N3         -4.0440   -0.0270   -1.8840 n         1 9LO     -0.332000
      5 C4         -2.6450    0.1810   -1.7710 c2        1 9LO      0.341000
      6 O4A        -1.8890   -0.3200   -2.5800 o         1 9LO     -0.388000
      7 N5A        -0.7360    1.3930   -0.6990 n         1 9LO     -0.255000
      8 C5         -2.1180    1.0730   -0.7270 c2        1 9LO     -0.238000
      9 C6         -3.0460    1.7390    0.2000 c1        1 9LO      0.225000
     10 N7         -2.5540    2.6790    1.1430 n3        1 9LO     -0.298000
     11 O8A        -0.1860   -0.6160    0.2390 o         1 9LO     -0.404000
     12 N9          1.5840    0.7620   -0.1870 n         1 9LO     -0.284000
     13 C1B         2.5230   -0.1890    0.2960 c2        1 9LO      0.004000
     14 C2B         2.7210   -1.3770   -0.3920 c2        1 9LO     -0.148000
     15 C3B         3.6950   -2.2690    0.0310 c1        1 9LO     -0.099000
     16 C4B         4.4710   -1.9730    1.1400 c1        1 9LO     -0.108000
     17 C5B         4.2730   -0.7860    1.8280 c1        1 9LO     -0.094000
     18 C6B         3.2990    0.1060    1.4060 c1        1 9LO     -0.195000
     19 C7B         5.5680   -2.9220    1.5710 c2        1 9LO      0.357000
     20 O7B         5.2760   -3.9960    2.1590 o         1 9LO     -0.565000
     21 CAW         0.1980    0.4580   -0.1800 c2        1 9LO      0.355000
     22 H2A1       -6.9390    1.0450   -0.6630 hn        1 9LO      0.203000
     23 H2A2       -6.6910    0.0500   -1.8700 hn        1 9LO      0.203000
     24 H71N       -1.6590    2.7240    1.3190 hn        1 9LO      0.226000
     25 H72N       -3.1320    3.2500    1.5630 hn        1 9LO      0.226000
     26 H9          1.8720    1.5740   -0.4870 hn        1 9LO      0.209000
     27 H2B         2.1610   -1.5940   -1.1620 ha        1 9LO      0.143000
     28 H6B         3.1600    0.9420    1.8900 ha        1 9LO      0.104000
     29 H3B         3.8340   -3.1040   -0.4530 ha        1 9LO      0.155000
     30 H5B         4.8200   -0.5770    2.6100 ha        1 9LO      0.154000
     31 H5A        -0.4470    2.1980   -1.0170 hn        1 9LO      0.210000
     32 HN3        -4.3710   -0.5940   -2.5180 hn        1 9LO      0.246000
     33 OXT         6.7720   -2.6390    1.3380 o         1 9LO     -0.565000
@<TRIPOS>BOND
     1    1    3 1   
     2    1   22 1   
     3    1   23 1   
     4    2    3 1   
     5    3    4 1   
     6    4    5 1   
     7    4   32 1   
     8    5    6 1   
     9    5    8 1   
    10    7    8 1   
    11    7   21 1   
    12    7   31 1   
    13    8    9 1   
    14    9   10 1   
    15   10   24 1   
    16   10   25 1   
    17   11   21 1   
    18   12   13 1   
    19   12   21 1   
    20   12   26 1   
    21   13   14 1   
    22   13   18 1   
    23   14   15 1   
    24   14   27 1   
    25   15   29 1   
    26   16   17 1   
    27   16   19 1   
    28   17   30 1   
    29   18   28 1   
    30   19   20 1   
    31   19   33 1   
@<TRIPOS>SUBSTRUCTURE
     1 9LO         1 TEMP              0 ****  ****    0 ROOT
