@<TRIPOS>MOLECULE
9LO
   36    50     1     0     0
SMALL
bcc


@<TRIPOS>ATOM
      1 N2A         0.0000    0.0000    0.0000 nz        1 9LO      0.648000
      2 N1          2.0150    0.0000    1.1480 n2        1 9LO      0.031000
      3 C2          1.3710    0.0000    0.0000 c3        1 9LO      0.311000
      4 N3          2.0360    0.0000   -1.1870 n7        1 9LO      0.018000
      5 C4          3.3850    0.0000   -1.2100 c3        1 9LO      0.376000
      6 O4A         3.9900   -0.0000   -2.2700 o         1 9LO     -0.310000
      7 C5          4.0810    0.0000    0.0080 c2        1 9LO     -0.570000
      8 C6          3.3530    0.0010    1.1920 DU        1 9LO      0.159000
      9 N7          4.0070   -0.0000    2.4110 nz        1 9LO     -0.096000
     10 O8A         5.5810   -1.8480   -1.1990 o         1 9LO     -0.272000
     11 N9          7.5180   -1.0500   -0.4590 n7        1 9LO     -0.068000
     12 C1B         8.2160   -2.1370   -0.9830 c3        1 9LO      0.410000
     13 C2B         9.4900   -1.9550   -1.5100 c3        1 9LO     -0.080000
     14 C3B        10.1820   -3.0260   -2.0280 c2        1 9LO      0.038000
     15 C4B         9.6010   -4.2980   -2.0250 c2        1 9LO     -0.055000
     16 C5B         8.3210   -4.4780   -1.4950 c2        1 9LO      0.005000
     17 C6B         7.6370   -3.4030   -0.9730 c3        1 9LO     -0.207000
     18 C7B        10.3400   -5.4480   -2.5810 c2        1 9LO      0.364000
     19 O7B        11.4530   -5.2900   -3.0410 o         1 9LO     -0.017000
     20 CAW         6.1750   -0.9970   -0.5650 DU        1 9LO      0.066000
     21 H2A1        0.8100   -0.5370   -0.2400 DU        1 9LO      0.044000
     22 H2A2        0.9860   -0.1710   -0.0320 DU        1 9LO     -0.733000
     23 H71N        3.2080    0.0860    1.8150 DU        1 9LO      0.101000
     24 H72N        3.1470   -0.1880    1.9350 DU        1 9LO      0.101000
     25 H9          6.8670   -0.7570    0.2430 DU        1 9LO      0.238000
     26 H2B         8.6440   -1.7930   -0.8530 hc        1 9LO     -0.030000
     27 H6B         7.7640   -2.3720   -0.6660 DU        1 9LO      0.134000
     28 H3B        10.0600   -1.9820   -1.7660 DU        1 9LO      0.188000
     29 H5B         7.4830   -4.0090   -0.9940 DU        1 9LO      0.204000
     30 H5A         6.3240   -0.4220   -0.3300 DU        1 9LO     -0.085000
     31 HN3         2.7660   -0.6840   -1.2250 DU        1 9LO      0.139000
     32 OXT         9.7790   -6.6730   -2.5760 o         1 9LO     -0.017000
     33 N5A         5.4910   -0.0000    0.0320 ny        1 9LO      0.831000
     34 H2A3       -0.3340    0.4800    0.8120 hn        1 9LO      0.084000
     35 H73         3.6850    0.7710    2.9630 hn        1 9LO      0.133000
     36 H5A2        6.4730   -0.0770    0.2100 DU        1 9LO     -0.085000
@<TRIPOS>BOND
     1    1    3 1   
     2    1   21 1   
     3    1   22 1   
     4    1   34 1   
     5    2    3 1   
     6    2    8 1   
     7    3    4 1   
     8    3   21 1   
     9    4    5 1   
    10    4   31 1   
    11    5    6 1   
    12    5    7 1   
    13    5   31 1   
    14    7    8 1   
    15    7   33 1   
    16    8    9 1   
    17    8   23 1   
    18    8   24 1   
    19    9   23 1   
    20    9   24 1   
    21    9   35 1   
    22   10   20 1   
    23   11   12 1   
    24   11   20 1   
    25   11   25 1   
    26   12   13 1   
    27   12   17 1   
    28   12   27 1   
    29   13   14 1   
    30   13   26 1   
    31   13   28 1   
    32   14   15 1   
    33   14   28 1   
    34   15   16 1   
    35   15   18 1   
    36   16   17 1   
    37   16   29 1   
    38   17   27 1   
    39   17   29 1   
    40   18   19 1   
    41   18   32 1   
    42   20   25 1   
    43   20   30 1   
    44   20   33 1   
    45   20   36 1   
    46   21   22 1   
    47   23   24 1   
    48   30   33 1   
    49   30   36 1   
    50   33   36 1   
@<TRIPOS>SUBSTRUCTURE
     1 9LO         1 TEMP              0 ****  ****    0 ROOT
