@<TRIPOS>MOLECULE
9LO
   33    34     1     0     0
SMALL
bcc


@<TRIPOS>ATOM
      1 N2A         6.6730   -1.1060   -0.5040 nh        1 9LO     -0.883800
      2 N1          4.6550   -0.0590   -1.2200 nc        1 9LO     -0.722300
      3 C2          5.3780   -0.5880   -0.2230 cd        1 9LO      0.675800
      4 N3          4.9490   -0.6130    1.1110 n         1 9LO     -0.492400
      5 C4          3.7010   -0.0560    1.4660 c         1 9LO      0.702700
      6 O4A         3.3910   -0.0850    2.6760 o         1 9LO     -0.663500
      7 C5          2.8980    0.5260    0.3920 cd        1 9LO     -0.254600
      8 C6          3.4240    0.5460   -0.9220 cc        1 9LO      0.447600
      9 N7          2.7820    1.1990   -1.9610 nh        1 9LO     -0.789600
     10 O8A         0.4960   -0.1350   -0.8560 o         1 9LO     -0.643100
     11 N9         -0.6970    0.5330    1.0320 n         1 9LO     -0.430100
     12 C1B        -2.0010    0.4240    0.4790 ca        1 9LO     -0.003400
     13 C2B        -3.0230    1.2620    0.9820 ca        1 9LO     -0.171500
     14 C3B        -4.3240    1.1300    0.5130 ca        1 9LO     -0.096500
     15 C4B        -4.6440    0.1800   -0.4630 ca        1 9LO     -0.128600
     16 C5B        -3.6320   -0.6410   -0.9620 ca        1 9LO     -0.096500
     17 C6B        -2.3210   -0.5320   -0.5030 ca        1 9LO     -0.171500
     18 C7B        -6.0740    0.0500   -0.9680 c         1 9LO      0.908200
     19 O7B        -6.9450    0.8240   -0.4780 o         1 9LO     -0.830300
     20 CAW         0.4640    0.4540    0.2520 c         1 9LO      0.728100
     21 H2A1        6.8900   -1.1250   -1.4790 hn        1 9LO      0.407800
     22 H2A2        6.8680   -1.9720   -0.0490 hn        1 9LO      0.407800
     23 H71N        3.0810    0.9720   -2.8840 hn        1 9LO      0.430800
     24 H72N        1.7910    1.2950   -1.8600 hn        1 9LO      0.430800
     25 H9         -0.6580    1.1200    1.8390 hn        1 9LO      0.295500
     26 H2B        -2.8000    2.0180    1.7490 ha        1 9LO      0.123500
     27 H6B        -1.5370   -1.1830   -0.9180 ha        1 9LO      0.123500
     28 H3B        -5.1330    1.7720    0.8990 ha        1 9LO      0.154500
     29 H5B        -3.8960   -1.3840   -1.7330 ha        1 9LO      0.154500
     30 H5A         1.6340    1.3620    1.7040 hn        1 9LO      0.296500
     31 HN3         5.5240   -0.9840    1.8340 hn        1 9LO      0.332500
     32 OXT        -6.3120   -0.8220   -1.8500 o         1 9LO     -0.830300
     33 N5A         1.6530    1.0980    0.7360 n         1 9LO     -0.411100
@<TRIPOS>BOND
     1    1    3 1   
     2    1   21 1   
     3    1   22 1   
     4    2    3 2   
     5    2    8 1   
     6    3    4 1   
     7    4    5 1   
     8    4   31 1   
     9    5    6 2   
    10    5    7 1   
    11    7    8 2   
    12    7   33 1   
    13    8    9 1   
    14    9   23 1   
    15    9   24 1   
    16   10   20 2   
    17   11   12 1   
    18   11   20 1   
    19   11   25 1   
    20   12   13 ar  
    21   12   17 ar  
    22   13   14 ar  
    23   13   26 1   
    24   14   15 ar  
    25   14   28 1   
    26   15   16 ar  
    27   15   18 1   
    28   16   17 ar  
    29   16   29 1   
    30   17   27 1   
    31   18   19 1   
    32   18   32 1   
    33   20   33 1   
    34   30   33 1   
@<TRIPOS>SUBSTRUCTURE
     1 9LO         1 TEMP              0 ****  ****    0 ROOT
