@<TRIPOS>MOLECULE
9M9
   39    41     1     0     0
SMALL
bcc


@<TRIPOS>ATOM
      1 N01        -0.2990    0.9200    0.3090 nb        1 9M9     -0.746000
      2 C02         1.0460    0.8950    0.1950 ca        1 9M9      0.661200
      3 N02         1.6640    1.6130   -0.8290 nh        1 9M9     -0.935500
      4 C03         1.8940    0.1980    1.1520 ca        1 9M9     -0.269300
      5 C04         1.3150   -0.4310    2.2160 ca        1 9M9     -0.052000
      6 C05        -0.1010   -0.4030    2.3760 ca        1 9M9     -0.181300
      7 C06        -0.7510   -1.0340    3.4640 ca        1 9M9     -0.081000
      8 C07        -2.1180   -0.9840    3.5880 ca        1 9M9     -0.145000
      9 C08        -2.8920   -0.3050    2.6120 ca        1 9M9     -0.095300
     10 C09        -2.2930    0.3150    1.5400 ca        1 9M9     -0.151300
     11 C10        -0.8670    0.2900    1.3910 ca        1 9M9      0.442600
     12 C11        -4.3770   -0.3070    2.7650 c3        1 9M9      0.177700
     13 O12        -4.8370    1.0100    2.3910 os        1 9M9     -0.316900
     14 C21        -7.9480    2.8370    2.0620 ca        1 9M9     -0.158300
     15 C22        -8.9000    1.9130    2.5020 ca        1 9M9     -0.134000
     16 C23        -8.4890    0.6400    2.9010 ca        1 9M9     -0.077000
     17 C24        -7.1430    0.2860    2.8810 ca        1 9M9     -0.160000
     18 C25        -6.1890    1.2220    2.4460 ca        1 9M9      0.157100
     19 C26        -6.5930    2.5040    2.0260 ca        1 9M9     -0.161000
     20 N28        -7.9630    5.2410    2.5840 n4        1 9M9     -0.844600
     21 HN02        1.0880    1.9360   -1.5720 hn        1 9M9      0.417300
     22 HN0A        2.5590    1.2760   -1.1000 hn        1 9M9      0.417300
     23 H03         2.9840    0.1950    1.0110 ha        1 9M9      0.151000
     24 H04         1.9240   -0.9660    2.9610 ha        1 9M9      0.146000
     25 H06        -0.1400   -1.5620    4.2120 ha        1 9M9      0.141000
     26 H07        -2.6220   -1.4690    4.4360 ha        1 9M9      0.135000
     27 H09        -2.9030    0.8440    0.7890 ha        1 9M9      0.152000
     28 H11        -4.6800   -0.5090    3.8270 h1        1 9M9      0.056200
     29 H11A       -4.8460   -1.0630    2.0790 h1        1 9M9      0.056200
     30 H22        -9.9690    2.1720    2.5180 ha        1 9M9      0.145000
     31 H23        -9.2410   -0.0950    3.2340 ha        1 9M9      0.162000
     32 H24        -6.8380   -0.7230    3.1990 ha        1 9M9      0.165000
     33 H26        -5.8310    3.2050    1.6540 ha        1 9M9      0.151000
     34 H27        -7.8780    4.4400    0.6110 hx        1 9M9      0.113700
     35 H27A       -9.4910    4.2470    1.4710 hx        1 9M9      0.113700
     36 HN28       -8.1940    6.1730    2.2290 hn        1 9M9      0.458800
     37 HN2A       -8.4450    5.0890    3.4750 hn        1 9M9      0.458800
     38 H283       -6.9520    5.1790    2.7510 hn        1 9M9      0.458800
     39 C27        -8.3710    4.1870    1.5950 c3        1 9M9      0.173100
@<TRIPOS>BOND
     1    1    2 ar  
     2    1   11 ar  
     3    2    3 1   
     4    2    4 ar  
     5    3   21 1   
     6    3   22 1   
     7    4    5 ar  
     8    4   23 1   
     9    5    6 ar  
    10    5   24 1   
    11    6    7 ar  
    12    6   11 ar  
    13    7    8 ar  
    14    7   25 1   
    15    8    9 ar  
    16    8   26 1   
    17    9   10 ar  
    18    9   12 1   
    19   10   11 ar  
    20   10   27 1   
    21   12   13 1   
    22   12   28 1   
    23   12   29 1   
    24   13   18 1   
    25   14   15 ar  
    26   14   19 ar  
    27   14   39 1   
    28   15   16 ar  
    29   15   30 1   
    30   16   17 ar  
    31   16   31 1   
    32   17   18 ar  
    33   17   32 1   
    34   18   19 ar  
    35   19   33 1   
    36   20   36 1   
    37   20   37 1   
    38   20   38 1   
    39   20   39 1   
    40   34   39 1   
    41   35   39 1   
@<TRIPOS>SUBSTRUCTURE
     1 9M9         1 TEMP              0 ****  ****    0 ROOT
