@<TRIPOS>MOLECULE
9M9
   39    40     1     0     0
SMALL
bcc


@<TRIPOS>ATOM
      1 N01         0.2540    0.2330   -0.4210 n2        1 9M9     -0.203000
      2 C02         1.5710    0.1840   -0.4080 c2        1 9M9      0.068000
      3 N02         2.2980    0.5130   -1.5570 n8        1 9M9     -0.329000
      4 C03         2.4080   -0.1400    0.8240 c3        1 9M9     -0.221000
      5 C04         1.6650   -0.4800    2.0230 c1        1 9M9     -0.025000
      6 C05         0.2360   -0.4290    2.0030 c2        1 9M9     -0.143000
      7 C06        -0.4410   -0.8380    3.1080 c2        1 9M9      0.014000
      8 C07        -1.8900   -0.8880    3.1680 c2        1 9M9     -0.172000
      9 C08        -2.6750    0.1980    3.1050 c2        1 9M9     -0.110000
     10 C09        -1.7870    0.2660    0.8320 c1        1 9M9      0.160000
     11 C10        -0.4590    0.0360    0.7800 c2        1 9M9     -0.277000
     12 C11        -4.1580    0.0950    3.1030 c3        1 9M9      0.006000
     13 O12        -4.6510    1.4450    3.3130 os        1 9M9     -0.173000
     14 C21        -7.8300    2.8900    2.5920 c2        1 9M9     -0.222000
     15 C22        -8.6650    1.6450    2.3770 c3        1 9M9     -0.117000
     16 C23        -8.2370    0.5850    3.3550 c2        1 9M9     -0.076000
     17 C24        -6.9360    0.5950    3.5940 c1        1 9M9     -0.237000
     18 C25        -6.0000    1.5330    3.3700 c2        1 9M9      0.114000
     19 C26        -6.5790    2.8690    3.1220 c2        1 9M9     -0.017000
     20 N28        -9.3860    4.7450    3.0630 nz        1 9M9     -0.072000
     21 HN02        1.7860    0.5900   -2.4090 hn        1 9M9      0.205000
     22 HN0A        3.1670    0.0360   -1.6410 hn        1 9M9      0.205000
     23 H03         3.0620    0.7460    1.0820 hc        1 9M9      0.162500
     24 H04         3.1060   -1.0000    0.6060 hc        1 9M9      0.162500
     25 H06         0.1110   -1.1920    3.9990 ha        1 9M9      0.174000
     26 H07        -2.3130   -1.9050    3.2650 ha        1 9M9      0.155000
     27 H09        -2.2690    1.2250    3.0600 ha        1 9M9      0.164000
     28 H11        -4.5280   -0.2680    2.1070 h1        1 9M9      0.120000
     29 H11A       -4.5550   -0.5590    3.9250 h1        1 9M9      0.120000
     30 H22        -8.5560    1.3200    1.3060 hc        1 9M9      0.113000
     31 H23        -9.7500    1.8670    2.5550 hc        1 9M9      0.113000
     32 H24        -8.9890   -0.0400    3.8480 ha        1 9M9      0.172000
     33 H26        -5.9380    3.7530    3.2480 ha        1 9M9      0.165000
     34 H27        -7.6200    4.9340    1.8870 hx        1 9M9      0.155500
     35 H27A       -8.9800    3.9660    1.1180 hx        1 9M9      0.155500
     36 HN28       -8.9060    4.9580    3.9430 hn        1 9M9      0.255000
     37 HN2A      -10.1340    4.0710    3.2600 hn        1 9M9      0.255000
     38 H283       -9.7960    5.6040    2.6860 hn        1 9M9      0.255000
     39 C27        -8.4160    4.1560    2.0790 c3        1 9M9     -0.075000
@<TRIPOS>BOND
     1    1    2 1   
     2    1   11 1   
     3    2    3 1   
     4    2    4 1   
     5    3   21 1   
     6    3   22 1   
     7    4    5 1   
     8    4   23 1   
     9    4   24 1   
    10    5    6 1   
    11    6    7 1   
    12    6   11 1   
    13    7    8 1   
    14    7   25 1   
    15    8    9 1   
    16    8   26 1   
    17    9   12 1   
    18    9   27 1   
    19   10   11 1   
    20   12   13 1   
    21   12   28 1   
    22   12   29 1   
    23   13   18 1   
    24   14   15 1   
    25   14   19 1   
    26   14   39 1   
    27   15   16 1   
    28   15   30 1   
    29   15   31 1   
    30   16   17 1   
    31   16   32 1   
    32   17   18 1   
    33   18   19 1   
    34   19   33 1   
    35   20   36 1   
    36   20   37 1   
    37   20   38 1   
    38   20   39 1   
    39   34   39 1   
    40   35   39 1   
@<TRIPOS>SUBSTRUCTURE
     1 9M9         1 TEMP              0 ****  ****    0 ROOT
