@<TRIPOS>MOLECULE
9MG
   19    16     1     0     0
SMALL
bcc


@<TRIPOS>ATOM
      1 C1         -2.6580    0.0580    1.1730 c3        1 9MG      0.034600
      2 N2         -1.2340    0.0580    1.1730 n3        1 9MG     -0.114400
      3 C3         -0.5940    0.0580    2.3640 c1        1 9MG      0.156400
      4 N4          0.7360    0.0580    2.1250 ne        1 9MG     -0.344400
      5 C5          0.9210    0.0580    0.7780 cg        1 9MG     -0.175000
      6 C6          2.0670    0.0580   -0.0030 c1        1 9MG      0.612400
      7 O7          3.4170    0.2730    0.3280 oh        1 9MG     -0.441600
      8 N8          1.9660    0.0580   -1.3420 n1        1 9MG     -0.648800
      9 C9          0.7360    0.0580   -1.9350 c1        1 9MG      0.580600
     10 N10         0.5330   -0.1480   -3.3240 n3        1 9MG     -0.790400
     11 N11        -0.3920    0.0580   -1.1690 n1        1 9MG     -0.577800
     12 C12        -0.2930    0.0580    0.1910 c1        1 9MG      0.035700
     13 H11        -2.9830    0.0600    0.2530 h1        1 9MG      0.057033
     14 H12        -2.9830   -0.7390    1.6320 h1        1 9MG      0.057033
     15 H13        -2.9830    0.8550    1.6340 h1        1 9MG      0.057033
     16 H3         -1.0190    0.0590    3.2430 DU        1 9MG      0.202000
     17 HO7         3.8280   -0.5080    0.4170 ho        1 9MG      0.442000
     18 H101        1.2490   -0.2420   -3.8810 hn        1 9MG      0.429800
     19 H102       -0.3150   -0.1940   -3.6580 hn        1 9MG      0.429800
@<TRIPOS>BOND
     1    1    2 1   
     2    1   13 1   
     3    1   14 1   
     4    1   15 1   
     5    2    3 2   
     6    2   12 1   
     7    3    4 2   
     8    4    5 1   
     9    5   12 3   
    10    6    7 1   
    11    6    8 3   
    12    7   17 1   
    13    9   10 1   
    14    9   11 3   
    15   10   18 1   
    16   10   19 1   
@<TRIPOS>SUBSTRUCTURE
     1 9MG         1 TEMP              0 ****  ****    0 ROOT
