@<TRIPOS>MOLECULE
9MG
   19    20     1     0     0
SMALL
bcc


@<TRIPOS>ATOM
      1 C1         -0.0060    0.0020   -0.0050 c3        1 9MG      0.034600
      2 N2          1.4170    0.0180    0.0010 na        1 9MG     -0.271000
      3 C3          2.2680   -0.0460    1.1370 cc        1 9MG      0.391700
      4 N4          3.5720   -0.0990    0.8350 nd        1 9MG     -0.499100
      5 C5          3.6200   -0.0840   -0.5660 ca        1 9MG     -0.218200
      6 C6          4.6590   -0.1070   -1.5290 ca        1 9MG      0.756600
      7 O7          5.9470   -0.1480   -1.0770 oh        1 9MG     -0.583300
      8 N8          4.4100   -0.0790   -2.8550 nb        1 9MG     -0.849000
      9 C9          3.0720   -0.0430   -3.2630 ca        1 9MG      0.917900
     10 N10         2.8410   -0.1280   -4.6400 nv        1 9MG     -0.927500
     11 N11         1.9600    0.0130   -2.4400 nb        1 9MG     -0.778000
     12 C12         2.2630   -0.0190   -1.1160 ca        1 9MG      0.481800
     13 H11        -0.3890    0.6200   -0.8610 h1        1 9MG      0.057033
     14 H12        -0.3870   -1.0500   -0.1200 h1        1 9MG      0.057033
     15 H13        -0.3860    0.4260    0.9630 h1        1 9MG      0.057033
     16 H3          1.8510   -0.0390    2.1510 h5        1 9MG      0.072800
     17 HO7         6.5590   -0.1680   -1.8340 ho        1 9MG      0.442000
     18 H101        3.6060    0.0820   -5.2370 hn        1 9MG      0.429800
     19 H102        1.9400    0.1420   -4.9600 hn        1 9MG      0.429800
@<TRIPOS>BOND
     1    1    2 1   
     2    1   13 1   
     3    1   14 1   
     4    1   15 1   
     5    2    3 1   
     6    2   12 1   
     7    3    4 2   
     8    3   16 1   
     9    4    5 1   
    10    5    6 ar  
    11    5   12 ar  
    12    6    7 1   
    13    6    8 ar  
    14    7   17 1   
    15    8    9 ar  
    16    9   10 1   
    17    9   11 ar  
    18   10   18 1   
    19   10   19 1   
    20   11   12 ar  
@<TRIPOS>SUBSTRUCTURE
     1 9MG         1 TEMP              0 ****  ****    0 ROOT
