@<TRIPOS>MOLECULE
9MG
   20    21     1     0     0
SMALL
bcc


@<TRIPOS>ATOM
      1 C1         -0.0200   -0.1320   -0.0080 c3        1 9MG      0.014600
      2 N2          1.4050   -0.0240    0.0120 na        1 9MG     -0.223000
      3 C3          2.2450    0.0620    1.1460 cc        1 9MG      0.454700
      4 N4          3.5580    0.1540    0.8480 nd        1 9MG     -0.483100
      5 C5          3.6150    0.1290   -0.5430 ca        1 9MG     -0.114200
      6 C6          4.6770    0.1890   -1.4920 ca        1 9MG      0.766600
      7 O7          5.9420    0.2930   -1.0200 oh        1 9MG     -0.539300
      8 N8          4.4280    0.1430   -2.8270 nb        1 9MG     -0.797000
      9 C9          3.1030    0.0360   -3.1980 ca        1 9MG      0.727900
     10 N10         2.8800   -0.0110   -4.6770 n4        1 9MG     -0.813300
     11 N11         1.9800   -0.0320   -2.4360 nb        1 9MG     -0.662000
     12 C12         2.2570    0.0160   -1.0960 ca        1 9MG      0.414800
     13 H11        -0.4030   -0.1360    1.0480 h1        1 9MG      0.079367
     14 H12        -0.3250   -1.0850   -0.5200 h1        1 9MG      0.079367
     15 H13        -0.4620    0.7410   -0.5620 h1        1 9MG      0.079367
     16 H3          1.8320    0.0520    2.1670 h5        1 9MG      0.108800
     17 HO7         6.5870    0.3270   -1.7530 ho        1 9MG      0.467000
     18 H101        3.2530    0.8490   -5.0980 hn        1 9MG      0.480133
     19 H102        1.8760   -0.0910   -4.8820 hn        1 9MG      0.480133
     20 H103        3.3780   -0.8230   -5.0630 hn        1 9MG      0.480133
@<TRIPOS>BOND
     1    1    2 1   
     2    1   13 1   
     3    1   14 1   
     4    1   15 1   
     5    2    3 1   
     6    2   12 1   
     7    3    4 2   
     8    3   16 1   
     9    4    5 1   
    10    5    6 ar  
    11    5   12 ar  
    12    6    7 1   
    13    6    8 ar  
    14    7   17 1   
    15    8    9 ar  
    16    9   10 1   
    17    9   11 ar  
    18   10   18 1   
    19   10   19 1   
    20   10   20 1   
    21   11   12 ar  
@<TRIPOS>SUBSTRUCTURE
     1 9MG         1 TEMP              0 ****  ****    0 ROOT
