@<TRIPOS>MOLECULE
9MG
   19    20     1     0     0
SMALL
bcc


@<TRIPOS>ATOM
      1 C1          1.6590   -0.0800    2.8800 c3        1 9MG      0.034600
      2 N2          0.5040    0.0320    2.0560 na        1 9MG     -0.271000
      3 C3         -0.8510    0.0600    2.4810 cc        1 9MG      0.391700
      4 N4         -1.7330    0.1120    1.4750 nd        1 9MG     -0.499100
      5 C5         -0.9540    0.1080    0.3090 ca        1 9MG     -0.218200
      6 C6         -1.2350    0.1400   -1.0790 ca        1 9MG      0.756600
      7 O7         -2.5450    0.1770   -1.4640 oh        1 9MG     -0.583300
      8 N8         -0.2580    0.1240   -2.0100 nb        1 9MG     -0.849000
      9 C9          1.0660    0.0950   -1.5610 ca        1 9MG      0.917900
     10 N10         2.0570    0.1920   -2.5420 nh        1 9MG     -0.927500
     11 N11         1.4890    0.0320   -0.2430 nb        1 9MG     -0.778000
     12 C12         0.4690    0.0530    0.6550 ca        1 9MG      0.481800
     13 H11         1.9600   -1.1580    2.9890 h1        1 9MG      0.057033
     14 H12         2.5120    0.4880    2.4200 h1        1 9MG      0.057033
     15 H13         1.4330    0.3410    3.8960 h1        1 9MG      0.057033
     16 H3         -1.1040    0.0500    3.5480 h5        1 9MG      0.072800
     17 HO7        -2.6000    0.2050   -2.4360 ho        1 9MG      0.442000
     18 H101        1.7860   -0.0170   -3.4750 hn        1 9MG      0.429800
     19 H102        2.9770   -0.0740   -2.2770 hn        1 9MG      0.429800
@<TRIPOS>BOND
     1    1    2 1   
     2    1   13 1   
     3    1   14 1   
     4    1   15 1   
     5    2    3 1   
     6    2   12 1   
     7    3    4 2   
     8    3   16 1   
     9    4    5 1   
    10    5    6 ar  
    11    5   12 ar  
    12    6    7 1   
    13    6    8 ar  
    14    7   17 1   
    15    8    9 ar  
    16    9   10 1   
    17    9   11 ar  
    18   10   18 1   
    19   10   19 1   
    20   11   12 ar  
@<TRIPOS>SUBSTRUCTURE
     1 9MG         1 TEMP              0 ****  ****    0 ROOT
