@<TRIPOS>MOLECULE
9MJ
   22    23     1     0     0
SMALL
bcc


@<TRIPOS>ATOM
      1 C          -0.0350   -0.0350   -0.0120 c         1 9MJ      0.565900
      2 N           1.4840   -0.0730   -0.1190 nz        1 9MJ     -0.722400
      3 O          -0.4820   -0.0340    1.1400 o         1 9MJ     -0.497100
      4 C1         -1.2270    0.0250   -3.3020 cc        1 9MJ      0.677000
      5 N1         -0.7460   -0.0070   -1.1850 n         1 9MJ     -0.110500
      6 O1          0.1440    0.0070   -5.3150 os        1 9MJ     -0.342800
      7 C2         -2.2280    0.0330   -1.3260 cd        1 9MJ      0.793400
      8 N2         -0.1720   -0.0110   -2.4390 nd        1 9MJ     -0.608800
      9 C3         -1.1390    0.0350   -4.7330 cc        1 9MJ      0.115700
     10 N3         -2.5040    0.0520   -2.6580 nc        1 9MJ     -0.716000
     11 C4         -0.0590    0.0250   -6.6870 cc        1 9MJ      0.309600
     12 N4         -3.0720    0.0450   -0.2650 nv        1 9MJ     -0.937500
     13 C5         -1.4120    0.0630   -6.9840 cd        1 9MJ     -0.278300
     14 C6         -2.1120    0.0690   -5.7260 cd        1 9MJ     -0.118300
     15 HN          1.8690   -0.0910    0.8330 hn        1 9MJ      0.482133
     16 HNA         1.8250    0.7560   -0.6200 hn        1 9MJ      0.482133
     17 H4          0.8570    0.0060   -7.2770 h4        1 9MJ      0.074100
     18 HN4        -2.7280    0.0270    0.6680 hn        1 9MJ      0.487300
     19 HN4A       -4.0540    0.0710   -0.4340 hn        1 9MJ      0.487300
     20 H5         -1.8730    0.0840   -7.9700 ha        1 9MJ      0.188000
     21 H6         -3.1920    0.0960   -5.5860 ha        1 9MJ      0.189000
     22 HN3         1.7820   -0.9100   -0.6340 hn        1 9MJ      0.482133
@<TRIPOS>BOND
     1    1    2 1   
     2    1    3 2   
     3    1    5 1   
     4    2   15 1   
     5    2   16 1   
     6    2   22 1   
     7    4    8 2   
     8    4    9 1   
     9    4   10 1   
    10    5    7 1   
    11    5    8 1   
    12    6    9 1   
    13    6   11 1   
    14    7   10 2   
    15    7   12 1   
    16    9   14 2   
    17   11   13 2   
    18   11   17 1   
    19   12   18 1   
    20   12   19 1   
    21   13   14 1   
    22   13   20 1   
    23   14   21 1   
@<TRIPOS>SUBSTRUCTURE
     1 9MJ         1 TEMP              0 ****  ****    0 ROOT
