@<TRIPOS>MOLECULE
9MQ
   78    72     1     0     0
SMALL
bcc


@<TRIPOS>ATOM
      1 C20         0.4370   -0.0490    3.0300 c3        1 9MQ     -0.022000
      2 C27         0.8890    1.0860    3.5630 c3        1 9MQ     -0.172000
      3 C32        -0.0940    2.3070    3.2890 c3        1 9MQ     -0.081000
      4 C33         0.7470    1.1000    5.1690 c3        1 9MQ     -0.149000
      5 N37         0.3740    3.5690    3.8920 n3        1 9MQ     -0.261000
      6 C38         1.2100    2.3470    5.7660 c3        1 9MQ     -0.182000
      7 C40         1.2600    3.3580    4.8440 c3        1 9MQ     -0.053000
      8 C41        -0.5480    4.7230    4.0020 c2        1 9MQ      0.153000
      9 N42        -1.7960    4.5440    4.4450 n1        1 9MQ     -0.363000
     10 N43        -0.1050    6.0230    3.6440 n3        1 9MQ     -0.320000
     11 N3         -0.6160   -1.4000   -1.7140 n3        1 9MQ     -0.880000
     12 C1          0.7910   -1.3290   -1.6770 c3        1 9MQ      0.050000
     13 C2          1.3840   -2.3180   -2.7010 c2        1 9MQ      0.288000
     14 O6          1.2400   -3.5250   -2.5400 o         1 9MQ     -0.418000
     15 C4          1.2800   -1.6880   -0.2920 c3        1 9MQ     -0.202000
     16 C8          1.2010   -0.4350    0.6290 c2        1 9MQ      0.302000
     17 O15         0.9110    0.6190    0.1700 o         1 9MQ     -0.445000
     18 N14         1.4160   -0.5740    2.1110 n         1 9MQ     -0.343000
     19 S7         -1.5040   -0.0290   -1.9830 s4        1 9MQ      2.077800
     20 O13        -0.7010    1.1800   -1.7510 o         1 9MQ     -0.551900
     21 O12        -1.8310    0.1160   -3.3810 o         1 9MQ     -0.551900
     22 C18        -2.9780    1.1510   -0.1710 c1        1 9MQ     -0.078750
     23 C11        -2.9790   -0.0330   -0.9670 c1        1 9MQ     -0.832000
     24 C19        -4.1470   -0.7140   -1.1780 c1        1 9MQ     -0.041000
     25 C26        -5.3480   -0.2470   -0.6110 c1        1 9MQ     -0.078750
     26 C35        -6.5580    1.3700    0.7320 c1        1 9MQ     -0.078750
     27 C39        -6.5640    2.5220    1.5090 c1        1 9MQ     -0.136000
     28 C36        -5.3710    3.2260    1.7320 c1        1 9MQ     -0.136000
     29 C31        -4.1650    2.7640    1.1650 c1        1 9MQ     -0.078750
     30 C25        -4.1590    1.6080    0.3850 c1        1 9MQ     -0.033500
     31 C30        -5.3510    0.9080    0.1660 c1        1 9MQ     -0.033500
     32 N5          2.1460   -1.8300   -3.8210 n         1 9MQ     -0.279000
     33 C9          3.4460   -2.4980   -4.1730 c3        1 9MQ      0.007000
     34 C10         1.5170   -0.8850   -4.7870 c3        1 9MQ     -0.106000
     35 C16         3.2340   -4.0440   -4.2420 c2        1 9MQ     -0.081000
     36 C17         2.4160    0.3490   -4.9500 c2        1 9MQ      0.301000
     37 C21         3.0810   -4.7430   -5.3900 c2        1 9MQ     -0.124000
     38 C22         3.9220   -4.6180   -3.1600 c1        1 9MQ     -0.107000
     39 O23         3.6170    0.2710   -4.6880 o         1 9MQ     -0.576000
     40 O24         1.9070    1.4730   -5.2890 o         1 9MQ     -0.576000
     41 C28         3.6120   -6.0450   -5.4980 c1        1 9MQ     -0.142000
     42 C29         4.4380   -5.8860   -3.2690 c1        1 9MQ     -0.136000
     43 C34         4.2800   -6.6000   -4.4450 c1        1 9MQ     -0.136000
     44 H201       -0.4150    0.1310    2.5400 h1        1 9MQ      0.083500
     45 H202        0.2740   -0.7060    3.7480 h1        1 9MQ      0.083500
     46 H27         1.7890    1.2830    3.2840 hc        1 9MQ      0.153000
     47 H321       -0.9420    2.0970    3.6450 h1        1 9MQ      0.127000
     48 H322       -0.1800    2.4310    2.3360 h1        1 9MQ      0.127000
     49 H331       -0.2000    0.9680    5.4060 hc        1 9MQ      0.073500
     50 H332        1.2520    0.3870    5.5260 hc        1 9MQ      0.073500
     51 H381        2.1280    2.2060    6.1490 hc        1 9MQ      0.075500
     52 H382        0.5970    2.6060    6.4870 hc        1 9MQ      0.075500
     53 H401        1.3010    4.2090    5.3740 h1        1 9MQ      0.094500
     54 H402        2.1510    3.2630    4.3760 h1        1 9MQ      0.094500
     55 H42        -2.0900    3.6920    4.6840 DU        1 9MQ      0.156000
     56 H431        0.5910    6.1220    3.0960 hn        1 9MQ      0.182500
     57 H432       -0.5440    6.7760    3.9850 hn        1 9MQ      0.182500
     58 H3         -1.0350   -2.1780   -1.5190 hn        1 9MQ      0.251000
     59 H1          1.0660   -0.4510   -1.8900 h1        1 9MQ      0.153000
     60 H41C        0.7400   -2.3720    0.0610 hc        1 9MQ      0.137000
     61 H42C        2.2020   -1.9950   -0.3420 hc        1 9MQ      0.137000
     62 H14         2.1320   -1.0650    2.4300 hn        1 9MQ      0.285000
     63 H18        -2.2420    1.7430    0.1890 ha        1 9MQ      0.150000
     64 H19        -4.5020   -1.4570   -1.7930 ha        1 9MQ      0.153000
     65 H26        -6.2100   -0.5800   -0.9220 ha        1 9MQ      0.150000
     66 H35        -7.3530    0.9010    0.5850 ha        1 9MQ      0.150000
     67 H39        -7.4000    2.8400    1.9020 ha        1 9MQ      0.123750
     68 H36        -5.3750    3.9960    2.2500 ha        1 9MQ      0.123750
     69 H31        -3.3280    3.2550    1.3200 ha        1 9MQ      0.150000
     70 H91C        3.7650   -2.1610   -5.0690 h1        1 9MQ      0.109000
     71 H92C        4.1200   -2.2900   -3.4830 h1        1 9MQ      0.109000
     72 H101        0.6150   -0.6030   -4.4450 h1        1 9MQ      0.094500
     73 H102        1.4120   -1.3310   -5.6580 h1        1 9MQ      0.094500
     74 H21         2.6180   -4.3600   -6.1180 ha        1 9MQ      0.131000
     75 H22         4.0330   -4.1160   -2.3300 ha        1 9MQ      0.160000
     76 H28         3.5050   -6.5420   -6.3120 ha        1 9MQ      0.119000
     77 H29         4.9190   -6.2740   -2.5340 ha        1 9MQ      0.123750
     78 H34         4.6670   -7.5510   -4.5260 ha        1 9MQ      0.123750
@<TRIPOS>BOND
     1    1    2 1   
     2    1   18 1   
     3    1   44 1   
     4    1   45 1   
     5    2    3 1   
     6    2    4 1   
     7    2   46 1   
     8    3    5 1   
     9    3   47 1   
    10    3   48 1   
    11    4    6 1   
    12    4   49 1   
    13    4   50 1   
    14    5    7 1   
    15    5    8 1   
    16    6    7 1   
    17    6   51 1   
    18    6   52 1   
    19    7   53 1   
    20    7   54 1   
    21    8    9 1   
    22    8   10 1   
    23   10   56 1   
    24   10   57 1   
    25   11   12 1   
    26   11   19 1   
    27   11   58 1   
    28   12   13 1   
    29   12   15 1   
    30   12   59 1   
    31   13   14 1   
    32   13   32 1   
    33   15   16 1   
    34   15   60 1   
    35   15   61 1   
    36   16   17 1   
    37   16   18 1   
    38   18   62 1   
    39   19   20 1   
    40   19   21 1   
    41   22   30 1   
    42   22   63 1   
    43   23   24 1   
    44   24   64 1   
    45   25   31 1   
    46   25   65 1   
    47   26   31 1   
    48   26   66 1   
    49   27   28 1   
    50   27   67 1   
    51   28   68 1   
    52   29   30 1   
    53   29   69 1   
    54   32   33 1   
    55   32   34 1   
    56   33   35 1   
    57   33   70 1   
    58   33   71 1   
    59   34   36 1   
    60   34   72 1   
    61   34   73 1   
    62   35   37 1   
    63   35   38 1   
    64   36   39 1   
    65   36   40 1   
    66   37   41 1   
    67   37   74 1   
    68   38   75 1   
    69   41   76 1   
    70   42   43 1   
    71   42   77 1   
    72   43   78 1   
@<TRIPOS>SUBSTRUCTURE
     1 9MQ         1 TEMP              0 ****  ****    0 ROOT
