@<TRIPOS>MOLECULE
9MQ
   78    81     1     0     0
SMALL
bcc


@<TRIPOS>ATOM
      1 C20        -4.1830    1.9110   -1.0000 c3        1 9MQ      0.107000
      2 C27        -5.0280    1.0950   -0.0160 c3        1 9MQ     -0.112700
      3 C32        -4.3040    0.9710    1.3340 c3        1 9MQ      0.147800
      4 C33        -6.3860    1.7380    0.2110 c3        1 9MQ     -0.069400
      5 N37        -5.0260    0.1730    2.3180 nh        1 9MQ     -0.688600
      6 C38        -7.1820    0.9310    1.2190 c3        1 9MQ     -0.107400
      7 C40        -6.3830    0.6660    2.4980 c3        1 9MQ      0.190800
      8 C41        -4.8680   -1.2660    2.1080 c2        1 9MQ      0.750100
      9 N42        -5.9190   -2.0200    1.8760 n2        1 9MQ     -0.914100
     10 N43        -3.5500   -1.7730    2.3190 nh        1 9MQ     -0.911800
     11 N3          0.7340    1.7580   -2.1280 n3        1 9MQ     -0.909100
     12 C1         -0.0840    0.5810   -2.0600 c3        1 9MQ      0.180500
     13 C2          0.7410   -0.6840   -2.4360 c         1 9MQ      0.644100
     14 O6          1.3370   -0.7110   -3.5380 o         1 9MQ     -0.651100
     15 C4         -1.2540    0.5690   -3.0620 c3        1 9MQ     -0.166400
     16 C8         -2.4310    1.4450   -2.6710 c         1 9MQ      0.661100
     17 O15        -2.8570    2.3190   -3.4610 o         1 9MQ     -0.647100
     18 N14        -3.0440    1.1740   -1.4770 n         1 9MQ     -0.560900
     19 O13        -0.4240    3.3660   -0.5850 o         1 9MQ     -0.657800
     20 O12         1.6670    3.9570   -1.5940 o         1 9MQ     -0.657800
     21 C18         3.0120    2.4940    0.4500 ca        1 9MQ      0.012000
     22 C11         1.6670    2.2540    0.2630 ca        1 9MQ     -0.370500
     23 C19         0.9690    1.4660    1.2160 ca        1 9MQ     -0.035000
     24 C26         1.6150    0.9540    2.3160 ca        1 9MQ     -0.141000
     25 C35         3.6950    0.6820    3.6510 ca        1 9MQ     -0.128000
     26 C39         5.0330    0.9360    3.8180 ca        1 9MQ     -0.117000
     27 C36         5.7410    1.7170    2.8700 ca        1 9MQ     -0.148000
     28 C31         5.0940    2.2280    1.7730 ca        1 9MQ     -0.098000
     29 C25         3.7070    1.9800    1.5730 ca        1 9MQ     -0.077000
     30 C30         2.9980    1.1990    2.5220 ca        1 9MQ      0.009000
     31 N5          0.7210   -1.7860   -1.6070 n         1 9MQ     -0.435800
     32 C9          1.1720   -3.0660   -2.1100 c3        1 9MQ      0.132300
     33 C10         0.4600   -1.6990   -0.1890 c3        1 9MQ     -0.032000
     34 C16         2.6040   -3.4050   -1.7990 ca        1 9MQ     -0.103300
     35 C17        -1.0310   -1.6560    0.2190 c         1 9MQ      0.901600
     36 C21         2.9100   -4.3630   -0.8280 ca        1 9MQ     -0.115000
     37 C22         3.6370   -2.7760   -2.5030 ca        1 9MQ     -0.115000
     38 O23        -1.6990   -2.7200    0.2530 o         1 9MQ     -0.845300
     39 O24        -1.5000   -0.5240    0.5670 o         1 9MQ     -0.845300
     40 C28         4.2400   -4.6980   -0.5720 ca        1 9MQ     -0.141000
     41 C29         4.9650   -3.1120   -2.2430 ca        1 9MQ     -0.141000
     42 C34         5.2670   -4.0740   -1.2790 ca        1 9MQ     -0.136000
     43 H201       -3.8370    2.8590   -0.4940 h1        1 9MQ      0.047700
     44 H202       -4.8170    2.2100   -1.8840 h1        1 9MQ      0.047700
     45 H27        -5.1950    0.0620   -0.4360 hc        1 9MQ      0.071700
     46 H321       -3.2680    0.5580    1.1780 h1        1 9MQ      0.079700
     47 H322       -4.1920    2.0020    1.7780 h1        1 9MQ      0.079700
     48 H331       -6.2470    2.7860    0.5850 hc        1 9MQ      0.033200
     49 H332       -6.9480    1.7960   -0.7560 hc        1 9MQ      0.033200
     50 H381       -8.1170    1.4850    1.4920 hc        1 9MQ      0.046200
     51 H382       -7.4850   -0.0460    0.7600 hc        1 9MQ      0.046200
     52 H401       -6.9600   -0.0400    3.1540 h1        1 9MQ      0.047200
     53 H402       -6.2730    1.6430    3.0540 h1        1 9MQ      0.047200
     54 H42        -5.7260   -2.9970    1.8170 hn        1 9MQ      0.380400
     55 H431       -2.8270   -1.0780    2.3310 hn        1 9MQ      0.415300
     56 H432       -3.3000   -2.4950    1.6630 hn        1 9MQ      0.415300
     57 H3          1.2660    1.8030   -2.9710 hn        1 9MQ      0.459800
     58 H1         -0.4870    0.4890   -1.0010 h1        1 9MQ      0.130700
     59 H41C       -0.8970    0.8960   -4.0750 hc        1 9MQ      0.083200
     60 H42C       -1.6240   -0.4880   -3.1550 hc        1 9MQ      0.083200
     61 H14        -2.6310    0.5130   -0.8480 hn        1 9MQ      0.356500
     62 H19        -0.1110    1.2510    1.0650 ha        1 9MQ      0.196000
     63 H26         1.0650    0.3410    3.0460 ha        1 9MQ      0.148000
     64 H35         3.1370    0.0750    4.3790 ha        1 9MQ      0.136000
     65 H39         5.5740    0.5370    4.6880 ha        1 9MQ      0.126000
     66 H36         6.8120    1.9050    3.0290 ha        1 9MQ      0.126000
     67 H31         5.6330    2.8340    1.0300 ha        1 9MQ      0.131000
     68 H91C        0.4940   -3.8550   -1.6700 h1        1 9MQ      0.071200
     69 H92C        1.0460   -3.0710   -3.2330 h1        1 9MQ      0.071200
     70 H101        0.9190   -2.6010    0.3090 h1        1 9MQ      0.048700
     71 H102        0.9650   -0.7800    0.2270 h1        1 9MQ      0.048700
     72 H21         2.1000   -4.8480   -0.2630 ha        1 9MQ      0.148500
     73 H22         3.3840   -2.0100   -3.2560 ha        1 9MQ      0.148500
     74 H28         4.4760   -5.4520    0.1930 ha        1 9MQ      0.123000
     75 H29         5.7740   -2.6150   -2.7960 ha        1 9MQ      0.123000
     76 H34         6.3140   -4.3380   -1.0740 ha        1 9MQ      0.119000
     77 S7          0.8360    2.9450   -1.0420 sy        1 9MQ      1.517200
     78 H18         3.5680    3.1120   -0.2790 ha        1 9MQ      0.152000
@<TRIPOS>BOND
     1    1    2 1   
     2    1   18 1   
     3    1   43 1   
     4    1   44 1   
     5    2    3 1   
     6    2    4 1   
     7    2   45 1   
     8    3    5 1   
     9    3   46 1   
    10    3   47 1   
    11    4    6 1   
    12    4   48 1   
    13    4   49 1   
    14    5    7 1   
    15    5    8 1   
    16    6    7 1   
    17    6   50 1   
    18    6   51 1   
    19    7   52 1   
    20    7   53 1   
    21    8    9 2   
    22    8   10 1   
    23    9   54 1   
    24   10   55 1   
    25   10   56 1   
    26   11   12 1   
    27   11   57 1   
    28   11   77 1   
    29   12   13 1   
    30   12   15 1   
    31   12   58 1   
    32   13   14 2   
    33   13   31 1   
    34   15   16 1   
    35   15   59 1   
    36   15   60 1   
    37   16   17 2   
    38   16   18 1   
    39   18   61 1   
    40   19   77 2   
    41   20   77 2   
    42   21   22 ar  
    43   21   29 ar  
    44   21   78 1   
    45   22   23 ar  
    46   22   77 1   
    47   23   24 ar  
    48   23   62 1   
    49   24   30 ar  
    50   24   63 1   
    51   25   26 ar  
    52   25   30 ar  
    53   25   64 1   
    54   26   27 ar  
    55   26   65 1   
    56   27   28 ar  
    57   27   66 1   
    58   28   29 ar  
    59   28   67 1   
    60   29   30 ar  
    61   31   32 1   
    62   31   33 1   
    63   32   34 1   
    64   32   68 1   
    65   32   69 1   
    66   33   35 1   
    67   33   70 1   
    68   33   71 1   
    69   34   36 ar  
    70   34   37 ar  
    71   35   38 1   
    72   35   39 1   
    73   36   40 ar  
    74   36   72 1   
    75   37   41 ar  
    76   37   73 1   
    77   40   42 ar  
    78   40   74 1   
    79   41   42 ar  
    80   41   75 1   
    81   42   76 1   
@<TRIPOS>SUBSTRUCTURE
     1 9MQ         1 TEMP              0 ****  ****    0 ROOT
