@<TRIPOS>MOLECULE
9MR
   44    45     1     0     0
SMALL
bcc


@<TRIPOS>ATOM
      1 O2B         0.2100    0.6740   -7.2880 oh        1 9MR     -0.562800
      2 C2B        -0.9230    0.2730   -6.5530 c3        1 9MR      0.128100
      3 C3B        -2.2070    0.2830   -7.3980 c3        1 9MR      0.081100
      4 O3B        -2.0550   -0.7040   -8.4000 oh        1 9MR     -0.578800
      5 C4B        -3.4390   -0.0010   -6.5210 c3        1 9MR      0.074100
      6 O4B        -4.6090    0.0290   -7.3140 oh        1 9MR     -0.585800
      7 C5B        -3.4960    1.0040   -5.3660 c3        1 9MR      0.080100
      8 C6B        -4.6190    0.6670   -4.3770 c3        1 9MR      0.141400
      9 O6B        -4.7170    1.6540   -3.3770 oh        1 9MR     -0.593800
     10 O5B        -2.2960    0.9440   -4.6020 os        1 9MR     -0.454600
     11 C1B        -1.1120    1.2190   -5.3460 c3        1 9MR      0.306900
     12 O3A        -0.1250    0.8990   -4.3940 os        1 9MR     -0.401600
     13 C3A         0.1390    1.9330   -3.4310 c3        1 9MR      0.110100
     14 C4A        -0.1420    1.3360   -2.0390 c3        1 9MR      0.103100
     15 O4A        -1.5320    1.1430   -1.8490 oh        1 9MR     -0.602800
     16 C5M         0.3220    2.3180   -0.9420 c3        1 9MR      0.153800
     17 N5A         1.6880    2.7700   -1.0810 n3        1 9MR     -0.797200
     18 C1A         1.9830    3.2760   -2.4040 c3        1 9MR      0.155800
     19 C2A         1.6070    2.3380   -3.5620 c3        1 9MR     -0.151700
     20 C6A         1.8610    3.0150   -4.9040 c3        1 9MR      0.131400
     21 O6A         3.2400    3.1890   -5.1540 oh        1 9MR     -0.594800
     22 HO2B       -0.0420    1.4270   -7.8390 ho        1 9MR      0.399000
     23 H2B        -0.6830   -0.7690   -6.1990 h1        1 9MR      0.121700
     24 H3B        -2.3280    1.2890   -7.8960 h1        1 9MR      0.031700
     25 HO3B       -2.9420   -0.8990   -8.7380 ho        1 9MR      0.421000
     26 H4B        -3.3930   -1.0560   -6.1280 h1        1 9MR      0.109700
     27 HO4B       -4.7630    0.9450   -7.5790 ho        1 9MR      0.405000
     28 H5B        -3.6320    2.0480   -5.7630 h1        1 9MR      0.051700
     29 H6B1       -4.4350   -0.3430   -3.9240 h1        1 9MR      0.062700
     30 H6B2       -5.6030    0.6780   -4.9150 h1        1 9MR      0.062700
     31 HO6B       -3.8850    1.6470   -2.8810 ho        1 9MR      0.422000
     32 H1B        -1.0890    2.2990   -5.6620 h2        1 9MR      0.043700
     33 H3A        -0.5320    2.8190   -3.5950 h1        1 9MR      0.065700
     34 H4A         0.3930    0.3500   -1.9470 h1        1 9MR      0.047700
     35 HO4A       -1.8200    0.5400   -2.5490 ho        1 9MR      0.421000
     36 H5M1       -0.3540    3.2180   -0.9670 h1        1 9MR      0.069200
     37 H5M2        0.1980    1.8200    0.0590 h1        1 9MR      0.069200
     38 HN5A        2.3230    2.0290   -0.8450 hn        1 9MR      0.355800
     39 H1A1        3.0840    3.5000   -2.4730 h1        1 9MR      0.064200
     40 H1A2        1.4240    4.2460   -2.5310 h1        1 9MR      0.064200
     41 H2A         2.2360    1.4060   -3.5100 hc        1 9MR      0.066700
     42 H6A1        1.4390    4.0560   -4.9150 h1        1 9MR      0.051200
     43 H6A2        1.3880    2.4060   -5.7250 h1        1 9MR      0.051200
     44 HO6A        3.6320    2.3100   -5.2260 ho        1 9MR      0.403000
@<TRIPOS>BOND
     1    1    2 1   
     2    1   22 1   
     3    2    3 1   
     4    2   11 1   
     5    2   23 1   
     6    3    4 1   
     7    3    5 1   
     8    3   24 1   
     9    4   25 1   
    10    5    6 1   
    11    5    7 1   
    12    5   26 1   
    13    6   27 1   
    14    7    8 1   
    15    7   10 1   
    16    7   28 1   
    17    8    9 1   
    18    8   29 1   
    19    8   30 1   
    20    9   31 1   
    21   10   11 1   
    22   11   12 1   
    23   11   32 1   
    24   12   13 1   
    25   13   14 1   
    26   13   19 1   
    27   13   33 1   
    28   14   15 1   
    29   14   16 1   
    30   14   34 1   
    31   15   35 1   
    32   16   17 1   
    33   16   36 1   
    34   16   37 1   
    35   17   18 1   
    36   17   38 1   
    37   18   19 1   
    38   18   39 1   
    39   18   40 1   
    40   19   20 1   
    41   19   41 1   
    42   20   21 1   
    43   20   42 1   
    44   20   43 1   
    45   21   44 1   
@<TRIPOS>SUBSTRUCTURE
     1 9MR         1 TEMP              0 ****  ****    0 ROOT
