@<TRIPOS>MOLECULE
9MR
   44    45     1     0     0
SMALL
bcc


@<TRIPOS>ATOM
      1 O2B         0.0400    0.3470    0.1940 oh        1 9MR     -0.603800
      2 C2B         1.4440    0.1870    0.1030 c3        1 9MR      0.088100
      3 C3B         1.9870    0.1750    1.5390 c3        1 9MR      0.108100
      4 O3B         1.5980   -1.0060    2.2170 oh        1 9MR     -0.603800
      5 C4B         3.5270    0.1760    1.5170 c3        1 9MR      0.122100
      6 O4B         4.0360    0.3440    2.8270 oh        1 9MR     -0.592800
      7 C5B         4.0410    1.3590    0.6820 c3        1 9MR      0.110100
      8 C6B         5.5590    1.2830    0.4790 c3        1 9MR      0.143400
      9 O6B         6.0210    2.3630   -0.2980 oh        1 9MR     -0.596800
     10 O5B         3.4860    1.3190   -0.6330 os        1 9MR     -0.460600
     11 C1B         2.0660    1.3760   -0.6550 c3        1 9MR      0.307900
     12 O3A         1.7840    1.1960   -2.0240 os        1 9MR     -0.424600
     13 C3A         2.0670    2.3390   -2.8500 c3        1 9MR      0.110100
     14 C4A         3.1070    1.8910   -3.8950 c3        1 9MR      0.141100
     15 O4A         4.3720    1.6950   -3.2850 oh        1 9MR     -0.608800
     16 C5M         3.3120    2.9920   -4.9520 c3        1 9MR      0.160800
     17 N5A         2.0620    3.4060   -5.5550 n7        1 9MR     -0.822200
     18 C1A         1.0630    3.8310   -4.5970 c3        1 9MR      0.167800
     19 C2A         0.7680    2.7640   -3.5350 c3        1 9MR     -0.079700
     20 C6A        -0.2170    3.3090   -2.5060 c3        1 9MR      0.132400
     21 O6A        -1.4720    3.4470   -3.1520 oh        1 9MR     -0.596800
     22 HO2B       -0.2990    0.3110   -0.7110 ho        1 9MR      0.425000
     23 H2B         1.6960   -0.7760   -0.4210 h1        1 9MR      0.079700
     24 H3B         1.6050    1.0740    2.0990 h1        1 9MR      0.064700
     25 HO3B        0.6330   -1.0430    2.1760 ho        1 9MR      0.427000
     26 H4B         3.8920   -0.7970    1.0850 h1        1 9MR      0.063700
     27 HO4B        3.6480   -0.3630    3.3620 ho        1 9MR      0.426000
     28 H5B         3.7620    2.3300    1.1760 h1        1 9MR      0.069700
     29 H6B1        5.8300    0.3060   -0.0020 h1        1 9MR      0.062200
     30 H6B2        6.0660    1.3820    1.4750 h1        1 9MR      0.062200
     31 HO6B        5.5950    2.2990   -1.1660 ho        1 9MR      0.420000
     32 H1B         1.6970    2.3620   -0.2600 h2        1 9MR      0.056700
     33 H3A         2.4920    3.1790   -2.2370 h1        1 9MR      0.065700
     34 H4A         2.7610    0.9350   -4.3760 h1        1 9MR      0.062700
     35 HO4A        4.2460    1.0090   -2.6150 ho        1 9MR      0.423000
     36 H5M1        3.8660    3.8440   -4.4590 h1        1 9MR      0.046700
     37 H5M2        3.9710    2.5810   -5.7660 h1        1 9MR      0.046700
     38 HN5A        2.2290    4.1320   -6.2260 hn        1 9MR      0.371800
     39 H1A1        1.3620    4.7840   -4.0640 h1        1 9MR      0.040700
     40 H1A2        0.1080    4.0370   -5.1580 h1        1 9MR      0.040700
     41 H2A         0.3050    1.8660   -4.0300 hc        1 9MR      0.093700
     42 H6A1        0.1240    4.3030   -2.1110 h1        1 9MR      0.023700
     43 H6A2       -0.3030    2.5850   -1.6480 h1        1 9MR      0.023700
     44 HO6A       -2.0890    3.7710   -2.4860 ho        1 9MR      0.403000
@<TRIPOS>BOND
     1    1    2 1   
     2    1   22 1   
     3    2    3 1   
     4    2   11 1   
     5    2   23 1   
     6    3    4 1   
     7    3    5 1   
     8    3   24 1   
     9    4   25 1   
    10    5    6 1   
    11    5    7 1   
    12    5   26 1   
    13    6   27 1   
    14    7    8 1   
    15    7   10 1   
    16    7   28 1   
    17    8    9 1   
    18    8   29 1   
    19    8   30 1   
    20    9   31 1   
    21   10   11 1   
    22   11   12 1   
    23   11   32 1   
    24   12   13 1   
    25   13   14 1   
    26   13   19 1   
    27   13   33 1   
    28   14   15 1   
    29   14   16 1   
    30   14   34 1   
    31   15   35 1   
    32   16   17 1   
    33   16   36 1   
    34   16   37 1   
    35   17   18 1   
    36   17   38 1   
    37   18   19 1   
    38   18   39 1   
    39   18   40 1   
    40   19   20 1   
    41   19   41 1   
    42   20   21 1   
    43   20   42 1   
    44   20   43 1   
    45   21   44 1   
@<TRIPOS>SUBSTRUCTURE
     1 9MR         1 TEMP              0 ****  ****    0 ROOT
