@<TRIPOS>MOLECULE
9MR
   44    45     1     0     0
SMALL
bcc


@<TRIPOS>ATOM
      1 O2B         0.0520    0.3190    0.1850 oh        1 9MR     -0.603800
      2 C2B         1.4590    0.1800    0.1040 c3        1 9MR      0.088100
      3 C3B         1.9920    0.1820    1.5440 c3        1 9MR      0.108100
      4 O3B         1.6170   -1.0020    2.2240 oh        1 9MR     -0.603800
      5 C4B         3.5320    0.2060    1.5310 c3        1 9MR      0.122100
      6 O4B         4.0290    0.3860    2.8450 oh        1 9MR     -0.592800
      7 C5B         4.0340    1.3930    0.6960 c3        1 9MR      0.110100
      8 C6B         5.5540    1.3390    0.5030 c3        1 9MR      0.143400
      9 O6B         6.0050    2.4230   -0.2760 oh        1 9MR     -0.596800
     10 O5B         3.4880    1.3390   -0.6230 os        1 9MR     -0.460600
     11 C1B         2.0680    1.3750   -0.6540 c3        1 9MR      0.307900
     12 O3A         1.7970    1.1860   -2.0240 os        1 9MR     -0.424600
     13 C3A         2.0690    2.3300   -2.8540 c3        1 9MR      0.110100
     14 C4A         3.1220    1.8940   -3.8900 c3        1 9MR      0.141100
     15 O4A         4.3860    1.7190   -3.2710 oh        1 9MR     -0.608800
     16 C5M         3.3180    2.9940   -4.9490 c3        1 9MR      0.160800
     17 N5A         2.0660    3.3860   -5.5620 n3        1 9MR     -0.822200
     18 C1A         1.0550    3.8010   -4.6120 c3        1 9MR      0.167800
     19 C2A         0.7680    2.7330   -3.5480 c3        1 9MR     -0.079700
     20 C6A        -0.2320    3.2670   -2.5280 c3        1 9MR      0.132400
     21 O6A        -1.4840    3.3850   -3.1830 oh        1 9MR     -0.596800
     22 HO2B       -0.2800    0.2750   -0.7220 ho        1 9MR      0.425000
     23 H2B         1.7290   -0.7810   -0.4140 h1        1 9MR      0.079700
     24 H3B         1.5930    1.0770    2.0980 h1        1 9MR      0.064700
     25 HO3B        0.6520   -1.0540    2.1770 ho        1 9MR      0.427000
     26 H4B         3.9140   -0.7630    1.1050 h1        1 9MR      0.063700
     27 HO4B        3.6490   -0.3250    3.3800 ho        1 9MR      0.426000
     28 H5B         3.7370    2.3620    1.1840 h1        1 9MR      0.069700
     29 H6B1        5.8430    0.3640    0.0280 h1        1 9MR      0.062200
     30 H6B2        6.0530    1.4500    1.5020 h1        1 9MR      0.062200
     31 HO6B        5.5860    2.3490   -1.1460 ho        1 9MR      0.420000
     32 H1B         1.6810    2.3570   -0.2650 h2        1 9MR      0.056700
     33 H3A         2.4770    3.1780   -2.2410 h1        1 9MR      0.065700
     34 H4A         2.7940    0.9310   -4.3690 h1        1 9MR      0.062700
     35 HO4A        4.2660    1.0340   -2.5990 ho        1 9MR      0.423000
     36 H5M1        3.8560    3.8560   -4.4560 h1        1 9MR      0.046700
     37 H5M2        3.9890    2.5900   -5.7580 h1        1 9MR      0.046700
     38 HN5A        2.2260    4.1130   -6.2350 hn        1 9MR      0.371800
     39 H1A1        1.3350    4.7600   -4.0820 h1        1 9MR      0.040700
     40 H1A2        0.1000    3.9900   -5.1810 h1        1 9MR      0.040700
     41 H2A         0.3220    1.8260   -4.0430 hc        1 9MR      0.093700
     42 H6A1       -0.3130    2.5450   -1.6680 h1        1 9MR      0.023700
     43 H6A2        0.0920    4.2680   -2.1350 h1        1 9MR      0.023700
     44 HO6A       -2.1110    3.7010   -2.5220 ho        1 9MR      0.403000
@<TRIPOS>BOND
     1    1    2 1   
     2    1   22 1   
     3    2    3 1   
     4    2   11 1   
     5    2   23 1   
     6    3    4 1   
     7    3    5 1   
     8    3   24 1   
     9    4   25 1   
    10    5    6 1   
    11    5    7 1   
    12    5   26 1   
    13    6   27 1   
    14    7    8 1   
    15    7   10 1   
    16    7   28 1   
    17    8    9 1   
    18    8   29 1   
    19    8   30 1   
    20    9   31 1   
    21   10   11 1   
    22   11   12 1   
    23   11   32 1   
    24   12   13 1   
    25   13   14 1   
    26   13   19 1   
    27   13   33 1   
    28   14   15 1   
    29   14   16 1   
    30   14   34 1   
    31   15   35 1   
    32   16   17 1   
    33   16   36 1   
    34   16   37 1   
    35   17   18 1   
    36   17   38 1   
    37   18   19 1   
    38   18   39 1   
    39   18   40 1   
    40   19   20 1   
    41   19   41 1   
    42   20   21 1   
    43   20   42 1   
    44   20   43 1   
    45   21   44 1   
@<TRIPOS>SUBSTRUCTURE
     1 9MR         1 TEMP              0 ****  ****    0 ROOT
