@<TRIPOS>MOLECULE
9MR
   44    45     1     0     0
SMALL
bcc


@<TRIPOS>ATOM
      1 O2B         0.0500    0.2990    0.1680 oh        1 9MR     -0.603800
      2 C2B         1.4570    0.1650    0.0900 c3        1 9MR      0.088100
      3 C3B         1.9870    0.1640    1.5310 c3        1 9MR      0.108100
      4 O3B         1.6140   -1.0240    2.2060 oh        1 9MR     -0.603800
      5 C4B         3.5270    0.1930    1.5210 c3        1 9MR      0.122100
      6 O4B         4.0210    0.3700    2.8370 oh        1 9MR     -0.592800
      7 C5B         4.0270    1.3850    0.6910 c3        1 9MR      0.110100
      8 C6B         5.5470    1.3370    0.5010 c3        1 9MR      0.143400
      9 O6B         5.9960    2.4250   -0.2730 oh        1 9MR     -0.596800
     10 O5B         3.4830    1.3340   -0.6290 os        1 9MR     -0.460600
     11 C1B         2.0630    1.3650   -0.6630 c3        1 9MR      0.307900
     12 O3A         1.7960    1.1790   -2.0340 os        1 9MR     -0.424600
     13 C3A         2.0660    2.3270   -2.8590 c3        1 9MR      0.110100
     14 C4A         3.1220    1.8990   -3.8940 c3        1 9MR      0.141100
     15 O4A         4.3860    1.7260   -3.2730 oh        1 9MR     -0.608800
     16 C5M         3.3160    3.0030   -4.9500 c3        1 9MR      0.160800
     17 N5A         2.0640    3.3930   -5.5640 n3        1 9MR     -0.822200
     18 C1A         1.0500    3.8010   -4.6140 c3        1 9MR      0.167800
     19 C2A         0.7650    2.7280   -3.5550 c3        1 9MR     -0.079700
     20 C6A        -0.2390    3.2550   -2.5350 c3        1 9MR      0.132400
     21 O6A        -1.4900    3.3700   -3.1920 oh        1 9MR     -0.596800
     22 HO2B       -0.2810    0.2570   -0.7400 ho        1 9MR      0.425000
     23 H2B         1.7320   -0.7930   -0.4310 h1        1 9MR      0.079700
     24 H3B         1.5840    1.0560    2.0870 h1        1 9MR      0.064700
     25 HO3B        0.6500   -1.0790    2.1570 ho        1 9MR      0.427000
     26 H4B         3.9140   -0.7740    1.0930 h1        1 9MR      0.063700
     27 HO4B        3.6420   -0.3440    3.3680 ho        1 9MR      0.426000
     28 H5B         3.7260    2.3510    1.1820 h1        1 9MR      0.069700
     29 H6B1        5.8410    0.3650    0.0230 h1        1 9MR      0.062200
     30 H6B2        6.0440    1.4460    1.5020 h1        1 9MR      0.062200
     31 HO6B        5.5800    2.3520   -1.1440 ho        1 9MR      0.420000
     32 H1B         1.6730    2.3440   -0.2710 h2        1 9MR      0.056700
     33 H3A         2.4700    3.1750   -2.2420 h1        1 9MR      0.065700
     34 H4A         2.7990    0.9360   -4.3780 h1        1 9MR      0.062700
     35 HO4A        4.2670    1.0380   -2.6040 ho        1 9MR      0.423000
     36 H5M1        3.8500    3.8650   -4.4520 h1        1 9MR      0.046700
     37 H5M2        3.9900    2.6040   -5.7580 h1        1 9MR      0.046700
     38 HN5A        2.2230    4.1230   -6.2340 hn        1 9MR      0.371800
     39 H1A1        0.0960    3.9880   -5.1840 h1        1 9MR      0.040700
     40 H1A2        1.3260    4.7580   -4.0800 h1        1 9MR      0.040700
     41 H2A         0.3230    1.8210   -4.0530 hc        1 9MR      0.093700
     42 H6A1       -0.3190    2.5300   -1.6770 h1        1 9MR      0.023700
     43 H6A2        0.0800    4.2560   -2.1370 h1        1 9MR      0.023700
     44 HO6A       -2.1190    3.6830   -2.5310 ho        1 9MR      0.403000
@<TRIPOS>BOND
     1    1    2 1   
     2    1   22 1   
     3    2    3 1   
     4    2   11 1   
     5    2   23 1   
     6    3    4 1   
     7    3    5 1   
     8    3   24 1   
     9    4   25 1   
    10    5    6 1   
    11    5    7 1   
    12    5   26 1   
    13    6   27 1   
    14    7    8 1   
    15    7   10 1   
    16    7   28 1   
    17    8    9 1   
    18    8   29 1   
    19    8   30 1   
    20    9   31 1   
    21   10   11 1   
    22   11   12 1   
    23   11   32 1   
    24   12   13 1   
    25   13   14 1   
    26   13   19 1   
    27   13   33 1   
    28   14   15 1   
    29   14   16 1   
    30   14   34 1   
    31   15   35 1   
    32   16   17 1   
    33   16   36 1   
    34   16   37 1   
    35   17   18 1   
    36   17   38 1   
    37   18   19 1   
    38   18   39 1   
    39   18   40 1   
    40   19   20 1   
    41   19   41 1   
    42   20   21 1   
    43   20   42 1   
    44   20   43 1   
    45   21   44 1   
@<TRIPOS>SUBSTRUCTURE
     1 9MR         1 TEMP              0 ****  ****    0 ROOT
