@<TRIPOS>MOLECULE
9MR
   44    45     1     0     0
SMALL
bcc


@<TRIPOS>ATOM
      1 O2B        -3.4960   -1.0080    1.0180 oh        1 9MR     -0.593800
      2 C2B        -1.9650   -0.9730    1.0020 c3        1 9MR      0.089100
      3 C3B        -1.5080   -0.9470    2.3380 c3        1 9MR      0.066100
      4 O3B         0.0030   -1.1620    2.3410 oh        1 9MR     -0.596800
      5 C4B        -1.8030    0.3200    3.0380 c3        1 9MR      0.087100
      6 O4B        -3.2040    0.4340    3.1890 oh        1 9MR     -0.600800
      7 C5B        -1.2640    1.6310    2.2820 c3        1 9MR      0.114100
      8 C6B         0.0550    1.6620    2.2720 c3        1 9MR      0.103400
      9 O6B         0.5240    2.1640    3.5100 oh        1 9MR     -0.599800
     10 O5B        -1.8380    1.4470    0.8190 os        1 9MR     -0.418600
     11 C1B        -1.5470    0.1570    0.2060 c3        1 9MR      0.330900
     12 O3A        -0.1060    0.0610   -0.0230 os        1 9MR     -0.447600
     13 C3A         0.1480   -0.3900   -1.4270 c3        1 9MR      0.123100
     14 C4A         0.2160    0.7930   -2.3060 c3        1 9MR      0.118100
     15 O4A         0.2270    0.3550   -3.6770 oh        1 9MR     -0.596800
     16 C5M         1.4670    1.6410   -2.0460 c3        1 9MR      0.126800
     17 N5A         2.7040    0.8430   -2.0760 n3        1 9MR     -0.830200
     18 C1A         2.6430   -0.3350   -1.2040 c3        1 9MR      0.159800
     19 C2A         1.4010   -1.1890   -1.4600 c3        1 9MR     -0.066700
     20 C6A         1.5330   -1.8600   -2.8540 c3        1 9MR      0.134400
     21 O6A         2.2390   -3.0990   -2.7200 oh        1 9MR     -0.603800
     22 HO2B       -3.7750   -1.7880    0.7180 ho        1 9MR      0.422000
     23 H2B        -1.6400   -1.7880    0.5800 h1        1 9MR      0.065700
     24 H3B        -1.9290   -1.6780    2.8260 h1        1 9MR      0.114700
     25 HO3B        0.2080   -1.7980    2.9130 ho        1 9MR      0.405000
     26 H4B        -1.4020    0.2860    3.9160 h1        1 9MR      0.064700
     27 HO4B       -3.4110    0.4460    4.0660 ho        1 9MR      0.420000
     28 H5B        -1.6270    2.4400    2.6960 h1        1 9MR      0.093700
     29 H6B1        0.4040    0.7540    2.1340 h1        1 9MR      0.061700
     30 H6B2        0.3660    2.2490    1.5400 h1        1 9MR      0.061700
     31 HO6B        1.1820    2.7750    3.3600 ho        1 9MR      0.410000
     32 H1B        -2.0030    0.1140   -0.6590 h2        1 9MR      0.111700
     33 H3A        -0.5920   -0.9530   -1.7160 h1        1 9MR      0.059700
     34 H4A        -0.5710    1.3410   -2.1570 h1        1 9MR      0.092700
     35 HO4A       -0.2050    0.9510   -4.1840 ho        1 9MR      0.411000
     36 H5M1        1.3840    2.0670   -1.1570 h1        1 9MR      0.046700
     37 H5M2        1.5250    2.3430   -2.7320 h1        1 9MR      0.046700
     38 HN5A        3.4190    1.3730   -1.8280 hn        1 9MR      0.369800
     39 H1A1        3.4430   -0.8840   -1.3540 h1        1 9MR      0.046700
     40 H1A2        2.6340   -0.0360   -0.2670 h1        1 9MR      0.046700
     41 H2A         1.3490   -1.8850   -0.7780 hc        1 9MR      0.086700
     42 H6A1        2.0230   -1.2700   -3.4530 h1        1 9MR      0.030700
     43 H6A2        0.6400   -2.0310   -3.2210 h1        1 9MR      0.030700
     44 HO6A        2.1490   -3.5750   -3.4680 ho        1 9MR      0.403000
@<TRIPOS>BOND
     1    1    2 1   
     2    1   22 1   
     3    2    3 1   
     4    2   11 1   
     5    2   23 1   
     6    3    4 1   
     7    3    5 1   
     8    3   24 1   
     9    4   25 1   
    10    5    6 1   
    11    5    7 1   
    12    5   26 1   
    13    6   27 1   
    14    7    8 1   
    15    7   10 1   
    16    7   28 1   
    17    8    9 1   
    18    8   29 1   
    19    8   30 1   
    20    9   31 1   
    21   10   11 1   
    22   11   12 1   
    23   11   32 1   
    24   12   13 1   
    25   13   14 1   
    26   13   19 1   
    27   13   33 1   
    28   14   15 1   
    29   14   16 1   
    30   14   34 1   
    31   15   35 1   
    32   16   17 1   
    33   16   36 1   
    34   16   37 1   
    35   17   18 1   
    36   17   38 1   
    37   18   19 1   
    38   18   39 1   
    39   18   40 1   
    40   19   20 1   
    41   19   41 1   
    42   20   21 1   
    43   20   42 1   
    44   20   43 1   
    45   21   44 1   
@<TRIPOS>SUBSTRUCTURE
     1 9MR         1 TEMP              0 ****  ****    0 ROOT
