@<TRIPOS>MOLECULE
9MT
   44    45     1     0     0
SMALL
bcc


@<TRIPOS>ATOM
      1 N1          1.3550   -5.0830   -1.7210 n1        1 9MT     -0.372800
      2 C17         1.2210   -4.1570   -1.0310 c1        1 9MT      0.208700
      3 C16         1.0650   -3.0040   -0.1710 c3        1 9MT     -0.025300
      4 C15        -0.3930   -2.6670    0.0450 c3        1 9MT     -0.027300
      5 S          -0.6210   -1.2900    1.1290 ss        1 9MT     -0.228000
      6 C14        -0.4270    0.0880    0.1170 ca        1 9MT     -0.003100
      7 C13         0.8580    0.7120    0.0250 ca        1 9MT     -0.082300
      8 C12         1.9950    0.2030    0.6900 ca        1 9MT     -0.169000
      9 C10         3.2170    0.8460    0.5640 ca        1 9MT      0.132100
     10 O           4.2650    0.2590    1.2470 os        1 9MT     -0.324900
     11 C11         5.5200    0.9270    1.1780 c3        1 9MT      0.112700
     12 C9          3.3480    2.0180   -0.2250 ca        1 9MT     -0.185000
     13 C8          2.2530    2.5290   -0.8740 ca        1 9MT     -0.126300
     14 C7          0.9740    1.8930   -0.7700 ca        1 9MT      0.357600
     15 N          -0.1020    2.4370   -1.4370 nb        1 9MT     -0.636000
     16 C5         -1.2850    1.8470   -1.3310 ca        1 9MT      0.410600
     17 C6         -2.4480    2.4370   -2.0700 c3        1 9MT     -0.152400
     18 C4         -1.5020    0.6480   -0.5450 ca        1 9MT     -0.111600
     19 C3         -2.8640    0.0500   -0.4740 c3        1 9MT     -0.048100
     20 C2         -3.6770    0.6320    0.6690 c3        1 9MT     -0.073400
     21 C1         -5.0800    0.0630    0.6780 c3        1 9MT     -0.079400
     22 C          -5.8910    0.6220    1.8180 c3        1 9MT     -0.093100
     23 H161        1.5620   -3.2130    0.8180 hc        1 9MT      0.087700
     24 H162        1.5990   -2.1250   -0.6350 hc        1 9MT      0.087700
     25 H151       -0.9000   -2.4940   -0.9350 h1        1 9MT      0.084700
     26 H152       -0.9140   -3.5140    0.5600 h1        1 9MT      0.084700
     27 H12         1.9010   -0.6970    1.3190 ha        1 9MT      0.167000
     28 H9          4.3230    2.5180   -0.3150 ha        1 9MT      0.143000
     29 H111        5.4430    1.9600    1.5950 h1        1 9MT      0.046367
     30 H112        6.1860    0.2920    1.8160 h1        1 9MT      0.046367
     31 H113        5.8940    0.9540    0.1260 h1        1 9MT      0.046367
     32 H8          2.3450    3.4410   -1.4860 ha        1 9MT      0.153000
     33 H61C       -2.7500    1.7460   -2.8960 hc        1 9MT      0.057033
     34 H62C       -3.3100    2.5690   -1.3720 hc        1 9MT      0.057033
     35 H63C       -2.2000    3.4320   -2.5180 hc        1 9MT      0.057033
     36 H31C       -3.4070    0.2080   -1.4440 hc        1 9MT      0.057700
     37 H32C       -2.7750   -1.0620   -0.3240 hc        1 9MT      0.057700
     38 H21C       -3.1670    0.3990    1.6410 hc        1 9MT      0.050200
     39 H22C       -3.7240    1.7490    0.5770 hc        1 9MT      0.050200
     40 H11C       -5.5860    0.2970   -0.2960 hc        1 9MT      0.039200
     41 H12C       -5.0290   -1.0550    0.7640 hc        1 9MT      0.039200
     42 HC1        -5.4150    0.3770    2.7980 hc        1 9MT      0.035033
     43 HC2        -5.9730    1.7330    1.7370 hc        1 9MT      0.035033
     44 HC3        -6.9210    0.1910    1.8080 hc        1 9MT      0.035033
@<TRIPOS>BOND
     1    1    2 3   
     2    2    3 1   
     3    3    4 1   
     4    3   23 1   
     5    3   24 1   
     6    4    5 1   
     7    4   25 1   
     8    4   26 1   
     9    5    6 1   
    10    6    7 ar  
    11    6   18 ar  
    12    7    8 ar  
    13    7   14 ar  
    14    8    9 ar  
    15    8   27 1   
    16    9   10 1   
    17    9   12 ar  
    18   10   11 1   
    19   11   29 1   
    20   11   30 1   
    21   11   31 1   
    22   12   13 ar  
    23   12   28 1   
    24   13   14 ar  
    25   13   32 1   
    26   14   15 ar  
    27   15   16 ar  
    28   16   17 1   
    29   16   18 ar  
    30   17   33 1   
    31   17   34 1   
    32   17   35 1   
    33   18   19 1   
    34   19   20 1   
    35   19   36 1   
    36   19   37 1   
    37   20   21 1   
    38   20   38 1   
    39   20   39 1   
    40   21   22 1   
    41   21   40 1   
    42   21   41 1   
    43   22   42 1   
    44   22   43 1   
    45   22   44 1   
@<TRIPOS>SUBSTRUCTURE
     1 9MT         1 TEMP              0 ****  ****    0 ROOT
