@<TRIPOS>MOLECULE
9MT
   44    45     1     0     0
SMALL
bcc


@<TRIPOS>ATOM
      1 N1         -1.0020    0.3690   -2.5060 n1        1 9MT     -0.372800
      2 C17        -0.6020    0.2740   -1.4180 c1        1 9MT      0.208700
      3 C16        -0.1130    0.1560   -0.0620 c3        1 9MT     -0.025300
      4 C15         1.3880   -0.0280   -0.0270 c3        1 9MT     -0.027300
      5 S           2.0250   -0.1280    1.6180 ss        1 9MT     -0.228000
      6 C14         1.7880   -1.7720    2.0680 ca        1 9MT     -0.003100
      7 C13         0.6050   -2.1360    2.7870 ca        1 9MT     -0.082300
      8 C12        -0.4120   -1.2040    3.0930 ca        1 9MT     -0.169000
      9 C10        -1.5390   -1.6110    3.7900 ca        1 9MT      0.132100
     10 O          -2.4750   -0.6230    4.0270 os        1 9MT     -0.324900
     11 C11        -3.6180   -1.0010    4.7850 c3        1 9MT      0.112700
     12 C9         -1.6910   -2.9580    4.2090 ca        1 9MT     -0.185000
     13 C8         -0.7110   -3.8760    3.9260 ca        1 9MT     -0.126300
     14 C7          0.4660   -3.4940    3.2070 ca        1 9MT      0.357600
     15 N           1.4280   -4.4450    2.9410 nb        1 9MT     -0.636000
     16 C5          2.5200   -4.0850    2.2800 ca        1 9MT      0.410600
     17 C6          3.5540   -5.1280    1.9840 c3        1 9MT     -0.152400
     18 C4          2.7520   -2.7300    1.8190 ca        1 9MT     -0.111600
     19 C3          4.0070   -2.4050    1.0870 c3        1 9MT     -0.048100
     20 C2          5.1210   -1.9950    2.0340 c3        1 9MT     -0.073400
     21 C1          6.4070   -1.7390    1.2760 c3        1 9MT     -0.079400
     22 C           7.5160   -1.3160    2.2040 c3        1 9MT     -0.093100
     23 H161       -0.4000    1.0810    0.5130 hc        1 9MT      0.087700
     24 H162       -0.6190   -0.7190    0.4370 hc        1 9MT      0.087700
     25 H151        1.6820   -0.9230   -0.6270 h1        1 9MT      0.084700
     26 H152        1.8980    0.8670   -0.4670 h1        1 9MT      0.084700
     27 H12        -0.2950   -0.1510    2.7870 ha        1 9MT      0.167000
     28 H9         -2.5900   -3.2670    4.7620 ha        1 9MT      0.143000
     29 H111       -3.3190   -1.3660    5.7970 h1        1 9MT      0.046367
     30 H112       -4.2000   -0.0480    4.8660 h1        1 9MT      0.046367
     31 H113       -4.2100   -1.7790    4.2450 h1        1 9MT      0.046367
     32 H8         -0.8210   -4.9230    4.2510 ha        1 9MT      0.153000
     33 H61C        3.5740   -5.3260    0.8830 hc        1 9MT      0.057033
     34 H62C        4.5600   -4.7630    2.3070 hc        1 9MT      0.057033
     35 H63C        3.3420   -6.0910    2.5100 hc        1 9MT      0.057033
     36 H31C        4.3370   -3.2860    0.4740 hc        1 9MT      0.057700
     37 H32C        3.8130   -1.5590    0.3700 hc        1 9MT      0.057700
     38 H21C        4.8150   -1.0650    2.5840 hc        1 9MT      0.050200
     39 H22C        5.2880   -2.7960    2.8010 hc        1 9MT      0.050200
     40 H11C        6.7100   -2.6690    0.7260 hc        1 9MT      0.039200
     41 H12C        6.2340   -0.9410    0.5060 hc        1 9MT      0.039200
     42 HC1         7.2430   -0.3760    2.7430 hc        1 9MT      0.035033
     43 HC2         7.7190   -2.1080    2.9650 hc        1 9MT      0.035033
     44 HC3         8.4540   -1.1320    1.6270 hc        1 9MT      0.035033
@<TRIPOS>BOND
     1    1    2 3   
     2    2    3 1   
     3    3    4 1   
     4    3   23 1   
     5    3   24 1   
     6    4    5 1   
     7    4   25 1   
     8    4   26 1   
     9    5    6 1   
    10    6    7 ar  
    11    6   18 ar  
    12    7    8 ar  
    13    7   14 ar  
    14    8    9 ar  
    15    8   27 1   
    16    9   10 1   
    17    9   12 ar  
    18   10   11 1   
    19   11   29 1   
    20   11   30 1   
    21   11   31 1   
    22   12   13 ar  
    23   12   28 1   
    24   13   14 ar  
    25   13   32 1   
    26   14   15 ar  
    27   15   16 ar  
    28   16   17 1   
    29   16   18 ar  
    30   17   33 1   
    31   17   34 1   
    32   17   35 1   
    33   18   19 1   
    34   19   20 1   
    35   19   36 1   
    36   19   37 1   
    37   20   21 1   
    38   20   38 1   
    39   20   39 1   
    40   21   22 1   
    41   21   40 1   
    42   21   41 1   
    43   22   42 1   
    44   22   43 1   
    45   22   44 1   
@<TRIPOS>SUBSTRUCTURE
     1 9MT         1 TEMP              0 ****  ****    0 ROOT
