@<TRIPOS>MOLECULE
9MT
   44    40     1     0     0
SMALL
bcc


@<TRIPOS>ATOM
      1 N1         -0.8980    3.3720   -5.2480 n1        1 9MT     -0.042000
      2 C17        -1.0970    3.2280   -4.1350 c1        1 9MT     -0.144000
      3 C16        -1.3610    3.0380   -2.6570 c2        1 9MT     -0.065000
      4 C15        -0.9970    1.6250   -2.2580 c3        1 9MT     -0.297000
      5 S          -0.6710    1.5690   -0.5160 ss        1 9MT      0.195000
      6 C14        -0.2500   -0.0890   -0.0460 c2        1 9MT     -0.219000
      7 C13        -1.2480   -0.6880    0.7080 c2        1 9MT     -0.026000
      8 C12        -2.4060    0.0370    1.0510 c1        1 9MT     -0.173000
      9 C10        -3.4040   -0.5650    1.8060 c1        1 9MT      0.088000
     10 O          -4.5720    0.2160    1.8340 os        1 9MT     -0.210000
     11 C11        -5.3280    0.0700    3.0160 c3        1 9MT     -0.077000
     12 C9         -3.2610   -1.8860    2.2230 c1        1 9MT     -0.185000
     13 C8         -2.1200   -2.6020    1.8850 c1        1 9MT     -0.061000
     14 C7         -1.1070   -1.9920    1.1190 c1        1 9MT     -0.029000
     15 N           0.0310   -2.7060    0.7820 n1        1 9MT     -0.119000
     16 C5          1.0130   -2.1150    0.0400 c1        1 9MT     -0.003000
     17 C6          1.7780   -3.4190   -0.0280 c2        1 9MT     -0.176000
     18 C4          0.8730   -0.7950   -0.3780 c2        1 9MT     -0.055000
     19 C3          2.1310   -0.2970   -1.0560 c3        1 9MT     -0.137000
     20 C2          3.0170    0.3850   -0.0370 c3        1 9MT     -0.152000
     21 C1          4.2320    0.9610   -0.7300 c3        1 9MT     -0.158000
     22 C           5.0760    1.7140    0.2750 c3        1 9MT     -0.211000
     23 H161       -0.8190    3.6710   -2.1450 ha        1 9MT      0.125500
     24 H162       -2.3090    3.1960   -2.4730 ha        1 9MT      0.125500
     25 H151       -0.2000    1.3420   -2.7480 h1        1 9MT      0.124500
     26 H152       -1.7400    1.0250   -2.4700 h1        1 9MT      0.124500
     27 H12        -2.4990    0.9670    0.7710 ha        1 9MT      0.155000
     28 H9         -3.9640   -2.3080    2.7530 ha        1 9MT      0.143000
     29 H111       -4.7300    0.1090    3.7940 h1        1 9MT      0.086000
     30 H112       -5.9880    0.7950    3.0740 h1        1 9MT      0.086000
     31 H113       -5.7920   -0.7940    3.0030 h1        1 9MT      0.086000
     32 H8         -2.0210   -3.5280    2.1770 ha        1 9MT      0.154000
     33 H61C        1.1580   -4.1510   -0.2320 ha        1 9MT      0.096000
     34 H62C        2.2120   -3.5890    0.8340 ha        1 9MT      0.096000
     35 H63C        2.4580   -3.3630   -0.7310 ha        1 9MT      0.096000
     36 H31C        1.8910    0.3410   -1.7590 hc        1 9MT      0.102000
     37 H32C        2.6100   -1.0520   -1.4510 hc        1 9MT      0.102000
     38 H21C        2.5180    1.1050    0.3990 hc        1 9MT      0.086500
     39 H22C        3.3030   -0.2660    0.6340 hc        1 9MT      0.086500
     40 H11C        4.7590    0.2360   -1.1200 hc        1 9MT      0.078500
     41 H12C        3.9450    1.5730   -1.4370 hc        1 9MT      0.078500
     42 HC1         5.9280    1.9680   -0.1390 hc        1 9MT      0.074000
     43 HC2         5.2480    1.1410    1.0520 hc        1 9MT      0.074000
     44 HC3         4.6000    2.5210    0.5630 hc        1 9MT      0.074000
@<TRIPOS>BOND
     1    1    2 1   
     2    3    4 1   
     3    3   23 1   
     4    3   24 1   
     5    4    5 1   
     6    4   25 1   
     7    4   26 1   
     8    5    6 1   
     9    6    7 1   
    10    6   18 1   
    11    7    8 1   
    12    7   14 1   
    13    8   27 1   
    14    9   10 1   
    15    9   12 1   
    16   10   11 1   
    17   11   29 1   
    18   11   30 1   
    19   11   31 1   
    20   12   28 1   
    21   13   14 1   
    22   13   32 1   
    23   15   16 1   
    24   16   18 1   
    25   17   33 1   
    26   17   34 1   
    27   17   35 1   
    28   18   19 1   
    29   19   20 1   
    30   19   36 1   
    31   19   37 1   
    32   20   21 1   
    33   20   38 1   
    34   20   39 1   
    35   21   22 1   
    36   21   40 1   
    37   21   41 1   
    38   22   42 1   
    39   22   43 1   
    40   22   44 1   
@<TRIPOS>SUBSTRUCTURE
     1 9MT         1 TEMP              0 ****  ****    0 ROOT
