@<TRIPOS>MOLECULE
9MT
   44    45     1     0     0
SMALL
bcc


@<TRIPOS>ATOM
      1 N1         -0.9660    0.4310   -2.4140 n1        1 9MT     -0.372800
      2 C17        -0.5730    0.3300   -1.3240 c1        1 9MT      0.208700
      3 C16        -0.0940    0.2050    0.0350 c3        1 9MT     -0.025300
      4 C15         1.4080    0.0410    0.0810 c3        1 9MT     -0.027300
      5 S           2.0330   -0.0680    1.7300 ss        1 9MT     -0.228000
      6 C14         1.8130   -1.7190    2.1620 ca        1 9MT     -0.003100
      7 C13         0.6280   -2.1050    2.8670 ca        1 9MT     -0.082300
      8 C12        -0.4030   -1.1890    3.1730 ca        1 9MT     -0.169000
      9 C10        -1.5300   -1.6170    3.8560 ca        1 9MT      0.132100
     10 O          -2.4810   -0.6430    4.0950 os        1 9MT     -0.324900
     11 C11        -3.6260   -1.0430    4.8380 c3        1 9MT      0.112700
     12 C9         -1.6690   -2.9700    4.2610 ca        1 9MT     -0.185000
     13 C8         -0.6760   -3.8720    3.9770 ca        1 9MT     -0.126300
     14 C7          0.5030   -3.4690    3.2720 ca        1 9MT      0.357600
     15 N           1.4780   -4.4050    3.0050 nb        1 9MT     -0.636000
     16 C5          2.5710   -4.0250    2.3570 ca        1 9MT      0.410600
     17 C6          3.6210   -5.0520    2.0600 c3        1 9MT     -0.152400
     18 C4          2.7900   -2.6630    1.9110 ca        1 9MT     -0.111600
     19 C3          4.0480   -2.3150    1.1940 c3        1 9MT     -0.048100
     20 C2          5.1490   -1.9010    2.1550 c3        1 9MT     -0.073400
     21 C1          6.4370   -1.6210    1.4100 c3        1 9MT     -0.079400
     22 C           7.5340   -1.1950    2.3520 c3        1 9MT     -0.093100
     23 H161       -0.5940   -0.6820    0.5210 hc        1 9MT      0.087700
     24 H162       -0.3990    1.1210    0.6170 hc        1 9MT      0.087700
     25 H151        1.7190   -0.8440   -0.5250 h1        1 9MT      0.084700
     26 H152        1.9100    0.9470   -0.3450 h1        1 9MT      0.084700
     27 H12        -0.2970   -0.1320    2.8780 ha        1 9MT      0.167000
     28 H9         -2.5690   -3.2950    4.8030 ha        1 9MT      0.143000
     29 H111       -4.2030   -1.8220    4.2850 h1        1 9MT      0.046367
     30 H112       -3.3320   -1.4150    5.8500 h1        1 9MT      0.046367
     31 H113       -4.2210   -0.0980    4.9230 h1        1 9MT      0.046367
     32 H8         -0.7750   -4.9240    4.2910 ha        1 9MT      0.153000
     33 H61C        3.4170   -6.0230    2.5740 hc        1 9MT      0.057033
     34 H62C        3.6530   -5.2390    0.9570 hc        1 9MT      0.057033
     35 H63C        4.6200   -4.6780    2.3950 hc        1 9MT      0.057033
     36 H31C        3.8490   -1.4640    0.4840 hc        1 9MT      0.057700
     37 H32C        4.3930   -3.1860    0.5750 hc        1 9MT      0.057700
     38 H21C        4.8270   -0.9810    2.7120 hc        1 9MT      0.050200
     39 H22C        5.3200   -2.7080    2.9140 hc        1 9MT      0.050200
     40 H11C        6.2610   -0.8170    0.6480 hc        1 9MT      0.039200
     41 H12C        6.7560   -2.5420    0.8530 hc        1 9MT      0.039200
     42 HC1         7.7400   -1.9930    3.1050 hc        1 9MT      0.035033
     43 HC2         7.2440   -0.2650    2.8980 hc        1 9MT      0.035033
     44 HC3         8.4750   -0.9930    1.7850 hc        1 9MT      0.035033
@<TRIPOS>BOND
     1    1    2 3   
     2    2    3 1   
     3    3    4 1   
     4    3   23 1   
     5    3   24 1   
     6    4    5 1   
     7    4   25 1   
     8    4   26 1   
     9    5    6 1   
    10    6    7 ar  
    11    6   18 ar  
    12    7    8 ar  
    13    7   14 ar  
    14    8    9 ar  
    15    8   27 1   
    16    9   10 1   
    17    9   12 ar  
    18   10   11 1   
    19   11   29 1   
    20   11   30 1   
    21   11   31 1   
    22   12   13 ar  
    23   12   28 1   
    24   13   14 ar  
    25   13   32 1   
    26   14   15 ar  
    27   15   16 ar  
    28   16   17 1   
    29   16   18 ar  
    30   17   33 1   
    31   17   34 1   
    32   17   35 1   
    33   18   19 1   
    34   19   20 1   
    35   19   36 1   
    36   19   37 1   
    37   20   21 1   
    38   20   38 1   
    39   20   39 1   
    40   21   22 1   
    41   21   40 1   
    42   21   41 1   
    43   22   42 1   
    44   22   43 1   
    45   22   44 1   
@<TRIPOS>SUBSTRUCTURE
     1 9MT         1 TEMP              0 ****  ****    0 ROOT
