@<TRIPOS>MOLECULE
9MU
   69    71     1     0     0
SMALL
bcc


@<TRIPOS>ATOM
      1 N12         0.9520    1.0010   -0.9280 n3        1 9MU     -0.976800
      2 C15         2.2890    0.5050   -0.6110 c3        1 9MU      0.109500
      3 C17         2.7660    1.0200    0.7510 c         1 9MU      0.526100
      4 O20         2.0990    1.5010    1.6500 o         1 9MU     -0.382100
      5 C16         2.4280   -1.0350   -0.6000 c3        1 9MU     -0.048100
      6 C18         1.9380   -1.6270   -1.8710 ca        1 9MU     -0.162300
      7 C21         2.7490   -1.6190   -3.0120 ca        1 9MU     -0.123500
      8 C22         0.6840   -2.2500   -1.9170 ca        1 9MU     -0.123500
      9 C24         2.3130   -2.2330   -4.1850 ca        1 9MU     -0.111500
     10 C25         0.2510   -2.8630   -3.0920 ca        1 9MU     -0.111500
     11 C27         1.0650   -2.8570   -4.2260 ca        1 9MU     -0.085000
     12 S11         0.9180    3.3130   -2.2500 s4        1 9MU      1.689300
     13 O14         0.4710    3.8040   -1.0640 o         1 9MU     -0.452900
     14 O13         2.2440    3.0340   -2.3990 o         1 9MU     -0.452900
     15 C3         -1.4030    3.5800   -3.3540 ca        1 9MU      0.132000
     16 C7         -0.0380    3.1960   -3.4210 ca        1 9MU     -0.677500
     17 C9          0.4360    2.7270   -4.7060 ca        1 9MU     -0.055000
     18 C5         -0.3740    2.6720   -5.7960 ca        1 9MU     -0.097000
     19 C6         -2.5970    3.0470   -6.8400 ca        1 9MU     -0.156000
     20 C10        -3.9140    3.4580   -6.7230 ca        1 9MU      0.009000
     21 C8         -4.4240    3.9080   -5.4800 ca        1 9MU     -0.119000
     22 C4         -3.6160    3.9460   -4.3700 ca        1 9MU     -0.058000
     23 C1         -2.2490    3.5330   -4.4580 ca        1 9MU     -0.107000
     24 C2         -1.7440    3.0770   -5.7210 ca        1 9MU      0.080000
     25 N19         4.2590    0.9090    1.0300 n4        1 9MU     -0.679800
     26 C23         4.5260   -0.0330    2.1620 c3        1 9MU      0.100800
     27 C26         5.9670   -0.0270    2.6910 c3        1 9MU     -0.117700
     28 C28         6.1650    1.1340    3.6880 c3        1 9MU      0.191800
     29 C29         6.1990   -1.3820    3.3600 c3        1 9MU     -0.085400
     30 N30         7.3270    1.0400    4.5520 nh        1 9MU     -0.745600
     31 C31         7.4910   -1.4130    4.1460 c3        1 9MU     -0.113400
     32 C32         7.5240   -0.2670    5.1530 c3        1 9MU      0.162800
     33 C33         8.4220    1.9030    4.2870 c2        1 9MU      0.701100
     34 N34         9.8050    1.2600    4.1640 n4        1 9MU     -0.838600
     35 N35         8.4600    3.1880    4.2240 n2        1 9MU     -0.727100
     36 H12         0.4700    0.2960   -1.4700 hn        1 9MU      0.412300
     37 H15         2.9710    0.9290   -1.4160 h1        1 9MU      0.127700
     38 H161        1.8540   -1.4600    0.2680 hc        1 9MU      0.064200
     39 H162        3.5100   -1.2980   -0.4640 hc        1 9MU      0.064200
     40 H21         3.7430   -1.1480   -2.9820 ha        1 9MU      0.131000
     41 H22         0.0490   -2.2890   -1.0180 ha        1 9MU      0.131000
     42 H24         2.9620   -2.2400   -5.0760 ha        1 9MU      0.164500
     43 H25        -0.7290   -3.3690   -3.1180 ha        1 9MU      0.164500
     44 H27         0.7280   -3.3590   -5.1490 ha        1 9MU      0.170000
     45 H9          1.4960    2.4250   -4.7840 ha        1 9MU      0.162000
     46 H5          0.0140    2.3200   -6.7700 ha        1 9MU      0.183000
     47 H6         -2.2060    2.7000   -7.8120 ha        1 9MU      0.178000
     48 H10        -4.5830    3.4400   -7.6030 ha        1 9MU      0.185000
     49 H8         -5.4790    4.2300   -5.4180 ha        1 9MU      0.186000
     50 H4         -4.0060    4.2990   -3.4000 ha        1 9MU      0.166000
     51 H19         4.7480    0.5880    0.1870 hn        1 9MU      0.461800
     52 H231        4.2690   -1.0700    1.7900 hx        1 9MU      0.125700
     53 H232        3.8110    0.2310    2.9990 hx        1 9MU      0.125700
     54 H26         6.6970    0.0820    1.8430 hc        1 9MU      0.068700
     55 H281        5.2800    1.1570    4.3940 h1        1 9MU      0.075200
     56 H282        6.1850    2.1040    3.1180 h1        1 9MU      0.075200
     57 H291        5.3440   -1.6070    4.0530 hc        1 9MU      0.081700
     58 H292        6.2220   -2.1860    2.5770 hc        1 9MU      0.081700
     59 H311        7.5600   -2.3850    4.7080 hc        1 9MU      0.078200
     60 H312        8.3700   -1.3690    3.4520 hc        1 9MU      0.078200
     61 H321        8.4670   -0.2980    5.7630 h1        1 9MU      0.095200
     62 H322        6.6680   -0.3990    5.8860 h1        1 9MU      0.095200
     63 H341        9.7490    0.3740    3.6550 hn        1 9MU      0.478800
     64 H342       10.1730    1.0900    5.1090 hn        1 9MU      0.478800
     65 H35         7.6300    3.7200    4.3820 hn        1 9MU      0.488400
     66 H122        0.4170    1.1830   -0.0930 hn        1 9MU      0.412300
     67 H192        4.6140    1.8420    1.2770 hn        1 9MU      0.461800
     68 H343       10.4510    1.8990    3.6750 hn        1 9MU      0.478800
     69 H3         -1.8050    3.9430   -2.3860 ha        1 9MU      0.170000
@<TRIPOS>BOND
     1    1    2 1   
     2    1   36 1   
     3    1   66 1   
     4    2    3 1   
     5    2    5 1   
     6    2   37 1   
     7    3    4 2   
     8    3   25 1   
     9    5    6 1   
    10    5   38 1   
    11    5   39 1   
    12    6    7 ar  
    13    6    8 ar  
    14    7    9 ar  
    15    7   40 1   
    16    8   10 ar  
    17    8   41 1   
    18    9   11 ar  
    19    9   42 1   
    20   10   11 ar  
    21   10   43 1   
    22   11   44 1   
    23   12   13 1   
    24   12   14 1   
    25   12   16 1   
    26   15   16 ar  
    27   15   23 ar  
    28   15   69 1   
    29   16   17 ar  
    30   17   18 ar  
    31   17   45 1   
    32   18   24 ar  
    33   18   46 1   
    34   19   20 ar  
    35   19   24 ar  
    36   19   47 1   
    37   20   21 ar  
    38   20   48 1   
    39   21   22 ar  
    40   21   49 1   
    41   22   23 ar  
    42   22   50 1   
    43   23   24 ar  
    44   25   26 1   
    45   25   51 1   
    46   25   67 1   
    47   26   27 1   
    48   26   52 1   
    49   26   53 1   
    50   27   28 1   
    51   27   29 1   
    52   27   54 1   
    53   28   30 1   
    54   28   55 1   
    55   28   56 1   
    56   29   31 1   
    57   29   57 1   
    58   29   58 1   
    59   30   32 1   
    60   30   33 1   
    61   31   32 1   
    62   31   59 1   
    63   31   60 1   
    64   32   61 1   
    65   32   62 1   
    66   33   34 1   
    67   33   35 2   
    68   34   63 1   
    69   34   64 1   
    70   34   68 1   
    71   35   65 1   
@<TRIPOS>SUBSTRUCTURE
     1 9MU         1 TEMP              0 ****  ****    0 ROOT
