@<TRIPOS>MOLECULE
9MU
   66    60     1     0     0
SMALL
bcc


@<TRIPOS>ATOM
      1 N12        -0.9030   -0.6660   -1.7980 n3        1 9MU     -0.890000
      2 C15         0.5340   -0.6060   -1.8000 c3        1 9MU      0.035000
      3 C17         1.0440   -0.5680   -0.3560 c2        1 9MU      0.278000
      4 O20         1.0210   -1.5400    0.3000 o         1 9MU     -0.374000
      5 C16         1.0940   -1.8320   -2.5090 c3        1 9MU     -0.128000
      6 C18         1.6630   -1.4050   -3.9260 c2        1 9MU     -0.088000
      7 C21         1.8420   -2.3760   -4.9340 c1        1 9MU     -0.129000
      8 C22         2.0810   -0.0880   -4.1390 c2        1 9MU     -0.114000
      9 C24         2.4310   -2.0280   -6.1310 c1        1 9MU     -0.123000
     10 C25         2.6690    0.2650   -5.3350 c1        1 9MU     -0.130000
     11 C27         2.8510   -0.7040   -6.3450 c1        1 9MU     -0.123000
     12 S11        -1.7280   -0.7820   -0.3500 s4        1 9MU      2.075800
     13 O14        -1.1160    0.1200    0.7030 o         1 9MU     -0.547900
     14 O13        -1.5480   -2.0760    0.2520 o         1 9MU     -0.547900
     15 C3         -4.5330   -1.1220   -0.0960 c1        1 9MU     -0.083000
     16 C7         -3.4300   -0.4250   -0.5890 c1        1 9MU     -0.835000
     17 C9         -3.6160    0.7300   -1.3390 c1        1 9MU     -0.049000
     18 C5         -4.8990    1.1870   -1.5960 c1        1 9MU     -0.083000
     19 C6         -7.3270    0.9020   -1.4360 c1        1 9MU     -0.083000
     20 C10        -8.4310    0.1580   -1.0180 c1        1 9MU     -0.123000
     21 C8         -8.2450   -1.0020   -0.2650 c1        1 9MU     -0.123000
     22 C4         -6.9470   -1.4170    0.0700 c1        1 9MU     -0.083000
     23 C1         -5.8270   -0.6580   -0.3560 c1        1 9MU     -0.031000
     24 C2         -6.0130    0.4800   -1.0950 c1        1 9MU     -0.031000
     25 N19         1.5590    0.6570    0.1880 n         1 9MU     -0.361000
     26 C23         2.4840    0.6270    1.3360 c3        1 9MU     -0.028000
     27 C26         1.8970    1.4750    2.4780 c3        1 9MU     -0.127000
     28 C28         1.9810    0.6970    3.7410 c3        1 9MU     -0.053000
     29 C29         2.6570    2.7740    2.5480 c3        1 9MU     -0.166000
     30 N30         3.3880    0.5140    4.1990 n3        1 9MU     -0.275000
     31 C31         4.0630    2.5810    3.0070 c3        1 9MU     -0.155000
     32 C32         4.1460    1.7960    4.2720 c3        1 9MU     -0.062000
     33 C33         3.7250   -0.6010    5.1110 c2        1 9MU      0.147000
     34 N34         2.7180   -1.4660    5.5530 n3        1 9MU     -0.333000
     35 N35         5.0280   -0.7820    5.5310 n1        1 9MU     -0.310000
     36 H12        -1.3590   -0.6830   -2.5820 hn        1 9MU      0.254000
     37 H15         0.8410    0.2420   -2.2920 h1        1 9MU      0.109000
     38 H161        1.8200   -2.2230   -1.9660 hc        1 9MU      0.110000
     39 H162        0.3900   -2.4870   -2.6260 hc        1 9MU      0.110000
     40 H21         1.5530   -3.2760   -4.7860 ha        1 9MU      0.128000
     41 H22         1.9520    0.6070   -3.4140 ha        1 9MU      0.158000
     42 H24         2.5620   -2.7340   -6.8620 ha        1 9MU      0.135000
     43 H25         2.9580    1.1780   -5.4810 ha        1 9MU      0.135000
     44 H27         3.2490   -0.4660   -7.1540 ha        1 9MU      0.135000
     45 H3         -4.4130   -1.9060    0.3550 ha        1 9MU      0.144500
     46 H9         -2.8470    1.2770   -1.5860 ha        1 9MU      0.151000
     47 H5         -5.0370    2.0320   -2.1440 ha        1 9MU      0.144500
     48 H6         -7.4600    1.7270   -1.9720 ha        1 9MU      0.144500
     49 H10        -9.3500    0.4550   -1.2550 ha        1 9MU      0.135000
     50 H8         -9.0070   -1.5160    0.0250 ha        1 9MU      0.135000
     51 H4         -6.8080   -2.2690    0.6230 ha        1 9MU      0.144500
     52 H19         1.4110    1.4230   -0.2380 hn        1 9MU      0.247000
     53 H231        2.5980   -0.2550    1.6290 h1        1 9MU      0.108500
     54 H232        3.3390    0.9900    1.0720 h1        1 9MU      0.108500
     55 H26         0.9800    1.6630    2.2890 hc        1 9MU      0.099000
     56 H281        1.4530    1.1800    4.4680 h1        1 9MU      0.084000
     57 H282        1.5880   -0.1670    3.5970 h1        1 9MU      0.084000
     58 H291        2.6700    3.1690    1.6830 hc        1 9MU      0.096000
     59 H292        2.1840    3.4050    3.1870 hc        1 9MU      0.096000
     60 H311        4.5500    2.1230    2.3290 hc        1 9MU      0.089000
     61 H312        4.4910    3.5030    3.1570 hc        1 9MU      0.089000
     62 H321        5.1410    1.5830    4.4640 h1        1 9MU      0.073500
     63 H322        3.7900    2.3330    5.0020 h1        1 9MU      0.073500
     64 H341        1.8780   -1.1380    5.7270 hn        1 9MU      0.187000
     65 H342        2.8880   -2.3770    5.6320 hn        1 9MU      0.187000
     66 H35         5.6820   -0.2140    5.2430 DU        1 9MU      0.160000
@<TRIPOS>BOND
     1    1    2 1   
     2    1   12 1   
     3    1   36 1   
     4    2    3 1   
     5    2    5 1   
     6    2   37 1   
     7    3    4 1   
     8    3   25 1   
     9    5    6 1   
    10    5   38 1   
    11    5   39 1   
    12    6    7 1   
    13    6    8 1   
    14    7   40 1   
    15    8   10 1   
    16    8   41 1   
    17    9   11 1   
    18    9   42 1   
    19   10   43 1   
    20   11   44 1   
    21   12   13 1   
    22   12   14 1   
    23   15   23 1   
    24   15   45 1   
    25   16   17 1   
    26   17   46 1   
    27   18   24 1   
    28   18   47 1   
    29   19   24 1   
    30   19   48 1   
    31   20   21 1   
    32   20   49 1   
    33   21   50 1   
    34   22   23 1   
    35   22   51 1   
    36   25   26 1   
    37   25   52 1   
    38   26   27 1   
    39   26   53 1   
    40   26   54 1   
    41   27   28 1   
    42   27   29 1   
    43   27   55 1   
    44   28   30 1   
    45   28   56 1   
    46   28   57 1   
    47   29   31 1   
    48   29   58 1   
    49   29   59 1   
    50   30   32 1   
    51   30   33 1   
    52   31   32 1   
    53   31   60 1   
    54   31   61 1   
    55   32   62 1   
    56   32   63 1   
    57   33   34 1   
    58   33   35 1   
    59   34   64 1   
    60   34   65 1   
@<TRIPOS>SUBSTRUCTURE
     1 9MU         1 TEMP              0 ****  ****    0 ROOT
