@<TRIPOS>MOLECULE
9MU
   66    69     1     0     0
SMALL
bcc


@<TRIPOS>ATOM
      1 N12        -0.6400    1.4120    0.3770 n3        1 9MU     -0.907100
      2 C15         0.2340    0.8430    1.3660 c3        1 9MU      0.187500
      3 C17         1.6160    1.5620    1.3950 c         1 9MU      0.630100
      4 O20         1.9410    2.2670    2.3710 o         1 9MU     -0.612100
      5 C16        -0.3270    0.8940    2.7990 c3        1 9MU     -0.043100
      6 C18        -1.5820    0.1160    2.9560 ca        1 9MU     -0.083300
      7 C21        -1.5320   -1.2660    3.1770 ca        1 9MU     -0.126500
      8 C22        -2.8240    0.7600    2.9240 ca        1 9MU     -0.126500
      9 C24        -2.7070   -1.9920    3.3610 ca        1 9MU     -0.126500
     10 C25        -3.9990    0.0320    3.1080 ca        1 9MU     -0.126500
     11 C27        -3.9420   -1.3440    3.3270 ca        1 9MU     -0.127000
     12 S11        -0.7740    0.9090   -1.1550 sy        1 9MU      1.519200
     13 O14        -1.1270    2.0140   -1.9620 o         1 9MU     -0.659800
     14 O13         0.3960    0.1930   -1.5120 o         1 9MU     -0.659800
     15 C3         -3.3590    0.2660   -1.4060 ca        1 9MU      0.031000
     16 C7         -2.0740   -0.1590   -1.1370 ca        1 9MU     -0.384500
     17 C9         -1.8480   -1.5400   -0.8890 ca        1 9MU     -0.041000
     18 C5         -2.8780   -2.4440   -0.9080 ca        1 9MU     -0.132000
     19 C6         -5.2990   -2.9270   -1.2040 ca        1 9MU     -0.134000
     20 C10        -6.5690   -2.4800   -1.4750 ca        1 9MU     -0.102000
     21 C8         -6.8100   -1.1080   -1.7320 ca        1 9MU     -0.136000
     22 C4         -5.7740   -0.2070   -1.7130 ca        1 9MU     -0.098000
     23 C1         -4.4480   -0.6420   -1.4340 ca        1 9MU     -0.073000
     24 C2         -4.2070   -2.0160   -1.1780 ca        1 9MU      0.015000
     25 N19         2.4190    1.4070    0.2920 n         1 9MU     -0.557900
     26 C23         3.7640    1.9130    0.2430 c3        1 9MU      0.089000
     27 C26         4.8540    0.8330    0.1710 c3        1 9MU     -0.119700
     28 C28         4.8120    0.1240   -1.1900 c3        1 9MU      0.183800
     29 C29         6.2100    1.4870    0.3850 c3        1 9MU     -0.072400
     30 N30         5.9210   -0.7670   -1.4920 nh        1 9MU     -0.696600
     31 C31         7.3270    0.4850    0.1880 c3        1 9MU     -0.107400
     32 C32         7.2190   -0.1820   -1.1820 c3        1 9MU      0.171800
     33 C33         5.7800   -2.1380   -1.0030 c2        1 9MU      0.739100
     34 N34         6.4660   -3.1060   -1.8060 nh        1 9MU     -0.928800
     35 N35         5.1190   -2.4130    0.0900 n2        1 9MU     -0.858100
     36 H12        -1.1610    2.1880    0.7150 hn        1 9MU      0.454800
     37 H15         0.4140   -0.2430    1.0950 h1        1 9MU      0.070700
     38 H161        0.4680    0.4840    3.4800 hc        1 9MU      0.077700
     39 H162       -0.4850    1.9660    3.0960 hc        1 9MU      0.077700
     40 H21        -0.5580   -1.7780    3.2120 ha        1 9MU      0.130500
     41 H22        -2.8720    1.8470    2.7590 ha        1 9MU      0.130500
     42 H24        -2.6600   -3.0760    3.5380 ha        1 9MU      0.131500
     43 H25        -4.9710    0.5450    3.0830 ha        1 9MU      0.131500
     44 H27        -4.8690   -1.9170    3.4740 ha        1 9MU      0.132000
     45 H9         -0.8130   -1.8740   -0.6960 ha        1 9MU      0.149000
     46 H5         -2.6950   -3.5120   -0.7190 ha        1 9MU      0.140000
     47 H6         -5.1040   -3.9910   -1.0050 ha        1 9MU      0.139000
     48 H10        -7.4170   -3.1820   -1.4970 ha        1 9MU      0.137000
     49 H8         -7.8370   -0.7770   -1.9490 ha        1 9MU      0.138000
     50 H4         -5.9490    0.8610   -1.9140 ha        1 9MU      0.139000
     51 H19         2.1620    0.7470   -0.4110 hn        1 9MU      0.338500
     52 H231        3.8500    2.5760   -0.6680 h1        1 9MU      0.062200
     53 H232        3.9480    2.5490    1.1570 h1        1 9MU      0.062200
     54 H26         4.6870    0.0760    0.9870 hc        1 9MU      0.086700
     55 H281        3.8480   -0.4470   -1.2870 h1        1 9MU      0.059700
     56 H282        4.8350    0.9090   -2.0020 h1        1 9MU      0.059700
     57 H291        6.3350    2.3380   -0.3360 hc        1 9MU      0.043200
     58 H292        6.2630    1.9120    1.4220 hc        1 9MU      0.043200
     59 H311        8.3190    1.0000    0.2600 hc        1 9MU      0.052200
     60 H312        7.2840   -0.2930    0.9940 hc        1 9MU      0.052200
     61 H321        8.0210   -0.9650   -1.2750 h1        1 9MU      0.056200
     62 H322        7.4010    0.5970   -1.9780 h1        1 9MU      0.056200
     63 H341        6.7970   -2.7670   -2.6830 hn        1 9MU      0.391800
     64 H342        5.9730   -3.9670   -1.8970 hn        1 9MU      0.391800
     65 H35         5.0250   -3.3800    0.3110 hn        1 9MU      0.389400
     66 H3         -3.5530    1.3320   -1.6250 ha        1 9MU      0.153000
@<TRIPOS>BOND
     1    1    2 1   
     2    1   12 1   
     3    1   36 1   
     4    2    3 1   
     5    2    5 1   
     6    2   37 1   
     7    3    4 2   
     8    3   25 1   
     9    5    6 1   
    10    5   38 1   
    11    5   39 1   
    12    6    7 ar  
    13    6    8 ar  
    14    7    9 ar  
    15    7   40 1   
    16    8   10 ar  
    17    8   41 1   
    18    9   11 ar  
    19    9   42 1   
    20   10   11 ar  
    21   10   43 1   
    22   11   44 1   
    23   12   13 2   
    24   12   14 2   
    25   12   16 1   
    26   15   16 ar  
    27   15   23 ar  
    28   15   66 1   
    29   16   17 ar  
    30   17   18 ar  
    31   17   45 1   
    32   18   24 ar  
    33   18   46 1   
    34   19   20 ar  
    35   19   24 ar  
    36   19   47 1   
    37   20   21 ar  
    38   20   48 1   
    39   21   22 ar  
    40   21   49 1   
    41   22   23 ar  
    42   22   50 1   
    43   23   24 ar  
    44   25   26 1   
    45   25   51 1   
    46   26   27 1   
    47   26   52 1   
    48   26   53 1   
    49   27   28 1   
    50   27   29 1   
    51   27   54 1   
    52   28   30 1   
    53   28   55 1   
    54   28   56 1   
    55   29   31 1   
    56   29   57 1   
    57   29   58 1   
    58   30   32 1   
    59   30   33 1   
    60   31   32 1   
    61   31   59 1   
    62   31   60 1   
    63   32   61 1   
    64   32   62 1   
    65   33   34 1   
    66   33   35 2   
    67   34   63 1   
    68   34   64 1   
    69   35   65 1   
@<TRIPOS>SUBSTRUCTURE
     1 9MU         1 TEMP              0 ****  ****    0 ROOT
