@<TRIPOS>MOLECULE
9MU
   69    71     1     0     0
SMALL
bcc


@<TRIPOS>ATOM
      1 N12         0.9520    1.0100   -0.9230 n8        1 9MU     -0.976800
      2 C15         2.2880    0.5100   -0.6080 c3        1 9MU      0.109500
      3 C17         2.7700    1.0250    0.7520 c         1 9MU      0.526100
      4 O20         2.1070    1.5110    1.6510 o         1 9MU     -0.382100
      5 C16         2.4210   -1.0310   -0.5940 c3        1 9MU     -0.048100
      6 C18         1.9260   -1.6240   -1.8630 ca        1 9MU     -0.162300
      7 C21         2.7340   -1.6220   -3.0060 ca        1 9MU     -0.123500
      8 C22         0.6700   -2.2430   -1.9030 ca        1 9MU     -0.123500
      9 C24         2.2930   -2.2360   -4.1760 ca        1 9MU     -0.111500
     10 C25         0.2320   -2.8570   -3.0760 ca        1 9MU     -0.111500
     11 C27         1.0420   -2.8570   -4.2120 ca        1 9MU     -0.085000
     12 S11         0.9240    3.3160   -2.2560 s4        1 9MU      1.689300
     13 O14         0.4810    3.8130   -1.0720 o         1 9MU     -0.452900
     14 O13         2.2490    3.0310   -2.4060 o         1 9MU     -0.452900
     15 C3         -1.3970    3.5860   -3.3580 ca        1 9MU      0.132000
     16 C7         -0.0330    3.1970   -3.4250 ca        1 9MU     -0.677500
     17 C9          0.4370    2.7220   -4.7090 ca        1 9MU     -0.055000
     18 C5         -0.3740    2.6640   -5.7980 ca        1 9MU     -0.097000
     19 C6         -2.5980    3.0420   -6.8400 ca        1 9MU     -0.156000
     20 C10        -3.9140    3.4580   -6.7230 ca        1 9MU      0.009000
     21 C8         -4.4200    3.9150   -5.4810 ca        1 9MU     -0.119000
     22 C4         -3.6110    3.9560   -4.3720 ca        1 9MU     -0.058000
     23 C1         -2.2450    3.5380   -4.4610 ca        1 9MU     -0.107000
     24 C2         -1.7430    3.0740   -5.7230 ca        1 9MU      0.080000
     25 N19         4.2630    0.9100    1.0280 ny        1 9MU     -0.679800
     26 C23         4.5290   -0.0310    2.1600 c3        1 9MU      0.100800
     27 C26         5.9710   -0.0280    2.6870 c3        1 9MU     -0.117700
     28 C28         6.1720    1.1320    3.6860 c3        1 9MU      0.191800
     29 C29         6.2020   -1.3840    3.3540 c3        1 9MU     -0.085400
     30 N30         7.3350    1.0340    4.5480 nh        1 9MU     -0.745600
     31 C31         7.4950   -1.4180    4.1390 c3        1 9MU     -0.113400
     32 C32         7.5300   -0.2730    5.1470 c3        1 9MU      0.162800
     33 C33         8.4300    1.8970    4.2830 c2        1 9MU      0.701100
     34 N34         9.8130    1.2520    4.1570 nz        1 9MU     -0.838600
     35 N35         8.4700    3.1820    4.2220 n2        1 9MU     -0.727100
     36 H12         0.4200    1.1980   -0.0880 hn        1 9MU      0.412300
     37 H15         2.9700    0.9290   -1.4160 h1        1 9MU      0.127700
     38 H161        1.8490   -1.4520    0.2760 hc        1 9MU      0.064200
     39 H162        3.5040   -1.2970   -0.4600 hc        1 9MU      0.064200
     40 H21         3.7290   -1.1530   -2.9800 ha        1 9MU      0.131000
     41 H22         0.0370   -2.2780   -1.0030 ha        1 9MU      0.131000
     42 H24         2.9390   -2.2480   -5.0690 ha        1 9MU      0.164500
     43 H25        -0.7490   -3.3610   -3.0980 ha        1 9MU      0.164500
     44 H27         0.7020   -3.3590   -5.1330 ha        1 9MU      0.170000
     45 H9          1.4960    2.4150   -4.7870 ha        1 9MU      0.162000
     46 H5          0.0110    2.3070   -6.7700 ha        1 9MU      0.183000
     47 H6         -2.2100    2.6890   -7.8110 ha        1 9MU      0.178000
     48 H10        -4.5840    3.4380   -7.6030 ha        1 9MU      0.185000
     49 H8         -5.4740    4.2410   -5.4190 ha        1 9MU      0.186000
     50 H4         -3.9980    4.3140   -3.4040 ha        1 9MU      0.166000
     51 H19         4.6220    1.8420    1.2730 hn        1 9MU      0.461800
     52 H231        3.8160    0.2350    2.9980 hx        1 9MU      0.125700
     53 H232        4.2690   -1.0680    1.7890 hx        1 9MU      0.125700
     54 H26         6.7000    0.0810    1.8380 hc        1 9MU      0.068700
     55 H281        6.1920    2.1020    3.1160 h1        1 9MU      0.075200
     56 H282        5.2870    1.1550    4.3930 h1        1 9MU      0.075200
     57 H291        5.3470   -1.6090    4.0490 hc        1 9MU      0.081700
     58 H292        6.2230   -2.1880    2.5710 hc        1 9MU      0.081700
     59 H311        7.5630   -2.3910    4.7000 hc        1 9MU      0.078200
     60 H312        8.3720   -1.3740    3.4440 hc        1 9MU      0.078200
     61 H321        8.4750   -0.3060    5.7560 h1        1 9MU      0.095200
     62 H322        6.6760   -0.4050    5.8810 h1        1 9MU      0.095200
     63 H341        9.7550    0.3670    3.6480 hn        1 9MU      0.478800
     64 H342       10.4590    1.8910    3.6690 hn        1 9MU      0.478800
     65 H35         7.6400    3.7150    4.3810 hn        1 9MU      0.488400
     66 H122        0.4660    0.3040   -1.4610 hn        1 9MU      0.412300
     67 H192        4.7490    0.5860    0.1840 hn        1 9MU      0.461800
     68 H343       10.1810    1.0810    5.1020 hn        1 9MU      0.478800
     69 H3         -1.7960    3.9550   -2.3910 ha        1 9MU      0.170000
@<TRIPOS>BOND
     1    1    2 1   
     2    1   36 1   
     3    1   66 1   
     4    2    3 1   
     5    2    5 1   
     6    2   37 1   
     7    3    4 2   
     8    3   25 1   
     9    5    6 1   
    10    5   38 1   
    11    5   39 1   
    12    6    7 ar  
    13    6    8 ar  
    14    7    9 ar  
    15    7   40 1   
    16    8   10 ar  
    17    8   41 1   
    18    9   11 ar  
    19    9   42 1   
    20   10   11 ar  
    21   10   43 1   
    22   11   44 1   
    23   12   13 1   
    24   12   14 1   
    25   12   16 1   
    26   15   16 ar  
    27   15   23 ar  
    28   15   69 1   
    29   16   17 ar  
    30   17   18 ar  
    31   17   45 1   
    32   18   24 ar  
    33   18   46 1   
    34   19   20 ar  
    35   19   24 ar  
    36   19   47 1   
    37   20   21 ar  
    38   20   48 1   
    39   21   22 ar  
    40   21   49 1   
    41   22   23 ar  
    42   22   50 1   
    43   23   24 ar  
    44   25   26 1   
    45   25   51 1   
    46   25   67 1   
    47   26   27 1   
    48   26   52 1   
    49   26   53 1   
    50   27   28 1   
    51   27   29 1   
    52   27   54 1   
    53   28   30 1   
    54   28   55 1   
    55   28   56 1   
    56   29   31 1   
    57   29   57 1   
    58   29   58 1   
    59   30   32 1   
    60   30   33 1   
    61   31   32 1   
    62   31   59 1   
    63   31   60 1   
    64   32   61 1   
    65   32   62 1   
    66   33   34 1   
    67   33   35 2   
    68   34   63 1   
    69   34   64 1   
    70   34   68 1   
    71   35   65 1   
@<TRIPOS>SUBSTRUCTURE
     1 9MU         1 TEMP              0 ****  ****    0 ROOT
