@<TRIPOS>MOLECULE
9MU
   69    71     1     0     0
SMALL
bcc


@<TRIPOS>ATOM
      1 N12         0.9920    1.0320   -0.9160 n3        1 9MU     -0.976800
      2 C15         2.3300    0.5390   -0.5990 c3        1 9MU      0.109500
      3 C17         2.7940    1.0290    0.7760 c         1 9MU      0.526100
      4 O20         2.1170    1.4860    1.6800 o         1 9MU     -0.382100
      5 C16         2.4810   -1.0000   -0.6200 c3        1 9MU     -0.048100
      6 C18         2.0030   -1.5690   -1.9070 ca        1 9MU     -0.162300
      7 C21         2.8220   -1.5310   -3.0420 ca        1 9MU     -0.123500
      8 C22         0.7540   -2.1990   -1.9730 ca        1 9MU     -0.123500
      9 C24         2.3980   -2.1230   -4.2300 ca        1 9MU     -0.111500
     10 C25         0.3340   -2.7920   -3.1630 ca        1 9MU     -0.111500
     11 C27         1.1540   -2.7560   -4.2920 ca        1 9MU     -0.085000
     12 S11         0.9510    3.3670   -2.1970 s4        1 9MU      1.689300
     13 O14         0.4930    3.8330   -1.0060 o         1 9MU     -0.452400
     14 O13         2.2810    3.1000   -2.3420 o         1 9MU     -0.452400
     15 C3         -1.3630    3.6370   -3.3130 ca        1 9MU      0.132000
     16 C7          0.0050    3.2640   -3.3770 ca        1 9MU     -0.677500
     17 C9          0.4910    2.8230   -4.6670 ca        1 9MU     -0.055000
     18 C5         -0.3100    2.7810   -5.7630 ca        1 9MU     -0.097000
     19 C6         -2.5290    3.1590   -6.8160 ca        1 9MU     -0.156000
     20 C10        -3.8500    3.5570   -6.7010 ca        1 9MU      0.009000
     21 C8         -4.3720    3.9810   -5.4540 ca        1 9MU     -0.119000
     22 C4         -3.5720    4.0060   -4.3380 ca        1 9MU     -0.058000
     23 C1         -2.2010    3.6050   -4.4240 ca        1 9MU     -0.107000
     24 C2         -1.6840    3.1740   -5.6910 ca        1 9MU      0.080000
     25 N19         4.2860    0.9230    1.0640 n4        1 9MU     -0.679800
     26 C23         4.5510   -0.0410    2.1770 c3        1 9MU      0.100800
     27 C26         5.9880   -0.0350    2.7170 c3        1 9MU     -0.117700
     28 C28         6.1680    1.1040    3.7440 c3        1 9MU      0.191800
     29 C29         6.2280   -1.4030    3.3550 c3        1 9MU     -0.085400
     30 N30         7.3240    0.9990    4.6150 nh        1 9MU     -0.745600
     31 C31         7.5140   -1.4420    4.1520 c3        1 9MU     -0.113400
     32 C32         7.5280   -0.3200    5.1860 c3        1 9MU      0.162800
     33 C33         8.4120    1.8790    4.3800 c2        1 9MU      0.701100
     34 N34         9.8020    1.2520    4.2530 n4        1 9MU     -0.838600
     35 N35         8.4380    3.1650    4.3480 n2        1 9MU     -0.727100
     36 H12         0.4510    1.1960   -0.0810 hn        1 9MU      0.412300
     37 H15         3.0160    0.9850   -1.3910 h1        1 9MU      0.127700
     38 H161        3.5640   -1.2570   -0.4820 hc        1 9MU      0.064200
     39 H162        1.9050   -1.4470    0.2350 hc        1 9MU      0.064200
     40 H21         3.8120   -1.0530   -2.9950 ha        1 9MU      0.131000
     41 H22         0.1140   -2.2620   -1.0800 ha        1 9MU      0.131000
     42 H24         3.0520   -2.1080   -5.1170 ha        1 9MU      0.164500
     43 H25        -0.6420   -3.3040   -3.2070 ha        1 9MU      0.164500
     44 H27         0.8280   -3.2410   -5.2270 ha        1 9MU      0.170000
     45 H9          1.5540    2.5290   -4.7420 ha        1 9MU      0.162000
     46 H5          0.0870    2.4500   -6.7400 ha        1 9MU      0.183000
     47 H6         -2.1290    2.8320   -7.7910 ha        1 9MU      0.178000
     48 H10        -4.5130    3.5500   -7.5870 ha        1 9MU      0.185000
     49 H8         -5.4300    4.2950   -5.3940 ha        1 9MU      0.186000
     50 H4         -3.9720    4.3390   -3.3650 ha        1 9MU      0.166000
     51 H19         4.7830    0.6240    0.2180 hn        1 9MU      0.461800
     52 H231        3.8280    0.1980    3.0140 hx        1 9MU      0.125700
     53 H232        4.3070   -1.0720    1.7790 hx        1 9MU      0.125700
     54 H26         6.7240    0.1020    1.8780 hc        1 9MU      0.068700
     55 H281        5.2760    1.1010    4.4430 h1        1 9MU      0.075200
     56 H282        6.1830    2.0870    3.1970 h1        1 9MU      0.075200
     57 H291        5.3700   -1.6530    4.0360 hc        1 9MU      0.081700
     58 H292        6.2650   -2.1880    2.5540 hc        1 9MU      0.081700
     59 H311        8.3970   -1.3720    3.4650 hc        1 9MU      0.078200
     60 H312        7.5870   -2.4260    4.6910 hc        1 9MU      0.078200
     61 H321        6.6680   -0.4770    5.9080 h1        1 9MU      0.095200
     62 H322        8.4670   -0.3560    5.8030 h1        1 9MU      0.095200
     63 H341       10.1640    1.0630    5.1970 hn        1 9MU      0.479133
     64 H342       10.4460    1.9090    3.7860 hn        1 9MU      0.479133
     65 H35         7.6010    3.6860    4.5120 hn        1 9MU      0.488400
     66 H122        0.5180    0.3340   -1.4740 hn        1 9MU      0.412300
     67 H192        4.6320    1.8530    1.3330 hn        1 9MU      0.461800
     68 H343        9.7590    0.3790    3.7230 hn        1 9MU      0.479133
     69 H3         -1.7750    3.9810   -2.3410 ha        1 9MU      0.170000
@<TRIPOS>BOND
     1    1    2 1   
     2    1   36 1   
     3    1   66 1   
     4    2    3 1   
     5    2    5 1   
     6    2   37 1   
     7    3    4 2   
     8    3   25 1   
     9    5    6 1   
    10    5   38 1   
    11    5   39 1   
    12    6    7 ar  
    13    6    8 ar  
    14    7    9 ar  
    15    7   40 1   
    16    8   10 ar  
    17    8   41 1   
    18    9   11 ar  
    19    9   42 1   
    20   10   11 ar  
    21   10   43 1   
    22   11   44 1   
    23   12   13 1   
    24   12   14 1   
    25   12   16 1   
    26   15   16 ar  
    27   15   23 ar  
    28   15   69 1   
    29   16   17 ar  
    30   17   18 ar  
    31   17   45 1   
    32   18   24 ar  
    33   18   46 1   
    34   19   20 ar  
    35   19   24 ar  
    36   19   47 1   
    37   20   21 ar  
    38   20   48 1   
    39   21   22 ar  
    40   21   49 1   
    41   22   23 ar  
    42   22   50 1   
    43   23   24 ar  
    44   25   26 1   
    45   25   51 1   
    46   25   67 1   
    47   26   27 1   
    48   26   52 1   
    49   26   53 1   
    50   27   28 1   
    51   27   29 1   
    52   27   54 1   
    53   28   30 1   
    54   28   55 1   
    55   28   56 1   
    56   29   31 1   
    57   29   57 1   
    58   29   58 1   
    59   30   32 1   
    60   30   33 1   
    61   31   32 1   
    62   31   59 1   
    63   31   60 1   
    64   32   61 1   
    65   32   62 1   
    66   33   34 1   
    67   33   35 2   
    68   34   63 1   
    69   34   64 1   
    70   34   68 1   
    71   35   65 1   
@<TRIPOS>SUBSTRUCTURE
     1 9MU         1 TEMP              0 ****  ****    0 ROOT
