@<TRIPOS>MOLECULE
9MX
   78    73     1     0     0
SMALL
bcc


@<TRIPOS>ATOM
      1 C20         2.6440   -0.8820   -1.0710 c3        1 9MX     -0.010000
      2 C27         3.6000    0.1170   -1.1510 c3        1 9MX     -0.122000
      3 C32         4.1080    0.3280   -2.6290 c3        1 9MX     -0.039000
      4 C33         2.9670    1.5520   -0.9710 c3        1 9MX     -0.180000
      5 N37         5.1140    1.4100   -2.7480 n3        1 9MX     -0.296000
      6 C38         3.9580    2.6370   -1.0860 c3        1 9MX     -0.151000
      7 C40         5.0850    2.2150   -1.7230 c3        1 9MX     -0.048000
      8 C41         6.3460    1.1740   -3.4410 c2        1 9MX      0.172000
      9 N43         7.3600    0.6250   -2.8120 n1        1 9MX     -0.374000
     10 N42         6.4700    1.5330   -4.8090 n3        1 9MX     -0.323000
     11 N3         -1.7360   -0.7570    0.3050 n3        1 9MX     -0.900000
     12 C1         -1.4450   -1.0030    1.6590 c3        1 9MX      0.026000
     13 C2         -2.0130    0.1450    2.5280 c2        1 9MX      0.338000
     14 O6         -2.4560    1.1430    1.9980 o         1 9MX     -0.339000
     15 C4          0.0640   -1.0840    1.8510 c3        1 9MX     -0.194000
     16 C8          0.7480   -1.3720    0.4900 c2        1 9MX      0.304000
     17 O15         0.1830   -2.0670   -0.3400 o         1 9MX     -0.460000
     18 N14         2.1250   -0.9410    0.2630 n         1 9MX     -0.342000
     19 S7         -2.4050   -1.9740   -0.6440 s4        1 9MX      2.068800
     20 O12        -1.5280   -3.1100   -0.7310 o         1 9MX     -0.562900
     21 O13        -3.5580   -2.5590   -0.0090 o         1 9MX     -0.562900
     22 C18        -1.7830   -1.0520   -3.1820 c1        1 9MX     -0.085500
     23 C11        -2.8120   -1.3390   -2.2730 c1        1 9MX     -0.812000
     24 C19        -4.1500   -1.2640   -2.6820 c1        1 9MX     -0.038000
     25 C26        -4.4610   -0.9000   -4.0020 c1        1 9MX     -0.085500
     26 C35        -3.7360   -0.2020   -6.2360 c1        1 9MX     -0.085500
     27 C39        -2.7080    0.1270   -7.1320 c1        1 9MX     -0.133000
     28 C36        -1.3760    0.0520   -6.7240 c1        1 9MX     -0.133000
     29 C31        -1.0640   -0.3530   -5.4170 c1        1 9MX     -0.085500
     30 C25        -2.0970   -0.6840   -4.5150 c1        1 9MX     -0.032500
     31 C30        -3.4220   -0.6090   -4.9210 c1        1 9MX     -0.032500
     32 N5         -1.9460    0.0610    3.9840 n         1 9MX     -0.345000
     33 C21        -2.4080    1.1710    4.8830 c3        1 9MX     -0.026000
     34 C28        -3.3940    0.5900    5.9300 c3        1 9MX     -0.157000
     35 C10        -2.8480   -0.6050    6.6370 c3        1 9MX     -0.101000
     36 C16        -2.3760   -1.6370    5.7120 c3        1 9MX     -0.177000
     37 C9         -1.4270   -1.1090    4.6820 c3        1 9MX      0.003000
     38 C17        -2.9940    2.3040    4.0980 c1        1 9MX      0.339000
     39 O23        -2.2510    3.2240    3.6780 o         1 9MX     -0.525000
     40 O24        -4.2490    2.4020    3.9770 os        1 9MX     -0.623000
     41 C29        -1.6380   -0.1470    7.5510 c3        1 9MX     -0.206000
     42 H20         1.9160   -0.6880   -1.6950 h1        1 9MX      0.081500
     43 H20A        3.0530   -1.7470   -1.3020 h1        1 9MX      0.081500
     44 H27         4.3400   -0.0310   -0.5330 hc        1 9MX      0.107000
     45 H32         3.3450    0.5470   -3.1940 h1        1 9MX      0.077000
     46 H32A        4.5060   -0.5080   -2.9470 h1        1 9MX      0.077000
     47 H33         2.2800    1.6810   -1.6520 hc        1 9MX      0.125000
     48 H33A        2.5460    1.6020   -0.0840 hc        1 9MX      0.125000
     49 H38         3.5630    3.3790   -1.5920 hc        1 9MX      0.094000
     50 H38A        4.1960    2.9520   -0.1850 hc        1 9MX      0.094000
     51 H40         5.6420    1.7940   -1.0340 h1        1 9MX      0.067500
     52 H40A        5.5580    3.0350   -2.0080 h1        1 9MX      0.067500
     53 HN43        7.2800    0.3940   -1.9350 DU        1 9MX      0.146000
     54 HN42        5.9330    2.1860   -5.1610 hn        1 9MX      0.185500
     55 HN4A        7.0770    1.1060   -5.3390 hn        1 9MX      0.185500
     56 HN3        -1.6120    0.0800   -0.0450 hn        1 9MX      0.307000
     57 H1         -1.8510   -1.8450    1.9300 h1        1 9MX      0.110000
     58 H4          0.3930   -0.2340    2.2070 hc        1 9MX      0.121500
     59 H4A         0.2740   -1.8040    2.4800 hc        1 9MX      0.121500
     60 HN14        2.6710   -0.7840    0.9690 hn        1 9MX      0.291000
     61 H18        -0.8550   -1.0610   -2.8850 ha        1 9MX      0.149250
     62 H19        -4.8670   -1.5230   -2.0630 ha        1 9MX      0.158000
     63 H26        -5.3920   -0.8870   -4.2970 ha        1 9MX      0.149250
     64 H35        -4.6710   -0.1490   -6.5220 ha        1 9MX      0.149250
     65 H39        -2.9270    0.4110   -8.0500 ha        1 9MX      0.126000
     66 H36        -0.6550    0.2820   -7.3530 ha        1 9MX      0.126000
     67 H31        -0.1270   -0.4060   -5.1310 ha        1 9MX      0.149250
     68 H21        -1.6540    1.6150    5.3230 h1        1 9MX      0.089000
     69 H28        -4.2240    0.3360    5.4750 hc        1 9MX      0.095000
     70 H28A       -3.5970    1.2880    6.5950 hc        1 9MX      0.095000
     71 H10        -3.5500   -0.9860    7.2070 hc        1 9MX      0.074000
     72 H16        -1.9260   -2.3350    6.2240 hc        1 9MX      0.094000
     73 H16A       -3.1550   -2.0310    5.2520 hc        1 9MX      0.094000
     74 H9         -1.2460   -1.8160    4.0250 h1        1 9MX      0.061500
     75 H9A        -0.5880   -0.8650    5.1230 h1        1 9MX      0.061500
     76 H29        -1.9760    0.4220    8.2860 hc        1 9MX      0.067667
     77 H29A       -0.9940    0.3640    7.0100 hc        1 9MX      0.067667
     78 H29B       -1.1960   -0.9350    7.9250 hc        1 9MX      0.067667
@<TRIPOS>BOND
     1    1    2 1   
     2    1   18 1   
     3    1   42 1   
     4    1   43 1   
     5    2    3 1   
     6    2    4 1   
     7    2   44 1   
     8    3    5 1   
     9    3   45 1   
    10    3   46 1   
    11    4    6 1   
    12    4   47 1   
    13    4   48 1   
    14    5    7 1   
    15    5    8 1   
    16    6    7 1   
    17    6   49 1   
    18    6   50 1   
    19    7   51 1   
    20    7   52 1   
    21    8    9 1   
    22    8   10 1   
    23   10   54 1   
    24   10   55 1   
    25   11   12 1   
    26   11   19 1   
    27   11   56 1   
    28   12   13 1   
    29   12   15 1   
    30   12   57 1   
    31   13   14 1   
    32   13   32 1   
    33   15   16 1   
    34   15   58 1   
    35   15   59 1   
    36   16   17 1   
    37   16   18 1   
    38   18   60 1   
    39   19   20 1   
    40   19   21 1   
    41   22   30 1   
    42   22   61 1   
    43   23   24 1   
    44   24   62 1   
    45   25   31 1   
    46   25   63 1   
    47   26   31 1   
    48   26   64 1   
    49   27   28 1   
    50   27   65 1   
    51   28   66 1   
    52   29   30 1   
    53   29   67 1   
    54   32   33 1   
    55   32   37 1   
    56   33   34 1   
    57   33   38 1   
    58   33   68 1   
    59   34   35 1   
    60   34   69 1   
    61   34   70 1   
    62   35   36 1   
    63   35   41 1   
    64   35   71 1   
    65   36   37 1   
    66   36   72 1   
    67   36   73 1   
    68   37   74 1   
    69   37   75 1   
    70   38   39 1   
    71   41   76 1   
    72   41   77 1   
    73   41   78 1   
@<TRIPOS>SUBSTRUCTURE
     1 9MX         1 TEMP              0 ****  ****    0 ROOT
