@<TRIPOS>MOLECULE
9MX
   78    79     1     0     0
SMALL
bcc


@<TRIPOS>ATOM
      1 C20        -0.3220    0.0730   -1.9870 c3        1 9MX     -0.066000
      2 C27         0.6970    0.3230   -0.8730 c3        1 9MX     -0.195000
      3 C32        -0.7040    0.6320    3.5580 c2        1 9MX     -0.410000
      4 C33         1.2820   -0.9620   -0.3300 c3        1 9MX     -0.147000
      5 N37         0.3720    0.4620    2.7960 n3        1 9MX      0.133000
      6 C38         1.7580   -0.7920    1.1070 c3        1 9MX     -0.068000
      7 C40         0.6080   -0.6090    2.0190 c2        1 9MX     -0.430000
      8 C41         1.4110    1.5360    2.8730 c2        1 9MX      0.142000
      9 N43         1.3780    2.6460    2.2110 n2        1 9MX     -0.269000
     10 N42         2.5100    1.2070    3.7260 n3        1 9MX     -0.317000
     11 N3         -4.5240    3.6430    0.0700 n3        1 9MX     -0.877000
     12 C1         -3.3550    2.8870    0.4440 c3        1 9MX      0.094000
     13 C2         -2.5330    3.5380    1.5950 c2        1 9MX      0.347000
     14 O6         -1.3390    3.8110    1.4270 o         1 9MX     -0.308000
     15 C4         -2.4030    2.6620   -0.6950 c2        1 9MX     -0.334000
     16 C8         -2.1750    1.4440   -1.2460 c2        1 9MX      0.152000
     17 O15        -2.8530    0.3040   -0.8410 oh        1 9MX     -0.291000
     18 N14        -1.2140    1.1850   -2.2600 n3        1 9MX     -0.262000
     19 O12        -6.0740    3.9130   -1.8580 o         1 9MX     -0.958500
     20 O13        -5.4640    1.7020   -1.1760 o         1 9MX     -0.958500
     21 C18        -7.6640    1.8830    0.6420 c2        1 9MX      0.056000
     22 C11        -7.0460    3.0290    0.2800 c2        1 9MX     -0.827000
     23 C19        -7.5180    4.3460    0.7900 c3        1 9MX     -0.133000
     24 C26        -8.8740    4.3270    1.3720 c2        1 9MX     -0.007000
     25 C35       -10.8480    3.0820    2.2320 c2        1 9MX     -0.084000
     26 C39       -11.4080    1.9060    2.6290 c2        1 9MX     -0.162000
     27 C36       -10.5100    0.7840    2.8730 c2        1 9MX     -0.080000
     28 C31        -9.3660    0.8670    2.1860 c1        1 9MX     -0.179000
     29 C25        -8.7950    1.8890    1.5330 c2        1 9MX     -0.006000
     30 C30        -9.4670    3.1790    1.7790 c2        1 9MX     -0.120000
     31 N5         -3.1880    3.7490    2.8570 n         1 9MX     -0.056000
     32 C21        -4.4540    4.3700    2.8160 c2        1 9MX     -0.578000
     33 C28        -2.9810    2.8550    7.6940 c3        1 9MX     -0.205500
     34 C10        -2.2770    2.8650    6.3540 c3        1 9MX     -0.088000
     35 C16        -3.1610    3.5140    5.2970 c3        1 9MX     -0.178000
     36 C9         -2.5660    3.3200    3.9450 c1        1 9MX     -0.153000
     37 C17        -4.6920    5.7380    2.6750 c2        1 9MX      0.338000
     38 O23        -3.6150    6.5950    2.5130 oh        1 9MX     -0.352000
     39 O24        -5.8050    6.3350    2.6030 o         1 9MX     -0.557000
     40 C29        -0.9490    3.5830    6.4520 c3        1 9MX     -0.205500
     41 H20        -3.8010    0.4760   -0.9900 ho        1 9MX      0.263000
     42 H20A        0.2200   -0.1540   -2.9470 h1        1 9MX      0.097500
     43 H27        -0.9580   -0.8190   -1.7220 h1        1 9MX      0.097500
     44 H32         1.5180    0.9840   -1.2510 hc        1 9MX      0.087500
     45 H32A       -1.4900   -0.1310    3.5460 h4        1 9MX      0.169000
     46 H33         0.1890    0.8720   -0.0320 hc        1 9MX      0.087500
     47 H33A        0.5130   -1.7790   -0.3630 hc        1 9MX      0.070000
     48 H38         2.1430   -1.2880   -0.9690 hc        1 9MX      0.070000
     49 H38A        2.4870    0.0600    1.1550 hc        1 9MX      0.073500
     50 H40         2.3130   -1.7210    1.4120 hc        1 9MX      0.073500
     51 H40A       -0.1750   -1.3800    2.0030 h4        1 9MX      0.148000
     52 HN43        0.6080    2.8070    1.5960 hn        1 9MX      0.213000
     53 HN42        3.0480    2.0090    3.9820 hn        1 9MX      0.191500
     54 HN4A        2.2390    0.6670    4.5210 hn        1 9MX      0.191500
     55 HN3        -4.5960    4.5220    0.5450 hn        1 9MX      0.283000
     56 H1         -3.9650    7.4910    2.4100 ho        1 9MX      0.208000
     57 H4         -3.6900    1.8770    0.8460 h1        1 9MX      0.110000
     58 H4A        -1.8340    3.5480   -1.0120 ha        1 9MX      0.152000
     59 HN14       -0.6980    2.0220   -2.4650 hn        1 9MX      0.172000
     60 H19        -6.8040    4.7280    1.5980 hc        1 9MX      0.163500
     61 H26        -7.4860    5.1020   -0.0470 hc        1 9MX      0.163500
     62 H35        -9.3960    5.2970    1.4250 ha        1 9MX      0.132000
     63 H39       -11.4320    4.0160    2.2410 ha        1 9MX      0.127000
     64 H36       -12.4690    1.8170    2.8920 ha        1 9MX      0.126000
     65 H31       -10.7450    0.0450    3.6450 ha        1 9MX      0.144000
     66 H21        -3.2260    3.8960    8.0170 hc        1 9MX      0.066000
     67 H28        -5.3050    3.7200    3.0490 h4        1 9MX      0.136000
     68 H28A       -3.9330    2.2740    7.6310 hc        1 9MX      0.066000
     69 H10        -2.3310    2.3880    8.4720 hc        1 9MX      0.066000
     70 H16        -2.0810    1.8000    6.0410 hc        1 9MX      0.089000
     71 H16A       -4.1920    3.0660    5.3470 hc        1 9MX      0.092500
     72 H9         -3.2710    4.6110    5.5200 hc        1 9MX      0.092500
     73 H9A        -0.8890    1.5890    4.0750 h4        1 9MX      0.169000
     74 H29        -1.0930    4.6290    6.8170 hc        1 9MX      0.066000
     75 H29A       -0.2680    3.0530    7.1610 hc        1 9MX      0.066000
     76 H29B       -0.4710    3.6220    5.4430 hc        1 9MX      0.066000
     77 S7         -5.7330    3.0490   -0.7930 s6        1 9MX      2.851000
     78 H18        -7.3060    0.8990    0.2830 ha        1 9MX      0.160000
@<TRIPOS>BOND
     1    1    2 1   
     2    1   18 1   
     3    1   42 1   
     4    1   43 1   
     5    2    4 1   
     6    2   44 1   
     7    2   46 1   
     8    3    5 1   
     9    3   45 1   
    10    3   73 1   
    11    4    6 1   
    12    4   47 1   
    13    4   48 1   
    14    5    7 1   
    15    5    8 1   
    16    6    7 1   
    17    6   49 1   
    18    6   50 1   
    19    7   51 1   
    20    8    9 1   
    21    8   10 1   
    22    9   52 1   
    23   10   53 1   
    24   10   54 1   
    25   11   12 1   
    26   11   55 1   
    27   11   77 1   
    28   12   13 1   
    29   12   15 1   
    30   12   57 1   
    31   13   14 1   
    32   13   31 1   
    33   15   16 1   
    34   15   58 1   
    35   16   17 1   
    36   16   18 1   
    37   17   41 1   
    38   18   59 1   
    39   19   77 1   
    40   20   77 1   
    41   21   22 1   
    42   21   29 1   
    43   21   78 1   
    44   22   23 1   
    45   22   77 1   
    46   23   24 1   
    47   23   60 1   
    48   23   61 1   
    49   24   30 1   
    50   24   62 1   
    51   25   26 1   
    52   25   30 1   
    53   25   63 1   
    54   26   27 1   
    55   26   64 1   
    56   27   28 1   
    57   27   65 1   
    58   28   29 1   
    59   29   30 1   
    60   31   32 1   
    61   31   36 1   
    62   32   37 1   
    63   32   67 1   
    64   33   34 1   
    65   33   66 1   
    66   33   68 1   
    67   33   69 1   
    68   34   35 1   
    69   34   40 1   
    70   34   70 1   
    71   35   36 1   
    72   35   71 1   
    73   35   72 1   
    74   37   38 1   
    75   37   39 1   
    76   38   56 1   
    77   40   74 1   
    78   40   75 1   
    79   40   76 1   
@<TRIPOS>SUBSTRUCTURE
     1 9MX         1 TEMP              0 ****  ****    0 ROOT
