@<TRIPOS>MOLECULE
9MX
   78    81     1     0     0
SMALL
bcc


@<TRIPOS>ATOM
      1 C20        -3.6960   -0.3430   -1.4550 c3        1 9MX      0.103000
      2 C27        -4.9260   -1.1270   -0.9680 c3        1 9MX     -0.115700
      3 C32        -5.9300   -0.1670   -0.3140 c3        1 9MX      0.169800
      4 C33        -5.5900   -1.8360   -2.1380 c3        1 9MX     -0.073400
      5 N37        -7.1880   -0.7760    0.1010 nh        1 9MX     -0.698600
      6 C38        -6.8560   -2.5360   -1.6890 c3        1 9MX     -0.108400
      7 C40        -7.7910   -1.5760   -0.9530 c3        1 9MX      0.190800
      8 C41        -7.1160   -1.3900    1.4210 c2        1 9MX      0.742100
      9 N43        -7.1420   -2.6880    1.5780 n2        1 9MX     -0.866100
     10 N42        -7.1440   -0.4490    2.5060 nh        1 9MX     -0.923800
     11 N3          0.6030    0.5440    0.4660 n3        1 9MX     -0.913100
     12 C1         -0.2730    1.6810    0.5950 c3        1 9MX      0.156500
     13 C2          0.4410    2.7730    1.4660 c         1 9MX      0.694100
     14 O6          0.3580    2.6770    2.6950 o         1 9MX     -0.530100
     15 C4         -1.6170    1.3650    1.2780 c3        1 9MX     -0.166400
     16 C8         -2.7400    1.1210    0.2880 c         1 9MX      0.646100
     17 O15        -3.6680    1.9520    0.1600 o         1 9MX     -0.647100
     18 N14        -2.7300   -0.0480   -0.4360 n         1 9MX     -0.569900
     19 O12        -0.1210   -1.1170   -1.2380 o         1 9MX     -0.688800
     20 O13         1.1380    0.7330   -1.9760 o         1 9MX     -0.688800
     21 C18         2.3530   -2.4230   -0.9510 ca        1 9MX      0.007000
     22 C11         2.3120   -1.0830   -0.6130 ca        1 9MX     -0.359500
     23 C19         3.4660   -0.4850   -0.0440 ca        1 9MX     -0.027000
     24 C26         4.6130   -1.2170    0.1600 ca        1 9MX     -0.140000
     25 C35         5.8420   -3.3730    0.0020 ca        1 9MX     -0.129000
     26 C39         5.8600   -4.6980   -0.3490 ca        1 9MX     -0.119000
     27 C36         4.7110   -5.3090   -0.9130 ca        1 9MX     -0.152000
     28 C31         3.5670   -4.5790   -1.1130 ca        1 9MX     -0.098000
     29 C25         3.5200   -3.2000   -0.7590 ca        1 9MX     -0.081000
     30 C30         4.6700   -2.5880   -0.1950 ca        1 9MX      0.012000
     31 N5          1.0780    3.8600    0.8390 n         1 9MX     -0.462800
     32 C21         2.5270    3.9730    0.9190 c3        1 9MX     -0.023300
     33 C28         3.2550    3.8170   -0.4270 c3        1 9MX     -0.088400
     34 C10         2.6160    4.5630   -1.5840 c3        1 9MX     -0.059700
     35 C16         1.1380    4.2170   -1.6570 c3        1 9MX     -0.112400
     36 C9          0.4550    4.4630   -0.3140 c3        1 9MX      0.089000
     37 C17         3.2200    2.9370    1.8670 c         1 9MX      0.930600
     38 O23         2.8040    1.7380    1.8470 o         1 9MX     -0.836300
     39 O24         4.1990    3.3430    2.5370 o         1 9MX     -0.836300
     40 C29         2.8460    6.0560   -1.4830 c3        1 9MX     -0.088100
     41 H20        -4.0480    0.6230   -1.9210 h1        1 9MX      0.058200
     42 H20A       -3.1780   -0.9540   -2.2500 h1        1 9MX      0.058200
     43 H27        -4.6120   -1.9020   -0.2160 hc        1 9MX      0.064700
     44 H32        -5.4330    0.3450    0.5560 h1        1 9MX      0.067700
     45 H32A       -6.2030    0.6340   -1.0590 h1        1 9MX      0.067700
     46 H33        -5.8320   -1.0880   -2.9390 hc        1 9MX      0.038700
     47 H33A       -4.8810   -2.5840   -2.5790 hc        1 9MX      0.038700
     48 H38        -7.3980   -2.9470   -2.5790 hc        1 9MX      0.050700
     49 H38A       -6.5940   -3.3970   -1.0210 hc        1 9MX      0.050700
     50 H40        -8.6610   -2.1520   -0.5360 h1        1 9MX      0.051700
     51 H40A       -8.1930   -0.8280   -1.6960 h1        1 9MX      0.051700
     52 HN43       -7.1670   -3.0070    2.5220 hn        1 9MX      0.387400
     53 HN42       -7.1030    0.5090    2.2280 hn        1 9MX      0.390300
     54 HN4A       -6.4770   -0.6560    3.2170 hn        1 9MX      0.390300
     55 HN3         1.2040    0.4490    1.2700 hn        1 9MX      0.505800
     56 H1         -0.4830    2.0850   -0.4420 h1        1 9MX      0.067700
     57 H4         -1.5150    0.4930    1.9750 hc        1 9MX      0.089200
     58 H4A        -1.9180    2.2520    1.9000 hc        1 9MX      0.089200
     59 HN14       -1.9750   -0.6900   -0.3300 hn        1 9MX      0.345500
     60 H19         3.4390    0.5820    0.2740 ha        1 9MX      0.214000
     61 H26         5.4960   -0.7440    0.6170 ha        1 9MX      0.150000
     62 H35         6.7270   -2.8900    0.4430 ha        1 9MX      0.136000
     63 H39         6.7630   -5.3070   -0.1980 ha        1 9MX      0.124000
     64 H36         4.7530   -6.3730   -1.1850 ha        1 9MX      0.125000
     65 H31         2.6690   -5.0410   -1.5490 ha        1 9MX      0.130000
     66 H21         2.7330    5.0080    1.3230 h1        1 9MX      0.055700
     67 H28         3.2970    2.7250   -0.6880 hc        1 9MX      0.049200
     68 H28A        4.3070    4.1730   -0.2750 hc        1 9MX      0.049200
     69 H10         3.1000    4.2060   -2.5390 hc        1 9MX      0.034700
     70 H16         1.0310    3.1380   -1.9540 hc        1 9MX      0.052200
     71 H16A        0.6320    4.8420   -2.4360 hc        1 9MX      0.052200
     72 H9         -0.6240    4.1460   -0.3830 h1        1 9MX      0.035200
     73 H9A         0.4580    5.5780   -0.1210 h1        1 9MX      0.035200
     74 H29         3.9380    6.2810   -1.5460 hc        1 9MX      0.027367
     75 H29A        2.3240    6.5890   -2.3130 hc        1 9MX      0.027367
     76 H29B        2.4640    6.4490   -0.5100 hc        1 9MX      0.027367
     77 S7          0.9140   -0.1860   -0.9290 sy        1 9MX      1.515200
     78 H18         1.4570   -2.9090   -1.3810 ha        1 9MX      0.154000
@<TRIPOS>BOND
     1    1    2 1   
     2    1   18 1   
     3    1   41 1   
     4    1   42 1   
     5    2    3 1   
     6    2    4 1   
     7    2   43 1   
     8    3    5 1   
     9    3   44 1   
    10    3   45 1   
    11    4    6 1   
    12    4   46 1   
    13    4   47 1   
    14    5    7 1   
    15    5    8 1   
    16    6    7 1   
    17    6   48 1   
    18    6   49 1   
    19    7   50 1   
    20    7   51 1   
    21    8    9 2   
    22    8   10 1   
    23    9   52 1   
    24   10   53 1   
    25   10   54 1   
    26   11   12 1   
    27   11   55 1   
    28   11   77 1   
    29   12   13 1   
    30   12   15 1   
    31   12   56 1   
    32   13   14 2   
    33   13   31 1   
    34   15   16 1   
    35   15   57 1   
    36   15   58 1   
    37   16   17 2   
    38   16   18 1   
    39   18   59 1   
    40   19   77 2   
    41   20   77 2   
    42   21   22 ar  
    43   21   29 ar  
    44   21   78 1   
    45   22   23 ar  
    46   22   77 1   
    47   23   24 ar  
    48   23   60 1   
    49   24   30 ar  
    50   24   61 1   
    51   25   26 ar  
    52   25   30 ar  
    53   25   62 1   
    54   26   27 ar  
    55   26   63 1   
    56   27   28 ar  
    57   27   64 1   
    58   28   29 ar  
    59   28   65 1   
    60   29   30 ar  
    61   31   32 1   
    62   31   36 1   
    63   32   33 1   
    64   32   37 1   
    65   32   66 1   
    66   33   34 1   
    67   33   67 1   
    68   33   68 1   
    69   34   35 1   
    70   34   40 1   
    71   34   69 1   
    72   35   36 1   
    73   35   70 1   
    74   35   71 1   
    75   36   72 1   
    76   36   73 1   
    77   37   38 1   
    78   37   39 1   
    79   40   74 1   
    80   40   75 1   
    81   40   76 1   
@<TRIPOS>SUBSTRUCTURE
     1 9MX         1 TEMP              0 ****  ****    0 ROOT
