@<TRIPOS>MOLECULE
9MZ
   46    48     1     0     0
SMALL
bcc


@<TRIPOS>ATOM
      1 C2          0.4880    0.2180    0.3260 c3        1 9MZ     -0.274000
      2 C4         -0.3670   -2.1410    0.5200 c3        1 9MZ     -0.300000
      3 C5         -0.9960   -1.8030    1.7850 c1        1 9MZ     -0.036000
      4 C6         -0.8980   -0.4810    2.3070 c2        1 9MZ     -0.318000
      5 F28       -10.3890   -0.7720   10.6900 f         1 9MZ     -0.154000
      6 F30       -11.9630    0.6650   11.1450 f         1 9MZ     -0.154000
      7 F29       -10.3510    0.3230   12.5590 f         1 9MZ     -0.154000
      8 C25        -9.7530    1.6000   10.5560 c3        1 9MZ     -0.235000
      9 C26       -10.0480    1.6880    9.1160 c1        1 9MZ      0.083000
     10 C24        -9.8450    2.8650   11.3340 c2        1 9MZ     -0.099000
     11 C23        -9.7220    4.0590   10.7060 c2        1 9MZ     -0.218000
     12 C22        -9.3770    4.1170    9.3340 c1        1 9MZ     -0.067000
     13 C21        -9.8890    3.0320    8.4610 c3        1 9MZ     -0.111000
     14 N18        -9.1470    2.9200    7.2140 n         1 9MZ     -0.293000
     15 C17        -8.0890    2.0320    7.1750 c2        1 9MZ      0.298000
     16 O19        -7.8880    1.2400    8.1250 o         1 9MZ     -0.377000
     17 C16        -7.2440    1.9980    5.9140 c3        1 9MZ     -0.166000
     18 C13        -6.2520    0.8610    5.9470 c3        1 9MZ     -0.295000
     19 C14        -5.8670    0.4040    4.5320 c2        1 9MZ      0.261000
     20 O20        -6.6800    0.1020    3.6650 o         1 9MZ     -0.197000
     21 N15        -4.4460    0.3550    4.3250 n2        1 9MZ     -0.258000
     22 C11        -3.7940    0.7910    5.3830 c2        1 9MZ     -0.106000
     23 S12        -4.7100    1.2840    6.7730 ss        1 9MZ      0.327000
     24 N10        -2.3680    0.9620    5.4580 n3        1 9MZ     -0.111000
     25 N9         -1.6230    0.7480    4.3230 n3        1 9MZ     -0.135000
     26 C8         -1.6270   -0.3260    3.5360 c2        1 9MZ      0.232000
     27 C3          0.3740   -1.1300   -0.2080 c1        1 9MZ      0.004000
     28 C1         -0.1730    0.5110    1.6370 c2        1 9MZ      0.239000
     29 O1         -0.0660    1.7360    2.1720 oh        1 9MZ     -0.231000
     30 H2          0.0760    0.9190   -0.4680 hc        1 9MZ      0.199500
     31 H4         -1.1660   -2.5690   -0.1750 hc        1 9MZ      0.229500
     32 H5          0.3150   -3.0420    0.6800 hc        1 9MZ      0.229500
     33 H26       -10.9660    3.3140    8.1760 h1        1 9MZ      0.190000
     34 H24        -8.6750    1.2190   10.5790 hc        1 9MZ      0.210000
     35 H23        -9.9810    2.7730   12.4230 ha        1 9MZ      0.166000
     36 H22        -9.7840    5.0120   11.2600 ha        1 9MZ      0.177000
     37 H1         -9.1080    3.7490    6.6650 hn        1 9MZ      0.240000
     38 H161       -7.9260    1.8530    5.0260 hc        1 9MZ      0.142000
     39 H162       -6.7190    2.9830    5.7930 hc        1 9MZ      0.142000
     40 H13        -6.7030   -0.0140    6.4990 h1        1 9MZ      0.207000
     41 H9         -2.0020    0.3930    6.2240 hn        1 9MZ      0.234000
     42 H8         -2.2290   -1.2280    3.8360 h4        1 9MZ      0.237000
     43 H3          1.5960    0.4510    0.3990 hc        1 9MZ      0.199500
     44 HO1         0.4520    2.3310    1.5940 ho        1 9MZ      0.283000
     45 H102       -1.1410    1.6030    4.0590 hn        1 9MZ      0.302000
     46 C27       -10.6110    0.4690   11.2180 c3        1 9MZ      0.458000
@<TRIPOS>BOND
     1    1   27 1   
     2    1   28 1   
     3    1   30 1   
     4    1   43 1   
     5    2    3 1   
     6    2   27 1   
     7    2   31 1   
     8    2   32 1   
     9    3    4 1   
    10    4   26 1   
    11    4   28 1   
    12    5   46 1   
    13    6   46 1   
    14    7   46 1   
    15    8    9 1   
    16    8   10 1   
    17    8   34 1   
    18    8   46 1   
    19    9   13 1   
    20   10   11 1   
    21   10   35 1   
    22   11   12 1   
    23   11   36 1   
    24   12   13 1   
    25   13   14 1   
    26   13   33 1   
    27   14   15 1   
    28   14   37 1   
    29   15   16 1   
    30   15   17 1   
    31   17   18 1   
    32   17   38 1   
    33   17   39 1   
    34   18   19 1   
    35   18   23 1   
    36   18   40 1   
    37   19   20 1   
    38   19   21 1   
    39   21   22 1   
    40   22   23 1   
    41   22   24 1   
    42   24   25 1   
    43   24   41 1   
    44   25   26 1   
    45   25   45 1   
    46   26   42 1   
    47   28   29 1   
    48   29   44 1   
@<TRIPOS>SUBSTRUCTURE
     1 9MZ         1 TEMP              0 ****  ****    0 ROOT
