@<TRIPOS>MOLECULE
9MZ
   45    40     1     0     0
SMALL
bcc


@<TRIPOS>ATOM
      1 C2          6.9280   -0.9590   -4.6790 c1        1 9MZ     -0.213000
      2 C4          7.5080   -1.0960   -2.3530 c1        1 9MZ     -0.120250
      3 C5          6.1660   -1.2100   -2.0250 c1        1 9MZ     -0.090000
      4 C6          5.2040   -1.1990   -3.0240 c1        1 9MZ     -0.132000
      5 F28        -6.3260   -2.0700    3.6470 f         1 9MZ     -0.166000
      6 C27        -7.0160   -0.9500    3.8840 c3        1 9MZ      0.465000
      7 F30        -8.0070   -0.8390    2.9910 f         1 9MZ     -0.166000
      8 F29        -7.5330   -0.9960    5.1200 f         1 9MZ     -0.166000
      9 C25        -6.0820    0.2620    3.7660 c2        1 9MZ     -0.133000
     10 C26        -5.1900    0.3510    2.7020 c2        1 9MZ     -0.135000
     11 C24        -6.1240    1.2690    4.7240 c1        1 9MZ     -0.113000
     12 C23        -5.2770    2.3620    4.6190 c1        1 9MZ     -0.120250
     13 C22        -4.3830    2.4510    3.5530 c1        1 9MZ     -0.120250
     14 C21        -4.3410    1.4460    2.5960 c1        1 9MZ      0.076000
     15 N18        -3.4780    1.5790    1.4530 n2        1 9MZ     -0.323000
     16 C17        -2.0770    1.2780    1.5720 c2        1 9MZ      0.309000
     17 O19        -1.6220    0.9120    2.6380 o         1 9MZ     -0.348000
     18 C16        -1.1480    1.4390    0.3520 c3        1 9MZ     -0.170000
     19 C13        -0.3260    0.3680    0.2660 c3        1 9MZ     -0.292000
     20 C14        -0.8530   -0.6790   -1.0020 c2        1 9MZ      0.271000
     21 O20        -2.0070   -0.9040   -1.3100 o         1 9MZ     -0.280000
     22 N15         0.3710   -0.8360   -1.9130 n2        1 9MZ     -0.222000
     23 C11         1.4170   -0.1100   -1.5740 c1        1 9MZ      0.075000
     24 S12         1.1810    0.8410   -0.3320 s         1 9MZ      0.134000
     25 N10         2.7510   -0.5730   -1.8880 n3        1 9MZ     -0.223000
     26 N9          2.9460   -1.8760   -2.3600 n2        1 9MZ     -0.014000
     27 C8          4.1010   -2.2140   -2.9080 c2        1 9MZ     -0.079000
     28 C3          7.8890   -0.9710   -3.6790 c1        1 9MZ     -0.120250
     29 C1          5.5860   -1.0730   -4.3510 c1        1 9MZ      0.108000
     30 O1          4.6090   -1.0700   -5.3670 oh        1 9MZ     -0.246000
     31 H2          7.1970   -0.8700   -5.6140 ha        1 9MZ      0.142000
     32 H4          8.1830   -1.1040   -1.6510 ha        1 9MZ      0.151500
     33 H5          5.8980   -1.2990   -1.0940 ha        1 9MZ      0.144000
     34 H26        -5.1600   -0.3550    2.0300 ha        1 9MZ      0.158000
     35 H24        -6.7510    1.2060    5.4720 ha        1 9MZ      0.152000
     36 H23        -5.3060    3.0710    5.2930 ha        1 9MZ      0.151500
     37 H22        -3.7860    3.2220    3.4790 ha        1 9MZ      0.151500
     38 H1         -3.8110    1.8860    0.6650 hn        1 9MZ      0.262000
     39 H161       -0.6130    2.2540    0.4540 hc        1 9MZ      0.135500
     40 H162       -1.6870    1.5030   -0.4630 hc        1 9MZ      0.135500
     41 H13        -0.3640    0.0260    1.1830 h1        1 9MZ      0.167000
     42 H9          3.4680   -0.0170   -1.7680 hn        1 9MZ      0.233000
     43 H8          4.2370   -3.1260   -3.2390 h4        1 9MZ      0.191000
     44 H3          8.8320   -0.8900   -3.9090 ha        1 9MZ      0.151500
     45 HO1         4.7980   -0.4340   -5.9580 ho        1 9MZ      0.227000
@<TRIPOS>BOND
     1    1   29 1   
     2    1   31 1   
     3    2   28 1   
     4    2   32 1   
     5    3    4 1   
     6    3   33 1   
     7    4   27 1   
     8    5    6 1   
     9    6    7 1   
    10    6    8 1   
    11    6    9 1   
    12    9   10 1   
    13    9   11 1   
    14   10   14 1   
    15   10   34 1   
    16   11   35 1   
    17   12   13 1   
    18   12   36 1   
    19   13   37 1   
    20   15   16 1   
    21   15   38 1   
    22   16   17 1   
    23   16   18 1   
    24   18   19 1   
    25   18   39 1   
    26   18   40 1   
    27   19   20 1   
    28   19   24 1   
    29   19   41 1   
    30   20   21 1   
    31   20   22 1   
    32   22   23 1   
    33   23   25 1   
    34   25   26 1   
    35   25   42 1   
    36   26   27 1   
    37   27   43 1   
    38   28   44 1   
    39   29   30 1   
    40   30   45 1   
@<TRIPOS>SUBSTRUCTURE
     1 9MZ         1 TEMP              0 ****  ****    0 ROOT
