@<TRIPOS>MOLECULE
9MZ
   46    47     1     0     0
SMALL
bcc


@<TRIPOS>ATOM
      1 C2          0.2890   -0.1680    0.1970 c3        1 9MZ     -0.281000
      2 C4          2.0610   -0.2260    3.3540 c1        1 9MZ     -0.076000
      3 C5          0.9170   -0.2970    3.0040 c1        1 9MZ     -0.218000
      4 C6         -0.4370   -0.3830    2.6180 c2        1 9MZ     -0.142000
      5 F28       -11.7860    0.0130   10.4520 f         1 9MZ     -0.153333
      6 F30       -12.2410    1.9450   11.3550 f         1 9MZ     -0.153333
      7 F29       -11.0220    0.4980   12.4210 f         1 9MZ     -0.153333
      8 C25        -9.9300    1.6260   10.5410 c3        1 9MZ     -0.237000
      9 C26       -10.2070    2.1510    9.1950 c1        1 9MZ      0.085000
     10 C24        -9.2450    2.5460   11.4900 c2        1 9MZ     -0.097000
     11 C23        -8.5090    3.5810   11.0200 c2        1 9MZ     -0.220000
     12 C22        -8.2780    3.7260    9.6300 c1        1 9MZ     -0.073000
     13 C21        -9.3660    3.3010    8.7150 c3        1 9MZ     -0.107000
     14 N18        -8.8940    3.0680    7.3590 ns        1 9MZ     -0.302000
     15 C17        -8.4550    1.8000    7.0350 c2        1 9MZ      0.295000
     16 O19        -8.6270    0.8460    7.8250 o         1 9MZ     -0.362000
     17 C16        -7.8270    1.5830    5.6680 c3        1 9MZ     -0.169000
     18 C13        -6.3320    1.7840    5.7210 c3        1 9MZ     -0.302000
     19 C14        -5.7680    2.1280    4.3300 c2        1 9MZ      0.262000
     20 O20        -6.1590    3.0770    3.6580 o         1 9MZ     -0.200000
     21 N15        -4.7360    1.2290    3.9010 n2        1 9MZ     -0.247000
     22 C11        -4.5040    0.3010    4.8070 c2        1 9MZ     -0.094000
     23 S12        -5.4430    0.3220    6.2710 ss        1 9MZ      0.329000
     24 N10        -3.4720   -0.6950    4.7280 n7        1 9MZ     -0.130000
     25 N9         -2.6770   -0.6980    3.6020 n7        1 9MZ     -0.136000
     26 C8         -1.3600   -0.4900    3.7060 c2        1 9MZ      0.229000
     27 C3          0.9370   -1.3480   -0.3250 c1        1 9MZ      0.020000
     28 C1         -0.7480   -0.3260    1.2630 c2        1 9MZ      0.203000
     29 O1         -2.0430   -0.4540    0.8980 oh        1 9MZ     -0.247000
     30 H2         -0.1340    0.4100   -0.6820 hc        1 9MZ      0.201500
     31 H4          0.7250   -2.3280    0.1250 ha        1 9MZ      0.074000
     32 H5          3.0790   -0.1620    3.6620 ha        1 9MZ      0.256000
     33 H26       -10.1170    4.1680    8.6610 h1        1 9MZ      0.189000
     34 H24        -9.2560    0.7260   10.3310 hc        1 9MZ      0.213000
     35 H23        -9.3430    2.3200   12.5640 ha        1 9MZ      0.166000
     36 H22        -7.9890    4.2760   11.7020 ha        1 9MZ      0.175000
     37 H1         -8.5170    3.8580    6.8880 hn        1 9MZ      0.239000
     38 H161       -8.2700    2.2910    4.9110 hc        1 9MZ      0.144000
     39 H162       -8.0800    0.5370    5.3450 hc        1 9MZ      0.144000
     40 H13        -6.0720    2.6270    6.4180 h1        1 9MZ      0.182000
     41 H9         -3.8800   -1.6240    4.8430 hn        1 9MZ      0.242000
     42 H8         -0.9200   -0.4280    4.7360 h4        1 9MZ      0.219000
     43 H3          1.1450    0.4740    0.5930 hc        1 9MZ      0.201500
     44 HO1        -2.1460   -0.3090   -0.0620 ho        1 9MZ      0.283000
     45 H102       -3.1390   -0.6600    2.6980 hn        1 9MZ      0.284000
     46 C27       -11.2350    1.0350   11.1750 c3        1 9MZ      0.458000
@<TRIPOS>BOND
     1    1   27 1   
     2    1   28 1   
     3    1   30 1   
     4    1   43 1   
     5    2    3 1   
     6    2   32 1   
     7    3    4 1   
     8    4   26 1   
     9    4   28 1   
    10    5   46 1   
    11    6   46 1   
    12    7   46 1   
    13    8    9 1   
    14    8   10 1   
    15    8   34 1   
    16    8   46 1   
    17    9   13 1   
    18   10   11 1   
    19   10   35 1   
    20   11   12 1   
    21   11   36 1   
    22   12   13 1   
    23   13   14 1   
    24   13   33 1   
    25   14   15 1   
    26   14   37 1   
    27   15   16 1   
    28   15   17 1   
    29   17   18 1   
    30   17   38 1   
    31   17   39 1   
    32   18   19 1   
    33   18   23 1   
    34   18   40 1   
    35   19   20 1   
    36   19   21 1   
    37   21   22 1   
    38   22   23 1   
    39   22   24 1   
    40   24   25 1   
    41   24   41 1   
    42   25   26 1   
    43   25   45 1   
    44   26   42 1   
    45   27   31 1   
    46   28   29 1   
    47   29   44 1   
@<TRIPOS>SUBSTRUCTURE
     1 9MZ         1 TEMP              0 ****  ****    0 ROOT
