@<TRIPOS>MOLECULE
9MZ
   45    47     1     0     0
SMALL
bcc


@<TRIPOS>ATOM
      1 C2          9.0970    1.0760    0.7000 ca        1 9MZ     -0.173000
      2 C4          9.6440   -1.2010    1.2850 ca        1 9MZ     -0.176000
      3 C5          8.3220   -1.5690    1.1080 ca        1 9MZ     -0.074000
      4 C6          7.3410   -0.6300    0.7220 ca        1 9MZ     -0.237900
      5 F28        -8.3180    0.9400    1.7800 f         1 9MZ     -0.236633
      6 F30        -7.0300   -0.2130    3.0860 f         1 9MZ     -0.236633
      7 F29        -8.5980   -1.2020    1.9620 f         1 9MZ     -0.236633
      8 C25        -6.6540   -0.4610    0.6860 ca        1 9MZ     -0.138300
      9 C26        -5.3580    0.0380    0.7840 ca        1 9MZ     -0.141000
     10 C24        -7.0830   -1.1390   -0.4540 ca        1 9MZ     -0.109000
     11 C23        -6.1900   -1.3130   -1.5100 ca        1 9MZ     -0.108000
     12 C22        -4.8890   -0.8240   -1.4410 ca        1 9MZ     -0.127000
     13 C21        -4.4490   -0.1390   -0.2870 ca        1 9MZ      0.068600
     14 N18        -3.1540    0.3860   -0.1460 n         1 9MZ     -0.469100
     15 C17        -2.0840    0.2350   -1.0180 c         1 9MZ      0.669100
     16 O19        -2.1590   -0.4030   -2.0820 o         1 9MZ     -0.585100
     17 C16        -0.7990    0.9410   -0.6000 c3        1 9MZ     -0.141400
     18 C13         0.3960    0.4200   -1.3570 c3        1 9MZ     -0.114600
     19 C14         1.5070    1.4950   -1.4290 c         1 9MZ      0.693500
     20 O20         1.2900    2.6170   -1.8880 o         1 9MZ     -0.487100
     21 N15         2.7650    1.0620   -0.9310 ne        1 9MZ     -0.653100
     22 C11         2.7120   -0.1720   -0.4640 c2        1 9MZ      0.717100
     23 S12         1.1440   -1.0100   -0.5910 ss        1 9MZ     -0.264300
     24 N10         3.7230   -0.8830    0.1870 nh        1 9MZ     -0.470300
     25 N9          4.9690   -0.3870    0.2460 n2        1 9MZ     -0.452400
     26 C8          5.9830   -1.1450    0.5690 ce        1 9MZ      0.433800
     27 C3         10.0320    0.1300    1.0790 ca        1 9MZ     -0.074000
     28 C1          7.7420    0.7050    0.5180 ca        1 9MZ      0.195100
     29 O1          6.9390    1.7430    0.1450 oh        1 9MZ     -0.494100
     30 H2          9.3780    2.1270    0.5330 ha        1 9MZ      0.157000
     31 H4         10.3920   -1.9490    1.5860 ha        1 9MZ      0.138000
     32 H5          8.0240   -2.6170    1.2720 ha        1 9MZ      0.129000
     33 H26        -5.0560    0.5630    1.7050 ha        1 9MZ      0.148000
     34 H24        -8.1090   -1.5320   -0.5130 ha        1 9MZ      0.154000
     35 H23        -6.5170   -1.8470   -2.4170 ha        1 9MZ      0.147000
     36 H22        -4.2110   -0.9790   -2.2970 ha        1 9MZ      0.180000
     37 H1         -2.9910    0.9040    0.6890 hn        1 9MZ      0.322500
     38 H161       -0.9270    2.0370   -0.8360 hc        1 9MZ      0.094700
     39 H162       -0.6270    0.8410    0.5050 hc        1 9MZ      0.094700
     40 H13         0.0990    0.1440   -2.4060 h1        1 9MZ      0.150700
     41 H9          3.5870   -1.8830    0.1730 hn        1 9MZ      0.426800
     42 H8          5.8950   -2.2400    0.7630 h4        1 9MZ     -0.006200
     43 H3         11.0840    0.4220    1.2200 ha        1 9MZ      0.139000
     44 HO1         6.0240    1.4450    0.0180 ho        1 9MZ      0.462000
     45 C27        -7.6210   -0.2430    1.8450 c3        1 9MZ      0.686200
@<TRIPOS>BOND
     1    1   27 ar  
     2    1   28 ar  
     3    1   30 1   
     4    2    3 ar  
     5    2   27 ar  
     6    2   31 1   
     7    3    4 ar  
     8    3   32 1   
     9    4   26 1   
    10    4   28 ar  
    11    5   45 1   
    12    6   45 1   
    13    7   45 1   
    14    8    9 ar  
    15    8   10 ar  
    16    8   45 1   
    17    9   13 ar  
    18    9   33 1   
    19   10   11 ar  
    20   10   34 1   
    21   11   12 ar  
    22   11   35 1   
    23   12   13 ar  
    24   12   36 1   
    25   13   14 1   
    26   14   15 1   
    27   14   37 1   
    28   15   16 2   
    29   15   17 1   
    30   17   18 1   
    31   17   38 1   
    32   17   39 1   
    33   18   19 1   
    34   18   23 1   
    35   18   40 1   
    36   19   20 2   
    37   19   21 1   
    38   21   22 2   
    39   22   23 1   
    40   22   24 1   
    41   24   25 1   
    42   24   41 1   
    43   25   26 2   
    44   26   42 1   
    45   27   43 1   
    46   28   29 1   
    47   29   44 1   
@<TRIPOS>SUBSTRUCTURE
     1 9MZ         1 TEMP              0 ****  ****    0 ROOT
