@<TRIPOS>MOLECULE
9MZ
   47    48     1     0     0
SMALL
bcc


@<TRIPOS>ATOM
      1 C2        260.2220 -164.2320 -324.4810 c3        1 9MZ     -0.291000
      2 C4        256.7910 -164.5680 -323.3840 c1        1 9MZ     -0.059000
      3 C5        257.6600 -165.3090 -323.7440 c1        1 9MZ     -0.233000
      4 C6        258.6550 -166.2140 -324.1690 c2        1 9MZ     -0.110000
      5 F28      -157.0700   93.5060  195.8520 f         1 9MZ     -0.140333
      6 F30      -159.1100   93.2450  195.1110 f         1 9MZ     -0.140333
      7 F29      -158.7490   94.3630  196.9420 f         1 9MZ     -0.140333
      8 C25      -158.1480   95.4920  194.8530 c3        1 9MZ     -0.220000
      9 C26      -157.6220   95.2060  193.5260 c1        1 9MZ      0.056000
     10 C24      -157.3730   96.5170  195.6100 c2        1 9MZ     -0.111000
     11 C23      -156.5800   97.4130  195.0140 c2        1 9MZ     -0.195000
     12 C22      -156.4600   97.5320  193.5420 c3        1 9MZ      0.028000
     13 C21      -157.0360   96.3160  192.7470 c3        1 9MZ     -0.103000
     14 N18      -155.8720   95.8640  191.9570 n3        1 9MZ     -0.203000
     15 C17      -154.7810   96.5670  192.2570 c2        1 9MZ      0.285000
     16 O19      -155.0240   97.5510  193.1630 os        1 9MZ     -0.155000
     17 C16      -153.3850   96.4740  191.7300 c3        1 9MZ     -0.115000
     18 C13      -152.9320   95.0610  191.4630 c3        1 9MZ     -0.365000
     19 C14      -153.4390   94.5080  190.0990 c2        1 9MZ      0.262000
     20 O20      -154.6420   94.4270  189.8460 o         1 9MZ     -0.269000
     21 N15      -152.3760   94.1180  189.2290 n2        1 9MZ     -0.148000
     22 C11      -151.2140   94.3180  189.7760 c2        1 9MZ     -0.141000
     23 S12      -151.1470   94.9850  191.3680 ss        1 9MZ      0.283000
     24 N10       259.8100 -169.3840 -324.5040 n2        1 9MZ      0.031000
     25 N9        258.9420 -168.5960 -324.7880 n2        1 9MZ     -0.072000
     26 C8        258.3130 -167.5770 -324.1430 c2        1 9MZ      0.180000
     27 C3        260.6390 -163.6940 -323.2070 c1        1 9MZ      0.033000
     28 C1        259.8980 -165.6870 -324.5760 c2        1 9MZ      0.244000
     29 O1        260.8280 -166.5480 -325.0130 oh        1 9MZ     -0.203000
     30 H2        261.0070 -163.9460 -325.2480 hc        1 9MZ      0.207000
     31 H4        260.6300 -164.3300 -322.3120 ha        1 9MZ      0.081000
     32 H5        256.0200 -163.9040 -323.0610 ha        1 9MZ      0.259000
     33 H26      -157.8520   96.6590  192.0300 h1        1 9MZ      0.203000
     34 H24      -159.2250   95.8520  194.7280 hc        1 9MZ      0.215000
     35 H23      -157.4900   96.4880  196.7100 ha        1 9MZ      0.192000
     36 H22      -155.9920   98.1470  195.5920 ha        1 9MZ      0.188000
     37 H1       -156.8600   98.5170  193.1740 h1        1 9MZ      0.174000
     38 H161     -153.3430   97.0970  190.7880 hc        1 9MZ      0.177000
     39 H162     -152.7040   96.9640  192.4870 hc        1 9MZ      0.177000
     40 H13      -153.2720   94.3610  192.2710 h1        1 9MZ      0.176000
     41 H9       -150.2800   94.0640  189.2440 h5        1 9MZ      0.229000
     42 H8        257.3090 -167.8610 -323.7350 h4        1 9MZ      0.220000
     43 H3        259.2960 -163.6210 -324.7550 hc        1 9MZ      0.207000
     44 HO1       261.6450 -166.0770 -325.2780 ho        1 9MZ      0.287000
     45 H182     -155.9270   95.0650  191.3410 hn        1 9MZ      0.345000
     46 H102      260.0080 -170.0490 -325.2570 hn        1 9MZ      0.218000
     47 C27      -158.2630   94.1520  195.6790 c3        1 9MZ      0.459000
@<TRIPOS>BOND
     1    1   27 1   
     2    1   28 1   
     3    1   30 1   
     4    1   43 1   
     5    2    3 1   
     6    2   32 1   
     7    3    4 1   
     8    4   26 1   
     9    4   28 1   
    10    5   47 1   
    11    6   47 1   
    12    7   47 1   
    13    8    9 1   
    14    8   10 1   
    15    8   34 1   
    16    8   47 1   
    17    9   13 1   
    18   10   11 1   
    19   10   35 1   
    20   11   12 1   
    21   11   36 1   
    22   12   13 1   
    23   12   16 1   
    24   12   37 1   
    25   13   14 1   
    26   13   33 1   
    27   14   15 1   
    28   14   45 1   
    29   15   16 1   
    30   15   17 1   
    31   17   18 1   
    32   17   38 1   
    33   17   39 1   
    34   18   19 1   
    35   18   23 1   
    36   18   40 1   
    37   19   20 1   
    38   19   21 1   
    39   21   22 1   
    40   22   23 1   
    41   22   41 1   
    42   24   25 1   
    43   24   46 1   
    44   25   26 1   
    45   26   42 1   
    46   27   31 1   
    47   28   29 1   
    48   29   44 1   
@<TRIPOS>SUBSTRUCTURE
     1 9MZ         1 TEMP              0 ****  ****    0 ROOT
