@<TRIPOS>MOLECULE
9NE
   44    45     1     0     0
SMALL
bcc


@<TRIPOS>ATOM
      1 N          -1.7160   -0.1320   -0.2080 n3        1 9NE     -0.904100
      2 CA         -2.5590   -0.3060    0.9670 c3        1 9NE      0.099500
      3 C          -1.8710   -1.2680    1.9930 c         1 9NE      0.894600
      4 O          -1.6730   -2.4700    1.6740 o         1 9NE     -0.845300
      5 CB         -3.9550   -0.8450    0.6310 c3        1 9NE     -0.055400
      6 CG         -4.7500    0.0530   -0.2850 c3        1 9NE     -0.188400
      7 CD         -6.1990   -0.4290   -0.4530 c         1 9NE      0.906600
      8 OE1        -6.5420   -0.9310   -1.5660 o         1 9NE     -0.869800
      9 OE2        -7.0130   -0.2760    0.5050 o         1 9NE     -0.869800
     10 OXT        -1.5000   -0.7530    3.0910 o         1 9NE     -0.845300
     11 S1         -0.8140    1.1210   -0.5100 sy        1 9NE      1.501200
     12 O2         -0.7070    1.3260   -1.9150 o         1 9NE     -0.683300
     13 O3         -1.1800    2.2960    0.1950 o         1 9NE     -0.683300
     14 C1          0.7550    0.6830    0.1090 ca        1 9NE     -0.328500
     15 C2          0.7660    0.5210    1.4820 ca        1 9NE      0.000000
     16 C3          1.9530    0.2180    2.1860 ca        1 9NE     -0.136000
     17 C4          3.1290    0.0510    1.5050 ca        1 9NE     -0.094000
     18 C5          3.1700    0.1750    0.0870 ca        1 9NE     -0.058000
     19 C6          1.9760    0.5130   -0.6130 ca        1 9NE      0.070000
     20 C7          2.0520    0.6760   -2.0270 ca        1 9NE     -0.135000
     21 C8          3.2340    0.5060   -2.6990 ca        1 9NE     -0.136000
     22 C9          4.4110    0.1400   -2.0180 ca        1 9NE     -0.193000
     23 C10         4.3970   -0.0350   -0.6410 ca        1 9NE      0.108600
     24 N1          5.5830   -0.3930    0.0830 nh        1 9NE     -0.635000
     25 C11         5.6140   -1.7790    0.4970 c3        1 9NE      0.169100
     26 C12         6.8210    0.0470   -0.5120 c3        1 9NE      0.169100
     27 H          -1.6970   -0.9600   -0.7580 hn        1 9NE      0.464800
     28 H111        5.8840   -2.4810   -0.3390 h1        1 9NE      0.028200
     29 H112        6.3800   -1.8840    1.3100 h1        1 9NE      0.028200
     30 H113        4.6080   -2.0720    0.8990 h1        1 9NE      0.028200
     31 H121        6.7190    1.1130   -0.8410 h1        1 9NE      0.028200
     32 H122        7.6230   -0.0200    0.2700 h1        1 9NE      0.028200
     33 H123        7.1440   -0.5720   -1.3950 h1        1 9NE      0.028200
     34 H2         -0.1750    0.5940    2.0800 ha        1 9NE      0.214000
     35 H3          1.9010    0.1000    3.2790 ha        1 9NE      0.142000
     36 H4          4.0510   -0.1760    2.0620 ha        1 9NE      0.126000
     37 H7          1.1480    0.9460   -2.6020 ha        1 9NE      0.189000
     38 H8          3.2750    0.6420   -3.7890 ha        1 9NE      0.116000
     39 H9          5.3300   -0.0070   -2.6040 ha        1 9NE      0.111000
     40 HA         -2.6720    0.7080    1.4550 h1        1 9NE      0.057700
     41 HB1C       -3.8590   -1.8680    0.1820 hc        1 9NE      0.055700
     42 HB2C       -4.5030   -0.9570    1.6050 hc        1 9NE      0.055700
     43 HG1C       -4.7750    1.0920    0.1340 hc        1 9NE      0.018200
     44 HG2C       -4.2710    0.0980   -1.2960 hc        1 9NE      0.018200
@<TRIPOS>BOND
     1    1    2 1   
     2    1   11 1   
     3    1   27 1   
     4    2    3 1   
     5    2    5 1   
     6    2   40 1   
     7    3    4 1   
     8    3   10 1   
     9    5    6 1   
    10    5   41 1   
    11    5   42 1   
    12    6    7 1   
    13    6   43 1   
    14    6   44 1   
    15    7    8 1   
    16    7    9 1   
    17   11   12 2   
    18   11   13 2   
    19   11   14 1   
    20   14   15 ar  
    21   14   19 ar  
    22   15   16 ar  
    23   15   34 1   
    24   16   17 ar  
    25   16   35 1   
    26   17   18 ar  
    27   17   36 1   
    28   18   19 ar  
    29   18   23 ar  
    30   19   20 ar  
    31   20   21 ar  
    32   20   37 1   
    33   21   22 ar  
    34   21   38 1   
    35   22   23 ar  
    36   22   39 1   
    37   23   24 1   
    38   24   25 1   
    39   24   26 1   
    40   25   28 1   
    41   25   29 1   
    42   25   30 1   
    43   26   31 1   
    44   26   32 1   
    45   26   33 1   
@<TRIPOS>SUBSTRUCTURE
     1 9NE         1 TEMP              0 ****  ****    0 ROOT
