@<TRIPOS>MOLECULE
9NF
   49    51     1     0     0
SMALL
bcc


@<TRIPOS>ATOM
      1 N           1.1790    0.4290   -0.3190 n3        1 9NF     -0.898100
      2 CA          1.9240    1.3960    0.4560 c3        1 9NF      0.091500
      3 C           1.1030    2.7270    0.6790 c         1 9NF      0.909600
      4 CB          3.2430    1.8260   -0.2050 c3        1 9NF     -0.044100
      5 CG          4.2870    0.7690   -0.2420 ca        1 9NF     -0.058300
      6 CD1         4.7210    0.2340   -1.4610 ca        1 9NF     -0.125500
      7 CD2         4.8760    0.3150    0.9460 ca        1 9NF     -0.125500
      8 CE1         5.7250   -0.7320   -1.4930 ca        1 9NF     -0.134000
      9 CE2         5.8790   -0.6500    0.9130 ca        1 9NF     -0.134000
     10 CZ          6.3080   -1.1750   -0.3070 ca        1 9NF     -0.150000
     11 O           0.3180    3.0940   -0.2360 o         1 9NF     -0.821800
     12 OXT         1.3170    3.3290    1.7620 o         1 9NF     -0.821800
     13 S1          0.8350   -1.0490    0.1380 sy        1 9NF      1.494200
     14 O2          0.8470   -1.9350   -0.9730 o         1 9NF     -0.675300
     15 O3          1.6140   -1.4950    1.2380 o         1 9NF     -0.675300
     16 N1         -5.6350   -0.1400    0.1400 nh        1 9NF     -0.640000
     17 C1         -0.7920   -0.9300    0.6980 ca        1 9NF     -0.329500
     18 C2         -0.9820   -0.9730    2.0640 ca        1 9NF     -0.003000
     19 C3         -2.2660   -0.8540    2.6330 ca        1 9NF     -0.167000
     20 C4         -3.3590   -0.6540    1.8260 ca        1 9NF     -0.059000
     21 C5         -3.2160   -0.5810    0.4130 ca        1 9NF     -0.052000
     22 C6         -1.9230   -0.7550   -0.1540 ca        1 9NF      0.074000
     23 C7         -1.7900   -0.7560   -1.5720 ca        1 9NF     -0.143000
     24 C8         -2.8820   -0.5710   -2.3780 ca        1 9NF     -0.103000
     25 C9         -4.1610   -0.3500   -1.8270 ca        1 9NF     -0.184000
     26 C10        -4.3470   -0.3420   -0.4510 ca        1 9NF      0.124600
     27 C11        -5.8080    1.1730    0.7270 c3        1 9NF      0.166100
     28 C12        -6.7550   -0.5470   -0.6740 c3        1 9NF      0.166100
     29 H           0.6730    0.8950   -1.0450 hn        1 9NF      0.469800
     30 HA          2.1560    0.9500    1.4660 h1        1 9NF      0.061700
     31 HB1C        3.0310    2.2030   -1.2400 hc        1 9NF      0.063200
     32 HB2C        3.6240    2.6950    0.4010 hc        1 9NF      0.063200
     33 HD1         4.2580    0.5750   -2.3990 ha        1 9NF      0.135000
     34 HD2         4.5280    0.7210    1.9090 ha        1 9NF      0.135000
     35 HE1         6.0530   -1.1490   -2.4550 ha        1 9NF      0.116500
     36 HE2         6.3270   -1.0060    1.8520 ha        1 9NF      0.116500
     37 HZ          7.0960   -1.9400   -0.3310 ha        1 9NF      0.113000
     38 H111       -6.0270    1.9680   -0.0380 h1        1 9NF      0.033867
     39 H112       -6.6680    1.1220    1.4450 h1        1 9NF      0.033867
     40 H113       -4.8780    1.4630    1.2850 h1        1 9NF      0.033867
     41 H121       -6.5510   -1.5570   -1.1150 h1        1 9NF      0.033867
     42 H122       -7.6570   -0.6140   -0.0080 h1        1 9NF      0.033867
     43 H123       -6.9890    0.1700   -1.5090 h1        1 9NF      0.033867
     44 H2         -0.1130   -1.1020    2.7370 ha        1 9NF      0.163000
     45 H3         -2.3760   -0.9090    3.7260 ha        1 9NF      0.129000
     46 H4         -4.3570   -0.5570    2.2800 ha        1 9NF      0.137000
     47 H7         -0.8000   -0.9320   -2.0260 ha        1 9NF      0.161000
     48 H8         -2.7730   -0.5780   -3.4730 ha        1 9NF      0.127000
     49 H9         -5.0010   -0.1760   -2.5160 ha        1 9NF      0.123000
@<TRIPOS>BOND
     1    1    2 1   
     2    1   13 1   
     3    1   29 1   
     4    2    3 1   
     5    2    4 1   
     6    2   30 1   
     7    3   11 1   
     8    3   12 1   
     9    4    5 1   
    10    4   31 1   
    11    4   32 1   
    12    5    6 ar  
    13    5    7 ar  
    14    6    8 ar  
    15    6   33 1   
    16    7    9 ar  
    17    7   34 1   
    18    8   10 ar  
    19    8   35 1   
    20    9   10 ar  
    21    9   36 1   
    22   10   37 1   
    23   13   14 2   
    24   13   15 2   
    25   13   17 1   
    26   16   26 1   
    27   16   27 1   
    28   16   28 1   
    29   17   18 ar  
    30   17   22 ar  
    31   18   19 ar  
    32   18   44 1   
    33   19   20 ar  
    34   19   45 1   
    35   20   21 ar  
    36   20   46 1   
    37   21   22 ar  
    38   21   26 ar  
    39   22   23 ar  
    40   23   24 ar  
    41   23   47 1   
    42   24   25 ar  
    43   24   48 1   
    44   25   26 ar  
    45   25   49 1   
    46   27   38 1   
    47   27   39 1   
    48   27   40 1   
    49   28   41 1   
    50   28   42 1   
    51   28   43 1   
@<TRIPOS>SUBSTRUCTURE
     1 9NF         1 TEMP              0 ****  ****    0 ROOT
