@<TRIPOS>MOLECULE
9NH
   74    78     1     0     0
SMALL
bcc


@<TRIPOS>ATOM
      1 C1        -11.2570    2.6430    2.1740 c3        1 9NH      0.159300
      2 C2         -8.1530    0.9050   -0.3690 ca        1 9NH     -0.162000
      3 C3        -12.5260    0.6100    1.8620 c3        1 9NH      0.159300
      4 N6          0.0850    0.7590   -1.2810 n         1 9NH     -0.476100
      5 C7          6.6380   -0.0180    2.8200 ca        1 9NH     -0.116000
      6 C8          7.7120   -0.4450    3.5940 ca        1 9NH     -0.119000
      7 C9          8.9620   -0.6730    3.0260 ca        1 9NH     -0.096000
      8 C10         9.1450   -0.4730    1.6590 ca        1 9NH     -0.176300
      9 C11         8.0750   -0.0400    0.8560 ca        1 9NH      0.107900
     10 C12         2.2810    0.8880   -0.1880 ca        1 9NH     -0.098000
     11 C13         1.3920    1.2660   -1.2180 ca        1 9NH      0.068600
     12 C14        10.5110   -0.7220    1.0280 c3        1 9NH      0.695200
     13 C15         1.8270    2.2130   -2.1870 ca        1 9NH     -0.105300
     14 C16         0.9400    2.6540   -3.2910 c3        1 9NH     -0.059800
     15 C19        -2.1940   -1.9620   -1.6590 ca        1 9NH      0.738600
     16 C20        -4.4310   -1.3810   -1.3450 ca        1 9NH      0.923900
     17 C21        -1.5510   -4.0160   -2.7280 c3        1 9NH      0.123700
     18 C22         3.1150    2.7460   -2.0950 ca        1 9NH     -0.110000
     19 C24         3.5660    1.4280   -0.1360 ca        1 9NH     -0.129600
     20 C30        -8.8420   -1.2610    0.4570 ca        1 9NH     -0.162000
     21 C31        -6.8380   -1.0640   -0.9090 ca        1 9NH      0.088600
     22 C23         3.9900    2.3600   -1.0850 ca        1 9NH     -0.130000
     23 C25         4.4590    1.0070    0.9840 c         1 9NH      0.690700
     24 N3          5.7440    0.6250    0.6030 n         1 9NH     -0.469100
     25 C26         6.7850    0.1980    1.4340 ca        1 9NH      0.050600
     26 F1         11.4800   -1.1390    1.9080 f         1 9NH     -0.233300
     27 F3         10.5140   -1.6850    0.0490 f         1 9NH     -0.233300
     28 F2         11.0630    0.3810    0.4230 f         1 9NH     -0.233300
     29 N1         -4.1100   -0.1870   -0.6990 nb        1 9NH     -0.756000
     30 C17        -2.8070    0.0770   -0.5540 ca        1 9NH      0.510200
     31 C18        -1.7750   -0.7650   -1.0090 ca        1 9NH     -0.470200
     32 N4         -3.4960   -2.2930   -1.8260 nb        1 9NH     -0.828000
     33 N7         -5.7720   -1.6880   -1.6020 nh        1 9NH     -0.701300
     34 O2          4.0730    0.9970    2.1650 o         1 9NH     -0.574100
     35 O3         -1.1910   -2.7650   -2.1330 os        1 9NH     -0.424100
     36 C28        -7.0620    0.3240   -0.9990 ca        1 9NH     -0.103000
     37 C29        -9.0740    0.1300    0.3750 ca        1 9NH      0.141600
     38 C5         -7.7500   -1.8450   -0.1710 ca        1 9NH     -0.103000
     39 N2        -12.2740    1.7590    2.7070 n3        1 9NH     -0.820200
     40 C4        -11.2360   -0.1420    1.4710 c3        1 9NH      0.185300
     41 N5        -10.2230    0.7480    0.9280 nh        1 9NH     -0.637000
     42 C6         -9.9630    1.8990    1.7820 c3        1 9NH      0.185300
     43 H11       -11.6210    3.2200    1.2740 h1        1 9NH      0.037200
     44 H12       -10.9950    3.3850    2.9780 h1        1 9NH      0.037200
     45 H21        -8.2980    1.9920   -0.4750 ha        1 9NH      0.139000
     46 H31       -13.1760   -0.1040    2.4410 h1        1 9NH      0.037200
     47 H32       -13.0750    0.8870    0.9140 h1        1 9NH      0.037200
     48 H61N       -0.5360    1.2260   -1.9030 hn        1 9NH      0.320500
     49 H71         5.6610    0.1500    3.3070 ha        1 9NH      0.187000
     50 H81         7.5670   -0.6040    4.6740 ha        1 9NH      0.149000
     51 H91         9.8060   -1.0110    3.6480 ha        1 9NH      0.158000
     52 H121        1.9710    0.1640    0.5870 ha        1 9NH      0.186000
     53 H161        0.0440    3.1900   -2.8890 hc        1 9NH      0.047700
     54 H162        1.4760    3.3530   -3.9800 hc        1 9NH      0.047700
     55 H163        0.5920    1.7770   -3.8930 hc        1 9NH      0.047700
     56 H211       -0.5550   -4.4590   -2.9850 h1        1 9NH      0.056367
     57 H212       -2.0970   -4.6560   -1.9960 h1        1 9NH      0.056367
     58 H213       -2.1650   -3.8490   -3.6460 h1        1 9NH      0.056367
     59 H221        3.4450    3.4860   -2.8420 ha        1 9NH      0.139000
     60 H301       -9.5210   -1.9130    1.0270 ha        1 9NH      0.139000
     61 H231        4.9960    2.8020   -1.0340 ha        1 9NH      0.140000
     62 H31N        5.9550    0.6550   -0.3730 hn        1 9NH      0.333500
     63 H171       -2.5710    1.0220   -0.0260 h4        1 9NH      0.038100
     64 H71N       -5.9520   -2.6320   -1.8830 hn        1 9NH      0.445800
     65 H281       -6.3730    0.9640   -1.5720 ha        1 9NH      0.142000
     66 H51        -7.6070   -2.9330   -0.0800 ha        1 9NH      0.142000
     67 H21N      -13.1250    2.2660    2.8630 hn        1 9NH      0.366800
     68 H41       -10.8570   -0.6990    2.3770 h1        1 9NH      0.045450
     69 H42       -11.5050   -0.8950    0.6780 h1        1 9NH      0.045450
     70 H61        -9.3070    2.6240    1.2260 h1        1 9NH      0.045450
     71 H62        -9.4240    1.5900    2.7240 h1        1 9NH      0.045450
     72 C27        -0.3470   -0.4620   -0.7590 c         1 9NH      0.713700
     73 F4          8.2680    0.1500   -0.4730 f         1 9NH     -0.130900
     74 O1          0.3940   -1.2190   -0.1130 o         1 9NH     -0.559100
@<TRIPOS>BOND
     1    1   39 1   
     2    1   42 1   
     3    1   43 1   
     4    1   44 1   
     5    2   36 ar  
     6    2   37 ar  
     7    2   45 1   
     8    3   39 1   
     9    3   40 1   
    10    3   46 1   
    11    3   47 1   
    12    4   11 1   
    13    4   48 1   
    14    4   72 1   
    15    5    6 ar  
    16    5   25 ar  
    17    5   49 1   
    18    6    7 ar  
    19    6   50 1   
    20    7    8 ar  
    21    7   51 1   
    22    8    9 ar  
    23    8   12 1   
    24    9   25 ar  
    25    9   73 1   
    26   10   11 ar  
    27   10   19 ar  
    28   10   52 1   
    29   11   13 ar  
    30   12   26 1   
    31   12   27 1   
    32   12   28 1   
    33   13   14 1   
    34   13   18 ar  
    35   14   53 1   
    36   14   54 1   
    37   14   55 1   
    38   15   31 ar  
    39   15   32 ar  
    40   15   35 1   
    41   16   29 ar  
    42   16   32 ar  
    43   16   33 1   
    44   17   35 1   
    45   17   56 1   
    46   17   57 1   
    47   17   58 1   
    48   18   22 ar  
    49   18   59 1   
    50   19   22 ar  
    51   19   23 1   
    52   20   37 ar  
    53   20   38 ar  
    54   20   60 1   
    55   21   33 1   
    56   21   36 ar  
    57   21   38 ar  
    58   22   61 1   
    59   23   24 1   
    60   23   34 2   
    61   24   25 1   
    62   24   62 1   
    63   29   30 ar  
    64   30   31 ar  
    65   30   63 1   
    66   31   72 1   
    67   33   64 1   
    68   36   65 1   
    69   37   41 1   
    70   38   66 1   
    71   39   67 1   
    72   40   41 1   
    73   40   68 1   
    74   40   69 1   
    75   41   42 1   
    76   42   70 1   
    77   42   71 1   
    78   72   74 2   
@<TRIPOS>SUBSTRUCTURE
     1 9NH         1 TEMP              0 ****  ****    0 ROOT
