@<TRIPOS>MOLECULE
9NH
   74    78     1     0     0
SMALL
bcc


@<TRIPOS>ATOM
      1 C1          1.3350   -0.8540   -0.6620 c3        1 9NH      0.159300
      2 C2         -1.5460   -2.2630    2.3110 ca        1 9NH     -0.162000
      3 C3          2.9820   -0.7680    1.1050 c3        1 9NH      0.159300
      4 N6         -8.0760   -7.3130    3.0530 n         1 9NH     -0.476100
      5 C7        -10.5010  -14.4410    1.1370 ca        1 9NH     -0.116000
      6 C8        -10.7200  -15.8070    0.9930 ca        1 9NH     -0.119000
      7 C9        -11.8470  -16.4170    1.5350 ca        1 9NH     -0.096000
      8 C10       -12.7750  -15.6490    2.2360 ca        1 9NH     -0.176300
      9 C11       -12.5780  -14.2660    2.3940 ca        1 9NH      0.107900
     10 C12        -9.1990   -9.3570    2.2830 ca        1 9NH     -0.098000
     11 C13        -9.2300   -7.9880    2.6270 ca        1 9NH      0.068600
     12 C14       -14.0130  -16.3080    2.8350 c3        1 9NH      0.695200
     13 C15       -10.4550   -7.2760    2.4990 ca        1 9NH     -0.105300
     14 C16       -10.5530   -5.8370    2.8410 c3        1 9NH     -0.059800
     15 C19        -5.4220   -6.8310    5.3920 ca        1 9NH      0.738600
     16 C20        -3.8440   -5.2480    4.7270 ca        1 9NH      0.923900
     17 C21        -5.5800   -7.5930    7.6660 c3        1 9NH      0.123700
     18 C22       -11.5910   -7.9430    2.0350 ca        1 9NH     -0.110000
     19 C24       -10.3560   -9.9960    1.8390 ca        1 9NH     -0.129600
     20 C30         0.3130   -3.2860    3.4690 ca        1 9NH     -0.162000
     21 C31        -1.9650   -3.7430    4.1900 ca        1 9NH      0.088600
     22 C23       -11.5570   -9.2950    1.7100 ca        1 9NH     -0.130000
     23 C25       -10.2640  -11.4410    1.4710 c         1 9NH      0.690700
     24 N3        -11.2550  -12.2540    2.0170 n         1 9NH     -0.469100
     25 C26       -11.4190  -13.6310    1.8370 ca        1 9NH      0.050600
     26 F1        -14.1020  -17.6620    2.6170 f         1 9NH     -0.233300
     27 F3        -14.1160  -16.1850    4.1990 f         1 9NH     -0.233300
     28 F2        -15.2030  -15.8160    2.3580 f         1 9NH     -0.233300
     29 N1         -4.2560   -5.2830    3.3950 nb        1 9NH     -0.756000
     30 C17        -5.2620   -6.1160    3.1080 ca        1 9NH      0.510200
     31 C18        -5.9070   -6.9330    4.0560 ca        1 9NH     -0.470200
     32 N4         -4.4000   -6.0170    5.7460 nb        1 9NH     -0.828000
     33 N7         -2.8500   -4.3440    5.1190 nh        1 9NH     -0.701300
     34 O2         -9.3600  -11.8760    0.7370 o         1 9NH     -0.574100
     35 O3         -6.0710   -7.5990    6.3220 os        1 9NH     -0.424100
     36 C28        -2.4350   -2.8970    3.1670 ca        1 9NH     -0.103000
     37 C29        -0.1480   -2.4370    2.4380 ca        1 9NH      0.141600
     38 C5         -0.5740   -3.9240    4.3250 ca        1 9NH     -0.103000
     39 N2          2.7420   -0.8940   -0.3180 n3        1 9NH     -0.820200
     40 C4          2.1410   -1.7540    1.9440 c3        1 9NH      0.185800
     41 N5          0.7290   -1.7040    1.6020 nh        1 9NH     -0.637000
     42 C6          0.4870   -1.8370    0.1720 c3        1 9NH      0.185800
     43 H11         1.2390   -1.1510   -1.7440 h1        1 9NH      0.037200
     44 H12         0.8950    0.1800   -0.5460 h1        1 9NH      0.037200
     45 H21        -1.9550   -1.5990    1.5320 ha        1 9NH      0.139000
     46 H31         2.7830    0.2770    1.4820 h1        1 9NH      0.037200
     47 H32         4.0680   -1.0020    1.2900 h1        1 9NH      0.037200
     48 H61N       -8.1330   -6.3190    3.0740 hn        1 9NH      0.320500
     49 H71        -9.5930  -13.9940    0.6940 ha        1 9NH      0.187000
     50 H81        -9.9850  -16.4130    0.4400 ha        1 9NH      0.149000
     51 H91       -12.0110  -17.5000    1.4150 ha        1 9NH      0.158000
     52 H121       -8.2610   -9.9370    2.3600 ha        1 9NH      0.186000
     53 H161       -9.9040   -5.2240    2.1650 hc        1 9NH      0.047700
     54 H162      -10.2350   -5.6580    3.8990 hc        1 9NH      0.047700
     55 H163      -11.6030   -5.4690    2.7320 hc        1 9NH      0.047700
     56 H211       -5.6680   -6.5730    8.1090 h1        1 9NH      0.056367
     57 H212       -4.5240   -7.9500    7.6990 h1        1 9NH      0.056367
     58 H213       -6.2650   -8.3160    8.1780 h1        1 9NH      0.056367
     59 H221      -12.5360   -7.3860    1.9290 ha        1 9NH      0.139000
     60 H301        1.3900   -3.4660    3.6110 ha        1 9NH      0.139000
     61 H231      -12.4650   -9.7930    1.3410 ha        1 9NH      0.140000
     62 H31N      -11.9290  -11.8120    2.6070 hn        1 9NH      0.333500
     63 H171       -5.5660   -6.1420    2.0430 h4        1 9NH      0.038100
     64 H71N       -2.4600   -4.4980    6.0270 hn        1 9NH      0.445800
     65 H281       -3.5150   -2.7280    3.0350 ha        1 9NH      0.142000
     66 H51        -0.1700   -4.5780    5.1140 ha        1 9NH      0.142000
     67 H21N        3.2400   -0.1790   -0.8160 hn        1 9NH      0.366800
     68 H41         2.5640   -2.7920    1.8080 h1        1 9NH      0.045450
     69 H42         2.2520   -1.4640    3.0260 h1        1 9NH      0.045450
     70 H61         0.7040   -2.8880   -0.1780 h1        1 9NH      0.045450
     71 H62        -0.5960   -1.6170   -0.0370 h1        1 9NH      0.045450
     72 C27        -6.9670   -7.8930    3.6730 c         1 9NH      0.713700
     73 F4        -13.4900  -13.5320    3.0790 f         1 9NH     -0.130900
     74 O1         -6.8640   -9.1150    3.8630 o         1 9NH     -0.559100
@<TRIPOS>BOND
     1    1   39 1   
     2    1   42 1   
     3    1   43 1   
     4    1   44 1   
     5    2   36 ar  
     6    2   37 ar  
     7    2   45 1   
     8    3   39 1   
     9    3   40 1   
    10    3   46 1   
    11    3   47 1   
    12    4   11 1   
    13    4   48 1   
    14    4   72 1   
    15    5    6 ar  
    16    5   25 ar  
    17    5   49 1   
    18    6    7 ar  
    19    6   50 1   
    20    7    8 ar  
    21    7   51 1   
    22    8    9 ar  
    23    8   12 1   
    24    9   25 ar  
    25    9   73 1   
    26   10   11 ar  
    27   10   19 ar  
    28   10   52 1   
    29   11   13 ar  
    30   12   26 1   
    31   12   27 1   
    32   12   28 1   
    33   13   14 1   
    34   13   18 ar  
    35   14   53 1   
    36   14   54 1   
    37   14   55 1   
    38   15   31 ar  
    39   15   32 ar  
    40   15   35 1   
    41   16   29 ar  
    42   16   32 ar  
    43   16   33 1   
    44   17   35 1   
    45   17   56 1   
    46   17   57 1   
    47   17   58 1   
    48   18   22 ar  
    49   18   59 1   
    50   19   22 ar  
    51   19   23 1   
    52   20   37 ar  
    53   20   38 ar  
    54   20   60 1   
    55   21   33 1   
    56   21   36 ar  
    57   21   38 ar  
    58   22   61 1   
    59   23   24 1   
    60   23   34 2   
    61   24   25 1   
    62   24   62 1   
    63   29   30 ar  
    64   30   31 ar  
    65   30   63 1   
    66   31   72 1   
    67   33   64 1   
    68   36   65 1   
    69   37   41 1   
    70   38   66 1   
    71   39   67 1   
    72   40   41 1   
    73   40   68 1   
    74   40   69 1   
    75   41   42 1   
    76   42   70 1   
    77   42   71 1   
    78   72   74 2   
@<TRIPOS>SUBSTRUCTURE
     1 9NH         1 TEMP              0 ****  ****    0 ROOT
