@<TRIPOS>MOLECULE
9NH
   74    64     1     0     0
SMALL
bcc


@<TRIPOS>ATOM
      1 C1          6.5580    1.3690   -5.3730 c3        1 9NH     -0.107000
      2 C2          6.3900    2.7550   -1.3290 c1        1 9NH     -0.142000
      3 C3          5.2290    3.2860   -4.8540 c3        1 9NH     -0.107000
      4 N6         -1.3770    0.3730    0.8930 n3        1 9NH     -0.332000
      5 C7         -7.4550   -3.4320    3.9610 c1        1 9NH     -0.117000
      6 C8         -8.0140   -4.6000    4.4630 c1        1 9NH     -0.117000
      7 C9         -8.6470   -5.5070    3.5960 c1        1 9NH     -0.096000
      8 C10        -8.7150   -5.2350    2.2280 c1        1 9NH     -0.169000
      9 C11        -8.1500   -4.0570    1.7220 c2        1 9NH      0.074000
     10 C12        -3.4450   -0.4090    1.7720 c1        1 9NH     -0.119000
     11 C13        -2.7710    0.6270    1.1370 c1        1 9NH      0.079000
     12 C14        -9.2440   -6.3390    1.2370 c2        1 9NH      0.474000
     13 C15        -3.3880    1.3270    0.1010 c1        1 9NH     -0.100000
     14 C16        -2.6550    2.4370   -0.5990 c3        1 9NH     -0.183000
     15 C19         2.0000    0.6370    2.6730 c1        1 9NH      0.242000
     16 C20         3.7340    0.0810    1.1790 c1        1 9NH      0.209000
     17 C21         2.3820    2.0650    4.5670 c3        1 9NH     -0.066000
     18 C22        -4.6730    0.9890   -0.2920 c1        1 9NH     -0.141000
     19 C24        -4.7290   -0.7440    1.3760 c1        1 9NH     -0.047000
     20 C27        -0.3740    0.7180    1.9180 c1        1 9NH      0.390000
     21 C30         6.4280    0.7880   -2.6910 c1        1 9NH     -0.141000
     22 C31         5.6120    0.6700   -0.4440 c1        1 9NH     -0.047000
     23 C23        -5.3440   -0.0470    0.3450 c2        1 9NH     -0.105000
     24 C25        -5.5610   -1.6550    2.2770 c1        1 9NH      0.364000
     25 N3         -6.8130   -2.1550    1.8150 n2        1 9NH     -0.324000
     26 C26        -7.5210   -3.1550    2.5870 c1        1 9NH      0.057000
     27 F1         -9.4730   -7.5060    1.9270 f         1 9NH     -0.162000
     28 F3        -10.3750   -5.9300    0.6790 f         1 9NH     -0.162000
     29 F2         -8.3320   -6.5520    0.2880 f         1 9NH     -0.162000
     30 N1          2.8160   -0.1740    0.1970 n1        1 9NH     -0.233000
     31 C17         1.4990   -0.0260    0.4480 c1        1 9NH      0.043000
     32 C18         1.0790    0.3820    1.6900 c1        1 9NH     -0.318000
     33 N4          3.3170    0.4880    2.4180 n2        1 9NH     -0.302000
     34 N7          5.1320   -0.0680    0.7330 n1        1 9NH     -0.227000
     35 F4         -7.8190   -4.1700    0.4070 f         1 9NH     -0.096000
     36 O1         -0.7360    1.2300    3.0030 o         1 9NH     -0.321000
     37 O2         -5.0960   -2.0640    3.3060 o         1 9NH     -0.334000
     38 O3          1.5620    1.0570    3.9770 os        1 9NH     -0.181000
     39 C28         5.8570    2.0180   -0.2830 c1        1 9NH     -0.119000
     40 C29         6.6750    2.1360   -2.5350 c1        1 9NH      0.045000
     41 C5          5.8970    0.0550   -1.6480 c2        1 9NH     -0.105000
     42 N2          5.6530    2.3670   -5.8710 n3        1 9NH     -0.297000
     43 C4          6.3940    3.8880   -4.1020 c3        1 9NH     -0.058000
     44 N5          7.3120    2.8790   -3.6020 n3        1 9NH     -0.227000
     45 C6          7.7320    1.9760   -4.6100 c3        1 9NH     -0.058000
     46 H11         6.0680    0.7690   -4.7730 h1        1 9NH      0.075000
     47 H12         6.9100    0.8420   -6.1380 h1        1 9NH      0.075000
     48 H21         6.5610    3.6950   -1.2180 ha        1 9NH      0.141000
     49 H31         4.6540    2.8150   -4.2220 h1        1 9NH      0.075000
     50 H32         4.6920    4.0410   -5.2920 h1        1 9NH      0.075000
     51 H61N       -1.1070   -0.0890    0.0970 hn        1 9NH      0.235000
     52 H71        -7.0000   -2.7790    4.5870 ha        1 9NH      0.168000
     53 H81        -7.9680   -4.7890    5.4100 ha        1 9NH      0.168000
     54 H91        -9.0380   -6.3240    3.9480 ha        1 9NH      0.158000
     55 H121       -2.9920   -0.9270    2.5350 ha        1 9NH      0.161000
     56 H161       -2.0080    2.0510   -1.2400 hc        1 9NH      0.086333
     57 H162       -3.3250    3.0260   -1.1010 hc        1 9NH      0.086333
     58 H163       -2.1650    2.9920    0.0780 hc        1 9NH      0.086333
     59 H211        3.2650    1.6890    4.7750 h1        1 9NH      0.096333
     60 H212        2.4860    2.8290    3.9250 h1        1 9NH      0.096333
     61 H213        1.9500    2.3960    5.4130 h1        1 9NH      0.096333
     62 H221       -5.1120    1.4820   -1.0240 ha        1 9NH      0.138000
     63 H301        6.6210    0.3690   -3.5060 ha        1 9NH      0.138000
     64 H231       -6.2320   -0.2800    0.0730 ha        1 9NH      0.146500
     65 H31N       -7.1270   -1.9110    0.9650 hn        1 9NH      0.247000
     66 H171        0.8230   -0.2140   -0.2780 ha        1 9NH      0.170000
     67 H71N        5.7350   -0.6000    1.2370 hn        1 9NH      0.245000
     68 H281        5.6550    2.4530    0.5710 ha        1 9NH      0.161000
     69 H51         5.7250   -0.8920   -1.7600 ha        1 9NH      0.146500
     70 H21N        4.8990    1.9450   -6.2480 hn        1 9NH      0.161000
     71 H41         6.8990    4.5140   -4.7280 h1        1 9NH      0.103000
     72 H42         6.0480    4.4080   -3.3410 h1        1 9NH      0.103000
     73 H61         8.3000    2.4440   -5.2310 h1        1 9NH      0.103000
     74 H62         8.2340    1.2710   -4.2040 h1        1 9NH      0.103000
@<TRIPOS>BOND
     1    1   42 1   
     2    1   45 1   
     3    1   46 1   
     4    1   47 1   
     5    2   40 1   
     6    2   48 1   
     7    3   42 1   
     8    3   43 1   
     9    3   49 1   
    10    3   50 1   
    11    4   11 1   
    12    4   20 1   
    13    4   51 1   
    14    5    6 1   
    15    5   52 1   
    16    6   53 1   
    17    7    8 1   
    18    7   54 1   
    19    8    9 1   
    20    9   26 1   
    21    9   35 1   
    22   10   19 1   
    23   10   55 1   
    24   11   13 1   
    25   12   27 1   
    26   12   28 1   
    27   12   29 1   
    28   13   14 1   
    29   14   56 1   
    30   14   57 1   
    31   14   58 1   
    32   15   33 1   
    33   15   38 1   
    34   16   30 1   
    35   16   33 1   
    36   17   38 1   
    37   17   59 1   
    38   17   60 1   
    39   17   61 1   
    40   18   23 1   
    41   18   62 1   
    42   19   23 1   
    43   20   36 1   
    44   21   41 1   
    45   21   63 1   
    46   22   39 1   
    47   22   41 1   
    48   23   64 1   
    49   24   37 1   
    50   25   26 1   
    51   25   65 1   
    52   31   32 1   
    53   31   66 1   
    54   34   67 1   
    55   39   68 1   
    56   40   44 1   
    57   41   69 1   
    58   42   70 1   
    59   43   44 1   
    60   43   71 1   
    61   43   72 1   
    62   44   45 1   
    63   45   73 1   
    64   45   74 1   
@<TRIPOS>SUBSTRUCTURE
     1 9NH         1 TEMP              0 ****  ****    0 ROOT
