@<TRIPOS>MOLECULE
9NR
   52    53     1     0     0
SMALL
bcc


@<TRIPOS>ATOM
      1 N           0.8210   -0.5290    1.4990 n3        1 9NR     -0.907100
      2 CA          1.2700   -1.4140    0.4480 c3        1 9NR      0.095500
      3 C           0.6740   -2.8710    0.6160 c         1 9NR      0.917600
      4 O           0.2350   -3.2080    1.7470 o         1 9NR     -0.820300
      5 CB          2.7920   -1.5700    0.3630 c3        1 9NR     -0.079400
      6 CG          3.4730   -0.3840   -0.2820 c3        1 9NR     -0.102400
      7 CD          4.9730   -0.6560   -0.3970 c3        1 9NR      0.174800
      8 NE          5.6950    0.3990   -1.0830 nh        1 9NR     -0.802200
      9 CZ          7.1100    0.4790   -0.8690 c2        1 9NR      0.751100
     10 NH1         7.6770    1.6640   -0.7990 n2        1 9NR     -0.890100
     11 NH2         7.8270   -0.7610   -0.7610 nh        1 9NR     -0.932800
     12 OXT         0.7000   -3.5910   -0.4150 o         1 9NR     -0.820300
     13 S1          0.4070    0.9890    1.3570 sy        1 9NR      1.490200
     14 O2          1.3600    1.7570    0.6310 o         1 9NR     -0.680300
     15 O3          0.1000    1.5290    2.6380 o         1 9NR     -0.680300
     16 N1         -5.7630   -0.1060   -0.4680 nh        1 9NR     -0.639000
     17 C1         -1.0210    0.9710    0.3990 ca        1 9NR     -0.331500
     18 C2         -0.9140    1.4230   -0.9000 ca        1 9NR     -0.009000
     19 C3         -2.0220    1.4380   -1.7700 ca        1 9NR     -0.174000
     20 C4         -3.2370    0.9630   -1.3410 ca        1 9NR     -0.055000
     21 C5         -3.3980    0.4690   -0.0180 ca        1 9NR     -0.053000
     22 C6         -2.2860    0.5030    0.8670 ca        1 9NR      0.074000
     23 C7         -2.4630    0.0710    2.2120 ca        1 9NR     -0.131000
     24 C8         -3.6790   -0.3900    2.6450 ca        1 9NR     -0.097000
     25 C9         -4.7780   -0.4680    1.7650 ca        1 9NR     -0.178000
     26 C10        -4.6610   -0.0570    0.4450 ca        1 9NR      0.119600
     27 C11        -5.6800   -1.1940   -1.4210 c3        1 9NR      0.165600
     28 C12        -7.0670    0.0140    0.1400 c3        1 9NR      0.165600
     29 H           0.5750   -1.0690    2.3100 hn        1 9NR      0.481800
     30 H111       -5.9700   -2.1860   -0.9790 h1        1 9NR      0.033867
     31 H112       -6.3750   -0.9650   -2.2710 h1        1 9NR      0.033867
     32 H113       -4.6320   -1.2720   -1.8130 h1        1 9NR      0.033867
     33 H121       -7.0570    0.8500    0.8850 h1        1 9NR      0.033867
     34 H122       -7.8030    0.2560   -0.6720 h1        1 9NR      0.033867
     35 H123       -7.4110   -0.9250    0.6560 h1        1 9NR      0.033867
     36 H2          0.0600    1.7900   -1.2760 ha        1 9NR      0.160000
     37 H3         -1.8980    1.8220   -2.7930 ha        1 9NR      0.129000
     38 H4         -4.0980    0.9760   -2.0290 ha        1 9NR      0.138000
     39 H7         -1.6160    0.1200    2.9170 ha        1 9NR      0.161000
     40 H8         -3.8080   -0.7250    3.6850 ha        1 9NR      0.131000
     41 H9         -5.7250   -0.8720    2.1530 ha        1 9NR      0.125000
     42 HA          0.8930   -1.0160   -0.5390 h1        1 9NR      0.039700
     43 HB1C        3.2180   -1.7490    1.3840 hc        1 9NR      0.055700
     44 HB2C        2.9830   -2.4920   -0.2520 hc        1 9NR      0.055700
     45 HG1C        3.0380   -0.2090   -1.3010 hc        1 9NR      0.059200
     46 HG2C        3.2920    0.5460    0.3200 hc        1 9NR      0.059200
     47 HD1C        5.3810   -0.8380    0.6400 h1        1 9NR      0.035700
     48 HD2C        5.1160   -1.6060   -0.9900 h1        1 9NR      0.035700
     49 HH11        8.6720    1.6550   -0.7640 hn        1 9NR      0.376400
     50 HH21        7.2960   -1.5780   -0.9690 hn        1 9NR      0.384300
     51 HH22        8.6940   -0.7500   -1.2520 hn        1 9NR      0.384300
     52 HE          5.2450    1.2910   -0.9900 hn        1 9NR      0.418800
@<TRIPOS>BOND
     1    1    2 1   
     2    1   13 1   
     3    1   29 1   
     4    2    3 1   
     5    2    5 1   
     6    2   42 1   
     7    3    4 1   
     8    3   12 1   
     9    5    6 1   
    10    5   43 1   
    11    5   44 1   
    12    6    7 1   
    13    6   45 1   
    14    6   46 1   
    15    7    8 1   
    16    7   47 1   
    17    7   48 1   
    18    8    9 1   
    19    8   52 1   
    20    9   10 2   
    21    9   11 1   
    22   10   49 1   
    23   11   50 1   
    24   11   51 1   
    25   13   14 2   
    26   13   15 2   
    27   13   17 1   
    28   16   26 1   
    29   16   27 1   
    30   16   28 1   
    31   17   18 ar  
    32   17   22 ar  
    33   18   19 ar  
    34   18   36 1   
    35   19   20 ar  
    36   19   37 1   
    37   20   21 ar  
    38   20   38 1   
    39   21   22 ar  
    40   21   26 ar  
    41   22   23 ar  
    42   23   24 ar  
    43   23   39 1   
    44   24   25 ar  
    45   24   40 1   
    46   25   26 ar  
    47   25   41 1   
    48   27   30 1   
    49   27   31 1   
    50   27   32 1   
    51   28   33 1   
    52   28   34 1   
    53   28   35 1   
@<TRIPOS>SUBSTRUCTURE
     1 9NR         1 TEMP              0 ****  ****    0 ROOT
