@<TRIPOS>MOLECULE
9NS
   67    70     1     0     0
SMALL
bcc


@<TRIPOS>ATOM
      1 C1         -5.7420    2.9680   -1.7060 ca        1 9NS     -0.151000
      2 C2         -6.3160    1.6980   -1.7830 ca        1 9NS     -0.136000
      3 C3          0.4930    4.3790    2.7640 cc        1 9NS     -0.276300
      4 C4         -4.3630    3.0940   -1.5750 ca        1 9NS     -0.095000
      5 C5         -5.5080    0.5690   -1.7210 ca        1 9NS     -0.142000
      6 C6         -0.2880   -2.4370   -1.7740 ca        1 9NS     -0.148000
      7 C7          1.0720   -2.3260   -2.0370 ca        1 9NS     -0.157000
      8 C8          0.1690    3.0540    2.2840 cc        1 9NS     -0.228300
      9 C9          0.7240    5.1600    1.6490 cd        1 9NS      0.198600
     10 C10        -3.5440    1.9560   -1.5090 ca        1 9NS     -0.093600
     11 C11         0.0130   -1.5200    0.4650 ca        1 9NS     -0.082600
     12 C12        -4.1150    0.6820   -1.5770 ca        1 9NS     -0.040300
     13 C13        -0.8110   -2.0640   -0.5320 ca        1 9NS     -0.097300
     14 C14         1.9170   -1.8230   -1.0400 ca        1 9NS      0.057100
     15 C15         1.3870   -1.4010    0.1970 ca        1 9NS      0.063100
     16 C16         0.2230    3.1130    0.9040 cd        1 9NS      0.237000
     17 C18        -4.1220   -1.7060    1.9780 c2        1 9NS     -0.136200
     18 C19        -2.0670    2.2180   -1.4420 c         1 9NS      0.657700
     19 C21         7.9690   -1.2720   -0.2180 c         1 9NS      0.908600
     20 C22         3.5130   -0.5320    0.7360 c3        1 9NS      0.093400
     21 C23         4.1060   -1.5950   -0.1820 c3        1 9NS      0.103100
     22 C24        -3.2970   -0.5780   -1.5400 c3        1 9NS      0.207100
     23 C25        -2.2580   -2.3240   -0.2300 c3        1 9NS      0.213100
     24 C26         0.0170    2.0840   -0.1500 c3        1 9NS      0.056700
     25 C27        -4.3240   -1.3110    0.5470 c3        1 9NS      0.201000
     26 C29         5.4930   -1.2320   -0.6930 c3        1 9NS     -0.061400
     27 N30        -1.3700    1.7600   -0.3630 n         1 9NS     -0.522900
     28 N31        -3.0930   -1.1270   -0.2080 n3        1 9NS     -0.714600
     29 O32        -0.7880    0.1450    1.9900 o         1 9NS     -0.838800
     30 O33         8.8870   -2.1440   -0.2120 o         1 9NS     -0.855800
     31 O34        -1.5340    2.8880   -2.3610 o         1 9NS     -0.654100
     32 O35        -0.9690   -1.9890    2.5980 o         1 9NS     -0.838800
     33 O36         8.1520   -0.0690   -0.5650 o         1 9NS     -0.855800
     34 O37         0.5600    4.4090    0.4880 os        1 9NS     -0.367800
     35 O38         2.2100   -0.9050    1.1970 os        1 9NS     -0.301900
     36 O39         3.2640   -1.7410   -1.3470 os        1 9NS     -0.331900
     37 H1         -6.3750    3.8640   -1.7510 ha        1 9NS      0.118000
     38 H2         -7.4040    1.5910   -1.8900 ha        1 9NS      0.114000
     39 H4         -3.8940    4.0900   -1.5350 ha        1 9NS      0.145000
     40 H5         -5.9590   -0.4340   -1.7750 ha        1 9NS      0.126000
     41 H3          0.5470    4.6780    3.8050 ha        1 9NS      0.140000
     42 H8         -0.0690    2.1630    2.8710 ha        1 9NS      0.213000
     43 H9          1.0050    6.1930    1.4790 h4        1 9NS      0.028100
     44 H6         -0.9570   -2.8360   -2.5510 ha        1 9NS      0.106000
     45 H7          1.4960   -2.6270   -3.0040 ha        1 9NS      0.129000
     46 H241       -3.7980   -1.3300   -2.2260 h1        1 9NS      0.043200
     47 H242       -2.2690   -0.3740   -1.9620 h1        1 9NS      0.043200
     48 H251       -2.6600   -3.0780   -0.9730 h1        1 9NS      0.048700
     49 H252       -2.2960   -2.7930    0.8010 h1        1 9NS      0.048700
     50 H261        0.4830    2.4340   -1.1150 h1        1 9NS      0.096700
     51 H262        0.5290    1.1370    0.2160 h1        1 9NS      0.096700
     52 H171       -6.0870   -2.4990    2.2770 ha        1 9NS      0.092000
     53 H172       -4.9630   -2.5290    3.7460 ha        1 9NS      0.092000
     54 H18        -3.1200   -1.4880    2.4150 ha        1 9NS      0.214000
     55 H271       -5.0090   -2.0590    0.0420 h1        1 9NS      0.021200
     56 H272       -4.8650   -0.3180    0.5530 h1        1 9NS      0.021200
     57 H30        -1.7840    1.1570    0.3260 hn        1 9NS      0.379500
     58 H281        6.5450   -2.8190    0.3460 hc        1 9NS      0.022700
     59 H282        6.4010   -1.2690    1.2720 hc        1 9NS      0.022700
     60 H221        4.1150   -0.4300    1.6760 h1        1 9NS      0.066200
     61 H222        3.4430    0.4530    0.2060 h1        1 9NS      0.066200
     62 H23         4.1190   -2.5870    0.3490 h1        1 9NS      0.054700
     63 H291        5.6410   -1.7040   -1.6990 hc        1 9NS      0.059700
     64 H292        5.5800   -0.1220   -0.8310 hc        1 9NS      0.059700
     65 C17        -5.0980   -2.2650    2.6900 c2        1 9NS     -0.280000
     66 C28         6.5700   -1.7040    0.2540 c3        1 9NS     -0.193400
     67 C20        -0.6070   -1.0910    1.7870 c         1 9NS      0.936200
@<TRIPOS>BOND
     1    1    2 ar  
     2    1    4 ar  
     3    1   37 1   
     4    2    5 ar  
     5    2   38 1   
     6    3    8 1   
     7    3    9 2   
     8    3   41 1   
     9    4   10 ar  
    10    4   39 1   
    11    5   12 ar  
    12    5   40 1   
    13    6    7 ar  
    14    6   13 ar  
    15    6   44 1   
    16    7   14 ar  
    17    7   45 1   
    18    8   16 2   
    19    8   42 1   
    20    9   34 1   
    21    9   43 1   
    22   10   12 ar  
    23   10   18 1   
    24   11   13 ar  
    25   11   15 ar  
    26   11   67 1   
    27   12   22 1   
    28   13   23 1   
    29   14   15 ar  
    30   14   36 1   
    31   15   35 1   
    32   16   24 1   
    33   16   34 1   
    34   17   25 1   
    35   17   54 1   
    36   17   65 2   
    37   18   27 1   
    38   18   31 2   
    39   19   30 1   
    40   19   33 1   
    41   19   66 1   
    42   20   21 1   
    43   20   35 1   
    44   20   60 1   
    45   20   61 1   
    46   21   26 1   
    47   21   36 1   
    48   21   62 1   
    49   22   28 1   
    50   22   46 1   
    51   22   47 1   
    52   23   28 1   
    53   23   48 1   
    54   23   49 1   
    55   24   27 1   
    56   24   50 1   
    57   24   51 1   
    58   25   28 1   
    59   25   55 1   
    60   25   56 1   
    61   26   63 1   
    62   26   64 1   
    63   26   66 1   
    64   27   57 1   
    65   29   67 1   
    66   32   67 1   
    67   52   65 1   
    68   53   65 1   
    69   58   66 1   
    70   59   66 1   
@<TRIPOS>SUBSTRUCTURE
     1 9NS         1 TEMP              0 ****  ****    0 ROOT
