@<TRIPOS>MOLECULE
9NS
   67    57     1     0     0
SMALL
bcc


@<TRIPOS>ATOM
      1 C1         -3.6740   -1.7140   -3.0150 c1        1 9NS     -0.158667
      2 C2         -4.3710   -2.2700   -1.9400 c1        1 9NS     -0.158667
      3 C3         -0.4550    4.6270   -6.4910 c1        1 9NS     -0.182500
      4 C4         -2.9520   -0.5450   -2.8420 c1        1 9NS     -0.158667
      5 C5         -4.3410   -1.6490   -0.6940 c1        1 9NS     -0.158667
      6 C6         -0.3350   -2.5420    2.9800 c1        1 9NS     -0.144000
      7 C7          1.0720   -2.6700    2.9730 c1        1 9NS     -0.157000
      8 C8         -1.1380    3.5090   -6.0750 c1        1 9NS     -0.182500
      9 C9         -0.1330    5.3750   -5.3700 c1        1 9NS     -0.088500
     10 C10        -2.9220    0.0610   -1.6260 c1        1 9NS     -0.102000
     11 C11        -0.1270   -0.0270    2.7240 c1        1 9NS     -0.062000
     12 C12        -3.6370   -0.5080   -0.5240 c1        1 9NS     -0.011000
     13 C13        -0.9570   -1.1970    2.8530 c1        1 9NS     -0.108000
     14 C14         1.8970   -1.5040    2.8430 c1        1 9NS      0.015000
     15 C15         1.2610   -0.1500    2.7160 c1        1 9NS      0.030000
     16 C16        -1.2400    3.5620   -4.7080 c1        1 9NS     -0.088500
     17 C17        -0.1550   -2.6250   -0.1350 c1        1 9NS     -0.158667
     18 C18        -1.0470   -1.8000    0.5140 c1        1 9NS     -0.158667
     19 C19        -2.2120    1.4380   -1.7980 c2        1 9NS      0.330000
     20 C20        -0.4130    1.4430    3.0970 c2        1 9NS      0.371000
     21 C21         7.9120   -0.7500    2.2210 c1        1 9NS      0.329000
     22 C22         3.3410    0.6960    1.8580 c3        1 9NS     -0.056000
     23 C23         4.0410   -0.4060    2.5800 c3        1 9NS     -0.008000
     24 C24        -3.1180   -0.1320    0.9230 c3        1 9NS     -0.061000
     25 C25        -2.4340   -1.0370    3.0010 c3        1 9NS     -0.031000
     26 C26        -2.2600    3.0530   -3.7060 c2        1 9NS      0.004000
     27 C27        -2.3590   -2.3640    1.0320 c2        1 9NS     -0.040000
     28 C28         6.4880   -1.0620    2.8050 c2        1 9NS     -0.223000
     29 C29         5.4480   -0.6990    1.8080 c3        1 9NS     -0.140000
     30 N30        -1.7400    1.8300   -3.0660 n         1 9NS     -0.322000
     31 N31        -3.0880   -1.3240    1.7410 n3        1 9NS     -0.266000
     32 O32        -0.4340    2.3590    2.1660 o         1 9NS     -0.578000
     33 O33         8.4170    0.3630    2.4080 o         1 9NS     -0.590000
     34 O34        -2.1200    2.2290   -0.8170 o         1 9NS     -0.406000
     35 O35        -0.5990    1.7750    4.3390 o         1 9NS     -0.578000
     36 O36         8.5850   -1.6560    1.7140 o         1 9NS     -0.590000
     37 O37        -0.6150    4.7200   -4.2750 os        1 9NS     -0.120000
     38 O38         2.1320    0.9910    2.2610 os        1 9NS     -0.185000
     39 O39         3.3730   -1.5810    2.6870 os        1 9NS     -0.215000
     40 H1         -3.6970   -2.1630   -3.9180 ha        1 9NS      0.134167
     41 H2         -4.8740   -3.0810   -2.0610 ha        1 9NS      0.134167
     42 H4         -2.4660   -0.1590   -3.5890 ha        1 9NS      0.134167
     43 H5         -4.8200   -2.0320    0.0430 ha        1 9NS      0.134167
     44 H3         -0.2550    4.8860   -7.4710 DU        1 9NS      0.150500
     45 H8         -1.5970    2.8860   -6.6490 DU        1 9NS      0.150500
     46 H9          0.3510    6.2160   -5.3660 DU        1 9NS      0.150500
     47 H6         -0.8920   -3.3170    3.1970 ha        1 9NS      0.110000
     48 H7          1.4740   -3.5320    3.0560 ha        1 9NS      0.128000
     49 H241       -2.2050    0.2480    0.8580 h1        1 9NS      0.115500
     50 H242       -3.7640    0.5770    1.3560 h1        1 9NS      0.115500
     51 H251       -2.7690   -1.6680    3.7030 h1        1 9NS      0.096500
     52 H252       -2.6320   -0.1170    3.2690 h1        1 9NS      0.096500
     53 H261       -3.0710    2.8600   -4.1530 h4        1 9NS      0.143000
     54 H262       -2.4170    3.7310   -3.0310 h4        1 9NS      0.143000
     55 H171       -0.3710   -3.5830   -0.2640 DU        1 9NS      0.150500
     56 H172        0.6950   -2.2630   -0.4690 ha        1 9NS      0.134167
     57 H18        -0.8270   -0.8080    0.6480 ha        1 9NS      0.134167
     58 H271       -2.9190   -2.6910    0.2470 h4        1 9NS      0.081000
     59 H272       -2.1770   -3.1090    1.6360 h4        1 9NS      0.081000
     60 H30        -1.1090    1.3070   -3.5080 hn        1 9NS      0.262000
     61 H281        6.4230   -1.9830    3.0070 ha        1 9NS      0.062500
     62 H282        6.3500   -0.5330    3.6300 ha        1 9NS      0.062500
     63 H221        3.8970    1.5150    1.9330 h1        1 9NS      0.106500
     64 H222        3.2840    0.4310    0.8420 h1        1 9NS      0.106500
     65 H23         4.2360   -0.1120    3.4320 h1        1 9NS      0.093000
     66 H291        5.7410    0.1350    1.3000 hc        1 9NS      0.098500
     67 H292        5.3210   -1.4580    1.1610 hc        1 9NS      0.098500
@<TRIPOS>BOND
     1    1    4 1   
     2    1   40 1   
     3    2    5 1   
     4    2   41 1   
     5    3    8 1   
     6    3    9 1   
     7    4   42 1   
     8    5   43 1   
     9    6   13 1   
    10    6   47 1   
    11    7   14 1   
    12    7   48 1   
    13    8   16 1   
    14    9   37 1   
    15   10   12 1   
    16   10   19 1   
    17   11   15 1   
    18   11   20 1   
    19   12   24 1   
    20   13   25 1   
    21   14   39 1   
    22   15   38 1   
    23   16   37 1   
    24   17   18 1   
    25   17   56 1   
    26   18   57 1   
    27   19   30 1   
    28   19   34 1   
    29   20   32 1   
    30   20   35 1   
    31   21   33 1   
    32   21   36 1   
    33   22   23 1   
    34   22   38 1   
    35   22   63 1   
    36   22   64 1   
    37   23   29 1   
    38   23   39 1   
    39   23   65 1   
    40   24   31 1   
    41   24   49 1   
    42   24   50 1   
    43   25   31 1   
    44   25   51 1   
    45   25   52 1   
    46   26   30 1   
    47   26   53 1   
    48   26   54 1   
    49   27   31 1   
    50   27   58 1   
    51   27   59 1   
    52   28   29 1   
    53   28   61 1   
    54   28   62 1   
    55   29   66 1   
    56   29   67 1   
    57   30   60 1   
@<TRIPOS>SUBSTRUCTURE
     1 9NS         1 TEMP              0 ****  ****    0 ROOT
