@<TRIPOS>MOLECULE
9NV
   45    46     1     0     0
SMALL
bcc


@<TRIPOS>ATOM
      1 N           2.0260    0.1700   -1.0740 n3        1 9NV     -0.907100
      2 CA          2.5020    1.1120   -0.0840 c3        1 9NV      0.096500
      3 C           1.9460    2.5660   -0.3520 c         1 9NV      0.916600
      4 O           1.5720    2.8540   -1.5210 o         1 9NV     -0.823800
      5 CB          4.0290    1.2250   -0.0130 c3        1 9NV     -0.078400
      6 CG          4.6770    0.0690    0.7160 c3        1 9NV     -0.094400
      7 CD          6.1780    0.2080    0.7450 c3        1 9NV     -0.084100
      8 OXT         1.9270    3.3380    0.6410 o         1 9NV     -0.823800
      9 S8          1.5220   -1.3030   -0.8220 sy        1 9NV      1.489200
     10 O9          1.2680   -1.9500   -2.0660 o         1 9NV     -0.680800
     11 O10         2.3730   -2.0510    0.0380 o         1 9NV     -0.680800
     12 C11         0.0330   -1.1220    0.0240 ca        1 9NV     -0.327500
     13 C12         0.0340   -1.4300    1.3690 ca        1 9NV     -0.010000
     14 C13        -1.1280   -1.3030    2.1560 ca        1 9NV     -0.173000
     15 C14        -2.2900   -0.8330    1.5940 ca        1 9NV     -0.057000
     16 C15        -2.3410   -0.4810    0.2170 ca        1 9NV     -0.052000
     17 C16        -1.1750   -0.6570   -0.5790 ca        1 9NV      0.074000
     18 C17        -1.2440   -0.3670   -1.9710 ca        1 9NV     -0.131000
     19 C18        -2.4050    0.0910   -2.5350 ca        1 9NV     -0.099000
     20 C19        -3.5550    0.3080   -1.7480 ca        1 9NV     -0.179000
     21 C20        -3.5440    0.0400   -0.3870 ca        1 9NV      0.119600
     22 N21        -4.6990    0.2330    0.4360 nh        1 9NV     -0.639000
     23 C23        -4.6270    1.4150    1.2710 c3        1 9NV      0.165600
     24 C22        -5.9650    0.1010   -0.2450 c3        1 9NV      0.165600
     25 H           1.8310    0.6560   -1.9310 hn        1 9NV      0.480800
     26 HA          2.1180    0.7880    0.9280 h1        1 9NV      0.038700
     27 HB1C        4.4570    1.3150   -1.0440 hc        1 9NV      0.051700
     28 HB2C        4.2550    2.1820    0.5310 hc        1 9NV      0.051700
     29 HG1C        4.2870    0.0270    1.7680 hc        1 9NV      0.045200
     30 HG2C        4.3970   -0.9020    0.2280 hc        1 9NV      0.045200
     31 HD1C        6.5920    0.2170   -0.2930 hc        1 9NV      0.019700
     32 HD2C        6.4770    1.1600    1.2460 hc        1 9NV      0.019700
     33 HD3C        6.6390   -0.6440    1.3000 hc        1 9NV      0.019700
     34 H12         0.9630   -1.7900    1.8490 ha        1 9NV      0.159000
     35 H13        -1.0890   -1.5750    3.2200 ha        1 9NV      0.127000
     36 H14        -3.1930   -0.7350    2.2170 ha        1 9NV      0.137000
     37 H17        -0.3550   -0.5250   -2.6050 ha        1 9NV      0.161000
     38 H18        -2.4500    0.3160   -3.6110 ha        1 9NV      0.130000
     39 H19        -4.4550    0.7050   -2.2430 ha        1 9NV      0.124000
     40 H221       -5.9470   -0.8120   -0.8950 h1        1 9NV      0.033367
     41 H222       -6.7640   -0.0200    0.5340 h1        1 9NV      0.033367
     42 H223       -6.2300    0.9910   -0.8810 h1        1 9NV      0.033367
     43 H231       -4.8430    2.3630    0.7070 h1        1 9NV      0.033367
     44 H232       -5.3840    1.3080    2.0920 h1        1 9NV      0.033367
     45 H233       -3.6030    1.4950    1.7220 h1        1 9NV      0.033367
@<TRIPOS>BOND
     1    1    2 1   
     2    1    9 1   
     3    1   25 1   
     4    2    3 1   
     5    2    5 1   
     6    2   26 1   
     7    3    4 1   
     8    3    8 1   
     9    5    6 1   
    10    5   27 1   
    11    5   28 1   
    12    6    7 1   
    13    6   29 1   
    14    6   30 1   
    15    7   31 1   
    16    7   32 1   
    17    7   33 1   
    18    9   10 2   
    19    9   11 2   
    20    9   12 1   
    21   12   13 ar  
    22   12   17 ar  
    23   13   14 ar  
    24   13   34 1   
    25   14   15 ar  
    26   14   35 1   
    27   15   16 ar  
    28   15   36 1   
    29   16   17 ar  
    30   16   21 ar  
    31   17   18 ar  
    32   18   19 ar  
    33   18   37 1   
    34   19   20 ar  
    35   19   38 1   
    36   20   21 ar  
    37   20   39 1   
    38   21   22 1   
    39   22   23 1   
    40   22   24 1   
    41   23   43 1   
    42   23   44 1   
    43   23   45 1   
    44   24   40 1   
    45   24   41 1   
    46   24   42 1   
@<TRIPOS>SUBSTRUCTURE
     1 9NV         1 TEMP              0 ****  ****    0 ROOT
