@<TRIPOS>MOLECULE
9OD
   28    27     1     0     0
SMALL
bcc


@<TRIPOS>ATOM
      1 O9          5.7570   -0.1000   -0.9770 o         1 9OD     -0.555100
      2 C9          4.7450    0.3350   -0.4140 c         1 9OD      0.569100
      3 C10         4.7930    0.8740    0.9800 c3        1 9OD     -0.203100
      4 C8          3.4090    0.3690   -1.0990 c3        1 9OD     -0.184400
      5 C7          2.3230   -0.3010   -0.2840 c3        1 9OD     -0.073400
      6 C6          0.9820   -0.2040   -0.9800 c3        1 9OD     -0.079400
      7 C5         -0.1120   -0.8490   -0.1570 c3        1 9OD     -0.070400
      8 C4         -1.4700   -0.6450   -0.8010 c3        1 9OD     -0.053200
      9 C3         -2.5490   -1.2570    0.0090 c2        1 9OD     -0.208200
     10 C2         -3.5850   -0.6010    0.5360 ce        1 9OD     -0.188200
     11 C1         -3.8540    0.8840    0.4880 c         1 9OD      0.893800
     12 OE1        -4.4710    1.3810    1.4760 o         1 9OD     -0.841800
     13 OE2        -3.4820    1.5690   -0.5100 o         1 9OD     -0.841800
     14 H10         5.8440    1.0960    1.2840 hc        1 9OD      0.062367
     15 H10A        4.1810    1.8040    1.0580 hc        1 9OD      0.062367
     16 H10B        4.3700    0.1120    1.6810 hc        1 9OD      0.062367
     17 H8          3.1370    1.4440   -1.2760 hc        1 9OD      0.067700
     18 H8A         3.4900   -0.1280   -2.1030 hc        1 9OD      0.067700
     19 H7          2.5860   -1.3790   -0.1190 hc        1 9OD      0.039700
     20 H7A         2.2520    0.1840    0.7260 hc        1 9OD      0.039700
     21 H6          0.7270    0.8750   -1.1570 hc        1 9OD      0.042200
     22 H6A         1.0410   -0.6990   -1.9850 hc        1 9OD      0.042200
     23 H5          0.1000   -1.9440   -0.0410 hc        1 9OD      0.030200
     24 H5A        -0.1220   -0.4010    0.8720 hc        1 9OD      0.030200
     25 H4         -1.6740    0.4560   -0.9330 hc        1 9OD      0.063200
     26 H4A        -1.4670   -1.1110   -1.8230 hc        1 9OD      0.063200
     27 H3         -2.4460   -2.3470    0.1550 ha        1 9OD      0.069000
     28 H2         -4.3430   -1.1550    1.1150 ha        1 9OD      0.095000
@<TRIPOS>BOND
     1    1    2 2   
     2    2    3 1   
     3    2    4 1   
     4    3   14 1   
     5    3   15 1   
     6    3   16 1   
     7    4    5 1   
     8    4   17 1   
     9    4   18 1   
    10    5    6 1   
    11    5   19 1   
    12    5   20 1   
    13    6    7 1   
    14    6   21 1   
    15    6   22 1   
    16    7    8 1   
    17    7   23 1   
    18    7   24 1   
    19    8    9 1   
    20    8   25 1   
    21    8   26 1   
    22    9   10 2   
    23    9   27 1   
    24   10   11 1   
    25   10   28 1   
    26   11   12 1   
    27   11   13 1   
@<TRIPOS>SUBSTRUCTURE
     1 9OD         1 TEMP              0 ****  ****    0 ROOT
