@<TRIPOS>MOLECULE
9OD
   28    27     1     0     0
SMALL
bcc


@<TRIPOS>ATOM
      1 O9          1.3930   -1.3820    0.9620 o         1 9OD     -0.555100
      2 C9          1.6060   -0.5250    0.0950 c         1 9OD      0.569100
      3 C10         1.4840    0.9360    0.3880 c3        1 9OD     -0.203100
      4 C8          2.0190   -0.8960   -1.3010 c3        1 9OD     -0.184400
      5 C7          1.1330   -0.2640   -2.3530 c3        1 9OD     -0.073400
      6 C6          1.6080   -0.6170   -3.7470 c3        1 9OD     -0.079400
      7 C5          0.7410    0.0340   -4.8040 c3        1 9OD     -0.070400
      8 C4          1.2910   -0.2250   -6.1930 c3        1 9OD     -0.053200
      9 C3          0.4590    0.4250   -7.2330 c2        1 9OD     -0.208200
     10 C2          0.8860    1.3470   -8.0980 ce        1 9OD     -0.188200
     11 C1          2.2590    1.9720   -8.1740 c         1 9OD      0.893800
     12 OE1         2.3150    3.1670   -8.5900 o         1 9OD     -0.841800
     13 OE2         3.2840    1.3050   -7.8450 o         1 9OD     -0.841800
     14 H10         0.5230    1.3160   -0.0390 hc        1 9OD      0.062367
     15 H10A        1.4860    1.1220    1.4890 hc        1 9OD      0.062367
     16 H10B        2.3270    1.4980   -0.0830 hc        1 9OD      0.062367
     17 H8          2.0020   -2.0130   -1.4120 hc        1 9OD      0.067700
     18 H8A         3.0800   -0.5580   -1.4490 hc        1 9OD      0.067700
     19 H7          0.0760   -0.6120   -2.2150 hc        1 9OD      0.039700
     20 H7A         1.1360    0.8520   -2.2330 hc        1 9OD      0.039700
     21 H6          1.5950   -1.7310   -3.8800 hc        1 9OD      0.042200
     22 H6A         2.6710   -0.2800   -3.8790 hc        1 9OD      0.042200
     23 H5         -0.3070   -0.3570   -4.7240 hc        1 9OD      0.030200
     24 H5A         0.6980    1.1410   -4.6250 hc        1 9OD      0.030200
     25 H4          1.3160   -1.3320   -6.3800 hc        1 9OD      0.063200
     26 H4A         2.3510    0.1530   -6.2670 hc        1 9OD      0.063200
     27 H3         -0.5900    0.0810   -7.2560 ha        1 9OD      0.069000
     28 H2          0.1860    1.7610   -8.8440 ha        1 9OD      0.095000
@<TRIPOS>BOND
     1    1    2 2   
     2    2    3 1   
     3    2    4 1   
     4    3   14 1   
     5    3   15 1   
     6    3   16 1   
     7    4    5 1   
     8    4   17 1   
     9    4   18 1   
    10    5    6 1   
    11    5   19 1   
    12    5   20 1   
    13    6    7 1   
    14    6   21 1   
    15    6   22 1   
    16    7    8 1   
    17    7   23 1   
    18    7   24 1   
    19    8    9 1   
    20    8   25 1   
    21    8   26 1   
    22    9   10 2   
    23    9   27 1   
    24   10   11 1   
    25   10   28 1   
    26   11   12 1   
    27   11   13 1   
@<TRIPOS>SUBSTRUCTURE
     1 9OD         1 TEMP              0 ****  ****    0 ROOT
