@<TRIPOS>MOLECULE
9OD
   28    27     1     0     0
SMALL
bcc


@<TRIPOS>ATOM
      1 O9          1.4730   -1.3180    0.9830 o         1 9OD     -0.555100
      2 C9          1.6370   -0.4610    0.1050 c         1 9OD      0.569100
      3 C10         1.4280    0.9940    0.3790 c3        1 9OD     -0.203100
      4 C8          2.0760   -0.8240   -1.2850 c3        1 9OD     -0.184400
      5 C7          1.1570   -0.2590   -2.3480 c3        1 9OD     -0.073400
      6 C6          1.6570   -0.6010   -3.7350 c3        1 9OD     -0.079400
      7 C5          0.7570   -0.0150   -4.8020 c3        1 9OD     -0.070400
      8 C4          1.3250   -0.2590   -6.1870 c3        1 9OD     -0.053200
      9 C3          0.4590    0.3280   -7.2370 c2        1 9OD     -0.208200
     10 C2          0.8350    1.2610   -8.1140 ce        1 9OD     -0.188200
     11 C1          2.1700    1.9640   -8.1960 c         1 9OD      0.893800
     12 OE1         2.1580    3.1540   -8.6290 o         1 9OD     -0.841800
     13 OE2         3.2300    1.3610   -7.8550 o         1 9OD     -0.841800
     14 H10         0.4470    1.3100   -0.0550 hc        1 9OD      0.062367
     15 H10A        1.4150    1.1930    1.4780 hc        1 9OD      0.062367
     16 H10B        2.2370    1.5990   -0.0960 hc        1 9OD      0.062367
     17 H8          2.1250   -1.9410   -1.3830 hc        1 9OD      0.067700
     18 H8A         3.1160   -0.4260   -1.4350 hc        1 9OD      0.067700
     19 H7          0.1220   -0.6670   -2.2070 hc        1 9OD      0.039700
     20 H7A         1.0950    0.8570   -2.2410 hc        1 9OD      0.039700
     21 H6          1.7090   -1.7150   -3.8540 hc        1 9OD      0.042200
     22 H6A         2.6980   -0.2040   -3.8690 hc        1 9OD      0.042200
     23 H5         -0.2670   -0.4650   -4.7200 hc        1 9OD      0.030200
     24 H5A         0.6490    1.0890   -4.6380 hc        1 9OD      0.030200
     25 H4          1.4140   -1.3650   -6.3600 hc        1 9OD      0.063700
     26 H4A         2.3610    0.1790   -6.2630 hc        1 9OD      0.063700
     27 H3         -0.5680   -0.0760   -7.2580 ha        1 9OD      0.069000
     28 H2          0.1130    1.6240   -8.8660 ha        1 9OD      0.095000
@<TRIPOS>BOND
     1    1    2 2   
     2    2    3 1   
     3    2    4 1   
     4    3   14 1   
     5    3   15 1   
     6    3   16 1   
     7    4    5 1   
     8    4   17 1   
     9    4   18 1   
    10    5    6 1   
    11    5   19 1   
    12    5   20 1   
    13    6    7 1   
    14    6   21 1   
    15    6   22 1   
    16    7    8 1   
    17    7   23 1   
    18    7   24 1   
    19    8    9 1   
    20    8   25 1   
    21    8   26 1   
    22    9   10 2   
    23    9   27 1   
    24   10   11 1   
    25   10   28 1   
    26   11   12 1   
    27   11   13 1   
@<TRIPOS>SUBSTRUCTURE
     1 9OD         1 TEMP              0 ****  ****    0 ROOT
