@<TRIPOS>MOLECULE
9OD
   28    25     1     0     0
SMALL
bcc


@<TRIPOS>ATOM
      1 O9         -1.4860    0.1940    3.9130 o         1 9OD     -0.312000
      2 C9         -0.2720    0.1940    3.9130 c1        1 9OD      0.230000
      3 C10         0.4850    0.1940    5.2230 c2        1 9OD     -0.272000
      4 C8          0.4850    0.1940    2.6030 c3        1 9OD     -0.213000
      5 C7         -0.4960    0.1060    1.4540 c3        1 9OD     -0.149000
      6 C6          0.2630    0.0400    0.1470 c3        1 9OD     -0.159000
      7 C5         -0.7150    0.0880   -1.0070 c3        1 9OD     -0.146000
      8 C4          0.0290   -0.1250   -2.3070 c3        1 9OD     -0.136000
      9 C3         -0.9090    0.1180   -3.4690 c2        1 9OD     -0.204000
     10 C2         -0.4980   -0.1300   -4.7290 c1        1 9OD     -0.170000
     11 C1          0.9000   -0.6490   -4.9800 c1        1 9OD      0.344000
     12 OE1         1.8420    0.1570   -5.1990 o         1 9OD     -0.577000
     13 OE2         1.1220   -1.8890   -4.9740 o         1 9OD     -0.577000
     14 H10        -0.1480    0.2440    5.9640 ha        1 9OD      0.101000
     15 H10A        1.0830    0.9640    5.2530 ha        1 9OD      0.101000
     16 H10B        1.0070   -0.6280    5.2970 ha        1 9OD      0.101000
     17 H8          1.0030    1.0170    2.5260 hc        1 9OD      0.103500
     18 H8A         1.0880   -0.5740    2.5750 hc        1 9OD      0.103500
     19 H7         -1.0430   -0.6970    1.5540 hc        1 9OD      0.080500
     20 H7A        -1.0720    0.8940    1.4570 hc        1 9OD      0.080500
     21 H6          0.8740    0.7980    0.0870 hc        1 9OD      0.081500
     22 H6A         0.7720   -0.7920    0.1080 hc        1 9OD      0.081500
     23 H5         -1.3840   -0.6140   -0.8960 hc        1 9OD      0.069500
     24 H5A        -1.1560    0.9580   -1.0230 hc        1 9OD      0.069500
     25 H4          0.7790    0.4980   -2.3590 hc        1 9OD      0.101500
     26 H4A         0.3630   -1.0410   -2.3440 hc        1 9OD      0.101500
     27 H3         -1.8110    0.4530   -3.3070 ha        1 9OD      0.070000
     28 H2         -1.1030    0.0270   -5.4790 ha        1 9OD      0.095000
@<TRIPOS>BOND
     1    1    2 1   
     2    2    4 1   
     3    3   14 1   
     4    3   15 1   
     5    3   16 1   
     6    4    5 1   
     7    4   17 1   
     8    4   18 1   
     9    5    6 1   
    10    5   19 1   
    11    5   20 1   
    12    6    7 1   
    13    6   21 1   
    14    6   22 1   
    15    7    8 1   
    16    7   23 1   
    17    7   24 1   
    18    8    9 1   
    19    8   25 1   
    20    8   26 1   
    21    9   10 1   
    22    9   27 1   
    23   10   28 1   
    24   11   12 1   
    25   11   13 1   
@<TRIPOS>SUBSTRUCTURE
     1 9OD         1 TEMP              0 ****  ****    0 ROOT
