@<TRIPOS>MOLECULE
9OH
   53    53     1     0     0
SMALL
bcc


@<TRIPOS>ATOM
      1 C1          4.3230    1.3000   -1.2140 c         1 9OH      0.907600
      2 C2          5.3670    1.8530   -0.2260 c3        1 9OH     -0.194400
      3 C3          5.3740    1.0650    1.0600 c3        1 9OH     -0.065400
      4 C4          6.2690    1.6980    2.1060 c3        1 9OH     -0.078400
      5 C5          6.2830    0.8890    3.3850 c3        1 9OH     -0.079400
      6 C6          7.1880    1.5120    4.4260 c3        1 9OH     -0.077400
      7 C7          7.2070    0.6950    5.7010 c3        1 9OH     -0.079400
      8 C8          8.1570    1.2930    6.7140 c3        1 9OH     -0.076400
      9 C9          8.2670    0.4160    7.9600 c3        1 9OH      0.171300
     10 C10         8.9510   -0.8870    7.6850 c2        1 9OH     -0.198200
     11 C11        10.2450   -1.0610    7.4010 c2        1 9OH     -0.141200
     12 C12        11.2210    0.0280    7.2720 cx        1 9OH      0.086300
     13 C13        12.0680    0.1260    6.0430 cx        1 9OH      0.076100
     14 C14        12.5910    1.4450    5.5620 c3        1 9OH     -0.074400
     15 C15        11.8130    1.9210    4.3530 c3        1 9OH     -0.080400
     16 C16        12.3140    3.2690    3.8790 c3        1 9OH     -0.076400
     17 C17        11.5450    3.7410    2.6630 c3        1 9OH     -0.083400
     18 C18        12.0310    5.0860    2.1900 c3        1 9OH     -0.091100
     19 O19         3.1630    1.0380   -0.7820 o         1 9OH     -0.852800
     20 O20         4.6760    1.1520   -2.4190 o         1 9OH     -0.852800
     21 O21         8.9610    1.1970    8.9330 oh        1 9OH     -0.604800
     22 O22        12.6090   -0.3600    7.2820 os        1 9OH     -0.413600
     23 H21         6.3780    1.8310   -0.7040 hc        1 9OH      0.018700
     24 H22         5.1080    2.9230   -0.0180 hc        1 9OH      0.018700
     25 H31         4.3220    0.9930    1.4440 hc        1 9OH      0.044200
     26 H32         5.7220    0.0190    0.8540 hc        1 9OH      0.044200
     27 H41         7.3130    1.7860    1.7050 hc        1 9OH      0.026200
     28 H42         5.9110    2.7390    2.3250 hc        1 9OH      0.026200
     29 H51         6.6290   -0.1550    3.1630 hc        1 9OH      0.036700
     30 H52         5.2400    0.8110    3.7900 hc        1 9OH      0.036700
     31 H61         8.2310    1.5940    4.0180 hc        1 9OH      0.035200
     32 H62         6.8400    2.5540    4.6520 hc        1 9OH      0.035200
     33 H71         6.1720    0.6470    6.1310 hc        1 9OH      0.040200
     34 H72         7.5190   -0.3580    5.4690 hc        1 9OH      0.040200
     35 H81         9.1770    1.4170    6.2640 hc        1 9OH      0.054200
     36 H82         7.8010    2.3100    7.0240 hc        1 9OH      0.054200
     37 H91         7.2310    0.2050    8.3590 h1        1 9OH      0.037700
     38 H101        8.2790   -1.7610    7.7140 ha        1 9OH      0.127000
     39 H111       10.6500   -2.0730    7.2250 ha        1 9OH      0.134000
     40 H121       11.0020    0.9410    7.8670 h1        1 9OH      0.116700
     41 H131       11.9830   -0.6530    5.2580 h1        1 9OH      0.090700
     42 H141       12.5270    2.2070    6.3840 hc        1 9OH      0.053200
     43 H142       13.6760    1.3310    5.3000 hc        1 9OH      0.053200
     44 H151       10.7220    1.9930    4.6090 hc        1 9OH      0.048200
     45 H152       11.9080    1.1710    3.5240 hc        1 9OH      0.048200
     46 H161       12.2090    4.0210    4.7050 hc        1 9OH      0.036200
     47 H162       13.4060    3.1990    3.6310 hc        1 9OH      0.036200
     48 H171       11.6540    2.9890    1.8370 hc        1 9OH      0.047200
     49 H172       10.4520    3.8000    2.9110 hc        1 9OH      0.047200
     50 H181       11.4510    5.4140    1.2940 hc        1 9OH      0.031033
     51 H182       11.9060    5.8550    2.9910 hc        1 9OH      0.031033
     52 H183       13.1130    5.0420    1.9140 hc        1 9OH      0.031033
     53 H211        9.1500    0.6130    9.6750 ho        1 9OH      0.399000
@<TRIPOS>BOND
     1    1    2 1   
     2    1   19 1   
     3    1   20 1   
     4    2    3 1   
     5    2   23 1   
     6    2   24 1   
     7    3    4 1   
     8    3   25 1   
     9    3   26 1   
    10    4    5 1   
    11    4   27 1   
    12    4   28 1   
    13    5    6 1   
    14    5   29 1   
    15    5   30 1   
    16    6    7 1   
    17    6   31 1   
    18    6   32 1   
    19    7    8 1   
    20    7   33 1   
    21    7   34 1   
    22    8    9 1   
    23    8   35 1   
    24    8   36 1   
    25    9   10 1   
    26    9   21 1   
    27    9   37 1   
    28   10   11 2   
    29   10   38 1   
    30   11   12 1   
    31   11   39 1   
    32   12   13 1   
    33   12   22 1   
    34   12   40 1   
    35   13   14 1   
    36   13   22 1   
    37   13   41 1   
    38   14   15 1   
    39   14   42 1   
    40   14   43 1   
    41   15   16 1   
    42   15   44 1   
    43   15   45 1   
    44   16   17 1   
    45   16   46 1   
    46   16   47 1   
    47   17   18 1   
    48   17   48 1   
    49   17   49 1   
    50   18   50 1   
    51   18   51 1   
    52   18   52 1   
    53   21   53 1   
@<TRIPOS>SUBSTRUCTURE
     1 9OH         1 TEMP              0 ****  ****    0 ROOT
