@<TRIPOS>MOLECULE
9OH
   53    53     1     0     0
SMALL
bcc


@<TRIPOS>ATOM
      1 C1          3.8870    1.4650   -0.8020 c         1 9OH      0.907600
      2 C2          5.0480    1.9720    0.0720 c3        1 9OH     -0.194400
      3 C3          5.1080    1.2320    1.3860 c3        1 9OH     -0.065400
      4 C4          6.1320    1.8320    2.3270 c3        1 9OH     -0.078400
      5 C5          6.1960    1.0690    3.6330 c3        1 9OH     -0.079400
      6 C6          7.2300    1.6580    4.5690 c3        1 9OH     -0.077400
      7 C7          7.2970    0.8880    5.8710 c3        1 9OH     -0.079400
      8 C8          8.3720    1.4470    6.7760 c3        1 9OH     -0.076400
      9 C9          8.5230    0.6100    8.0450 c3        1 9OH      0.171300
     10 C10         9.0820   -0.7510    7.7700 c2        1 9OH     -0.198200
     11 C11        10.3310   -1.0350    7.3870 c2        1 9OH     -0.141200
     12 C12        11.3700   -0.0290    7.1320 cx        1 9OH      0.086300
     13 C13        12.1140   -0.0410    5.8340 cx        1 9OH      0.076100
     14 C14        12.6900    1.2160    5.2580 c3        1 9OH     -0.074400
     15 C15        11.8490    1.7070    4.0970 c3        1 9OH     -0.080400
     16 C16        12.4060    2.9930    3.5270 c3        1 9OH     -0.076400
     17 C17        11.5730    3.4790    2.3590 c3        1 9OH     -0.083400
     18 C18        12.1160    4.7660    1.7910 c3        1 9OH     -0.091100
     19 O19         2.7520    1.3080   -0.2660 o         1 9OH     -0.852800
     20 O20         4.1240    1.2470   -2.0250 o         1 9OH     -0.852800
     21 O21         9.3530    1.3690    8.9240 oh        1 9OH     -0.604800
     22 O22        12.7220   -0.5230    7.0450 os        1 9OH     -0.413600
     23 H21         6.0110    1.8550   -0.4850 hc        1 9OH      0.018700
     24 H22         4.8870    3.0640    0.2560 hc        1 9OH      0.018700
     25 H31         5.3600    0.1550    1.1960 hc        1 9OH      0.044200
     26 H32         4.0890    1.2540    1.8570 hc        1 9OH      0.044200
     27 H41         5.8720    2.9040    2.5310 hc        1 9OH      0.026200
     28 H42         7.1420    1.8250    1.8380 hc        1 9OH      0.026200
     29 H51         5.1880    1.0870    4.1260 hc        1 9OH      0.036700
     30 H52         6.4440   -0.0050    3.4280 hc        1 9OH      0.036700
     31 H61         8.2370    1.6450    4.0730 hc        1 9OH      0.035200
     32 H62         6.9800    2.7310    4.7790 hc        1 9OH      0.035200
     33 H71         6.3020    0.9360    6.3870 hc        1 9OH      0.040200
     34 H72         7.5090   -0.1930    5.6590 hc        1 9OH      0.040200
     35 H81         8.1200    2.4990    7.0720 hc        1 9OH      0.053700
     36 H82         9.3560    1.4760    6.2390 hc        1 9OH      0.053700
     37 H91         7.5120    0.4930    8.5370 h1        1 9OH      0.037700
     38 H101        8.3530   -1.5700    7.8910 ha        1 9OH      0.127000
     39 H111       10.6440   -2.0810    7.2210 ha        1 9OH      0.134000
     40 H121       11.2710    0.9180    7.7050 h1        1 9OH      0.116700
     41 H131       11.9050   -0.8390    5.0930 h1        1 9OH      0.090700
     42 H141       13.7380    1.0080    4.9120 hc        1 9OH      0.053200
     43 H142       12.7530    2.0090    6.0490 hc        1 9OH      0.053200
     44 H151       11.8180    0.9220    3.2950 hc        1 9OH      0.048200
     45 H152       10.7920    1.8710    4.4390 hc        1 9OH      0.048200
     46 H161       13.4640    2.8310    3.1930 hc        1 9OH      0.036200
     47 H162       12.4280    3.7810    4.3260 hc        1 9OH      0.036200
     48 H171       10.5130    3.6320    2.6930 hc        1 9OH      0.047200
     49 H172       11.5550    2.6920    1.5590 hc        1 9OH      0.047200
     50 H181       12.1170    5.5700    2.5670 hc        1 9OH      0.031033
     51 H182       11.4870    5.1040    0.9330 hc        1 9OH      0.031033
     52 H183       13.1630    4.6270    1.4290 hc        1 9OH      0.031033
     53 H211        9.5620    0.7990    9.6720 ho        1 9OH      0.399000
@<TRIPOS>BOND
     1    1    2 1   
     2    1   19 1   
     3    1   20 1   
     4    2    3 1   
     5    2   23 1   
     6    2   24 1   
     7    3    4 1   
     8    3   25 1   
     9    3   26 1   
    10    4    5 1   
    11    4   27 1   
    12    4   28 1   
    13    5    6 1   
    14    5   29 1   
    15    5   30 1   
    16    6    7 1   
    17    6   31 1   
    18    6   32 1   
    19    7    8 1   
    20    7   33 1   
    21    7   34 1   
    22    8    9 1   
    23    8   35 1   
    24    8   36 1   
    25    9   10 1   
    26    9   21 1   
    27    9   37 1   
    28   10   11 2   
    29   10   38 1   
    30   11   12 1   
    31   11   39 1   
    32   12   13 1   
    33   12   22 1   
    34   12   40 1   
    35   13   14 1   
    36   13   22 1   
    37   13   41 1   
    38   14   15 1   
    39   14   42 1   
    40   14   43 1   
    41   15   16 1   
    42   15   44 1   
    43   15   45 1   
    44   16   17 1   
    45   16   46 1   
    46   16   47 1   
    47   17   18 1   
    48   17   48 1   
    49   17   49 1   
    50   18   50 1   
    51   18   51 1   
    52   18   52 1   
    53   21   53 1   
@<TRIPOS>SUBSTRUCTURE
     1 9OH         1 TEMP              0 ****  ****    0 ROOT
