@<TRIPOS>MOLECULE
9OH
   53    53     1     0     0
SMALL
bcc


@<TRIPOS>ATOM
      1 C1          1.3500    0.1700   -8.9310 c         1 9OH      0.907600
      2 C2          1.6170   -0.2860   -7.4850 c3        1 9OH     -0.194400
      3 C3          0.4090   -0.0650   -6.6080 c3        1 9OH     -0.065400
      4 C4          0.7190   -0.3190   -5.1470 c3        1 9OH     -0.078400
      5 C5         -0.5030   -0.1170   -4.2770 c3        1 9OH     -0.078400
      6 C6         -0.1820   -0.3420   -2.8140 c3        1 9OH     -0.078400
      7 C7         -1.4010   -0.1390   -1.9420 c3        1 9OH     -0.080400
      8 C8         -1.0700   -0.3530   -0.4810 c3        1 9OH     -0.106400
      9 C9         -2.2690   -0.0480    0.4160 c3        1 9OH      0.163300
     10 C10        -1.9490   -0.3870    1.8370 c2        1 9OH     -0.169200
     11 C11        -2.1970    0.4200    2.8720 c2        1 9OH     -0.183200
     12 C12        -1.9160    0.0860    4.2720 cx        1 9OH      0.101300
     13 C13        -0.5270    0.1070    4.8230 cx        1 9OH      0.068100
     14 C14        -0.2810    0.4280    6.2660 c3        1 9OH     -0.075400
     15 C15         1.0840   -0.0530    6.7130 c3        1 9OH     -0.078400
     16 C16         1.3230    0.2680    8.1730 c3        1 9OH     -0.078400
     17 C17         2.6900   -0.2060    8.6220 c3        1 9OH     -0.080400
     18 C18         2.9340    0.1090   10.0750 c3        1 9OH     -0.092100
     19 O19         0.8050    1.2970   -9.1180 o         1 9OH     -0.852800
     20 O20         1.7090   -0.6010   -9.8670 o         1 9OH     -0.852800
     21 O21        -2.7110    1.2930    0.2680 oh        1 9OH     -0.594800
     22 O22        -1.2000   -1.1330    4.5490 os        1 9OH     -0.407600
     23 H21         2.4850    0.3030   -7.0960 hc        1 9OH      0.018700
     24 H22         1.9070   -1.3670   -7.4850 hc        1 9OH      0.018700
     25 H31        -0.4210   -0.7430   -6.9370 hc        1 9OH      0.044200
     26 H32         0.0500    0.9890   -6.7500 hc        1 9OH      0.044200
     27 H41         1.5360    0.3740   -4.8130 hc        1 9OH      0.025700
     28 H42         1.1020   -1.3650   -5.0190 hc        1 9OH      0.025700
     29 H51        -1.3130   -0.8240   -4.5970 hc        1 9OH      0.038200
     30 H52        -0.8970    0.9230   -4.4200 hc        1 9OH      0.038200
     31 H61         0.6300    0.3650   -2.4970 hc        1 9OH      0.033700
     32 H62         0.2140   -1.3820   -2.6720 hc        1 9OH      0.033700
     33 H71        -2.2110   -0.8500   -2.2520 hc        1 9OH      0.046200
     34 H72        -1.8040    0.9000   -2.0830 hc        1 9OH      0.046200
     35 H81        -0.2110    0.3060   -0.1870 hc        1 9OH      0.046200
     36 H82        -0.7530   -1.4150   -0.3150 hc        1 9OH      0.046200
     37 H91        -3.1620   -0.6580    0.0870 h1        1 9OH      0.085700
     38 H101       -1.4980   -1.3830    1.9870 ha        1 9OH      0.141000
     39 H111       -2.6610    1.4110    2.7260 ha        1 9OH      0.142000
     40 H121       -2.7730    0.2560    4.9580 h1        1 9OH      0.090700
     41 H131        0.3290    0.3070    4.1470 h1        1 9OH      0.092700
     42 H141       -1.0750   -0.0460    6.9030 hc        1 9OH      0.052700
     43 H142       -0.3550    1.5400    6.4000 hc        1 9OH      0.052700
     44 H151        1.8790    0.4300    6.0860 hc        1 9OH      0.046700
     45 H152        1.1590   -1.1610    6.5510 hc        1 9OH      0.046700
     46 H161        0.5320   -0.2210    8.8000 hc        1 9OH      0.038700
     47 H162        1.2370    1.3740    8.3350 hc        1 9OH      0.038700
     48 H171        3.4800    0.2830    7.9920 hc        1 9OH      0.040200
     49 H172        2.7750   -1.3120    8.4550 hc        1 9OH      0.040200
     50 H181        3.9460   -0.2480   10.3840 hc        1 9OH      0.031700
     51 H182        2.8780    1.2090   10.2550 hc        1 9OH      0.031700
     52 H183        2.1710   -0.3910   10.7200 hc        1 9OH      0.031700
     53 H211       -1.9370    1.8620    0.3550 ho        1 9OH      0.398000
@<TRIPOS>BOND
     1    1    2 1   
     2    1   19 1   
     3    1   20 1   
     4    2    3 1   
     5    2   23 1   
     6    2   24 1   
     7    3    4 1   
     8    3   25 1   
     9    3   26 1   
    10    4    5 1   
    11    4   27 1   
    12    4   28 1   
    13    5    6 1   
    14    5   29 1   
    15    5   30 1   
    16    6    7 1   
    17    6   31 1   
    18    6   32 1   
    19    7    8 1   
    20    7   33 1   
    21    7   34 1   
    22    8    9 1   
    23    8   35 1   
    24    8   36 1   
    25    9   10 1   
    26    9   21 1   
    27    9   37 1   
    28   10   11 2   
    29   10   38 1   
    30   11   12 1   
    31   11   39 1   
    32   12   13 1   
    33   12   22 1   
    34   12   40 1   
    35   13   14 1   
    36   13   22 1   
    37   13   41 1   
    38   14   15 1   
    39   14   42 1   
    40   14   43 1   
    41   15   16 1   
    42   15   44 1   
    43   15   45 1   
    44   16   17 1   
    45   16   46 1   
    46   16   47 1   
    47   17   18 1   
    48   17   48 1   
    49   17   49 1   
    50   18   50 1   
    51   18   51 1   
    52   18   52 1   
    53   21   53 1   
@<TRIPOS>SUBSTRUCTURE
     1 9OH         1 TEMP              0 ****  ****    0 ROOT
