@<TRIPOS>MOLECULE
9PA
   58    59     1     0     0
SMALL
bcc


@<TRIPOS>ATOM
      1 O1          1.4340    0.6730    0.7830 o         1 9PA     -0.490000
      2 C2          2.4240    0.1170    0.3030 c         1 9PA      0.654700
      3 O3          3.0770   -0.6680    1.2110 oh        1 9PA     -0.577100
      4 C4          2.9450    0.2410   -1.0700 ca        1 9PA     -0.153600
      5 C5          3.6240   -0.7980   -1.6880 ca        1 9PA      0.080100
      6 O6          3.9380   -2.0510   -1.1740 os        1 9PA     -0.351900
      7 C7          4.6030   -2.7900   -2.2300 c3        1 9PA      0.327200
      8 O8          4.7350   -1.9020   -3.3630 os        1 9PA     -0.325900
      9 C9          4.1120   -0.7080   -3.0160 ca        1 9PA      0.048100
     10 C10         3.9460    0.4320   -3.7730 ca        1 9PA     -0.075000
     11 C11         3.2610    1.4910   -3.1540 ca        1 9PA     -0.138000
     12 C12         2.7620    1.4150   -1.8490 ca        1 9PA     -0.020300
     13 C13         1.9980    2.5790   -1.3130 c3        1 9PA     -0.052100
     14 C14         2.7630    3.3750   -0.2550 c3        1 9PA     -0.071700
     15 C15         3.8970    4.1630   -0.9320 c3        1 9PA      0.086000
     16 N16         5.0670    4.3380   -0.1080 ns        1 9PA     -0.557900
     17 C17         6.3400    4.2920   -0.6150 c         1 9PA      0.655100
     18 O18         6.5730    4.1110   -1.8290 o         1 9PA     -0.618100
     19 C19         7.4840    4.4870    0.3750 c3        1 9PA     -0.156400
     20 C20         8.7960    4.5490   -0.3790 c3        1 9PA     -0.074400
     21 C21         9.9600    4.7500    0.5710 c3        1 9PA     -0.110400
     22 C22        11.2450    4.8120   -0.2460 c3        1 9PA      0.098800
     23 N23        12.4590    5.0170    0.6000 nz        1 9PA     -0.839600
     24 C24         1.7740    4.2850    0.4610 c3        1 9PA     -0.081400
     25 C25         2.3400    5.0690    1.6340 c3        1 9PA     -0.066700
     26 C26         1.2750    6.0110    2.1670 c3        1 9PA     -0.094100
     27 C27         2.8200    4.1590    2.7460 c3        1 9PA     -0.094100
     28 H7          3.9570   -3.6550   -2.5190 h2        1 9PA      0.082700
     29 H7A         5.6240   -3.0700   -1.8730 h2        1 9PA      0.082700
     30 H10         4.3200    0.5110   -4.8030 ha        1 9PA      0.166000
     31 H11         3.1070    2.4170   -3.7320 ha        1 9PA      0.151000
     32 H13         1.0420    2.1960   -0.8560 hc        1 9PA      0.077200
     33 H13A        1.7140    3.2680   -2.1530 hc        1 9PA      0.077200
     34 H14         3.1800    2.6420    0.4920 hc        1 9PA      0.063700
     35 H15         3.5110    5.1820   -1.2250 h1        1 9PA      0.063200
     36 H15A        4.2100    3.6300   -1.8790 h1        1 9PA      0.063200
     37 HN16        4.9270    4.4460    0.8690 hn        1 9PA      0.318500
     38 H19         7.3260    5.4340    0.9550 hc        1 9PA      0.068200
     39 H19A        7.4910    3.6320    1.1000 hc        1 9PA      0.068200
     40 H20         8.7520    5.3870   -1.1250 hc        1 9PA      0.077700
     41 H20A        8.9290    3.5990   -0.9640 hc        1 9PA      0.077700
     42 H21        10.0000    3.9020    1.3050 hc        1 9PA      0.067700
     43 H21A        9.8150    5.7020    1.1490 hc        1 9PA      0.067700
     44 H22        11.1930    5.6650   -0.9840 hx        1 9PA      0.117700
     45 H22A       11.3840    3.8490   -0.8190 hx        1 9PA      0.117700
     46 HN23       13.2960    5.0520    0.0110 hn        1 9PA      0.461467
     47 HN2A       12.5530    4.2480    1.2720 hn        1 9PA      0.461467
     48 H24         0.9260    3.6490    0.8390 hc        1 9PA      0.056700
     49 H24A        1.3450    5.0100   -0.2820 hc        1 9PA      0.056700
     50 H25         3.2010    5.6990    1.2750 hc        1 9PA      0.029700
     51 H26         0.3920    5.4340    2.5340 hc        1 9PA      0.037700
     52 H26A        1.6800    6.6140    3.0140 hc        1 9PA      0.037700
     53 H26B        0.9340    6.7080    1.3650 hc        1 9PA      0.037700
     54 H27         3.6760    3.5280    2.4090 hc        1 9PA      0.037700
     55 H27A        3.1510    4.7640    3.6240 hc        1 9PA      0.037700
     56 H27B        1.9960    3.4790    3.0750 hc        1 9PA      0.037700
     57 H162        3.7950   -1.1650    0.7930 ho        1 9PA      0.440000
     58 H233       12.3800    5.8960    1.1220 hn        1 9PA      0.461467
@<TRIPOS>BOND
     1    1    2 2   
     2    2    3 1   
     3    2    4 1   
     4    3   57 1   
     5    4    5 ar  
     6    4   12 ar  
     7    5    6 1   
     8    5    9 ar  
     9    6    7 1   
    10    7    8 1   
    11    7   28 1   
    12    7   29 1   
    13    8    9 1   
    14    9   10 ar  
    15   10   11 ar  
    16   10   30 1   
    17   11   12 ar  
    18   11   31 1   
    19   12   13 1   
    20   13   14 1   
    21   13   32 1   
    22   13   33 1   
    23   14   15 1   
    24   14   24 1   
    25   14   34 1   
    26   15   16 1   
    27   15   35 1   
    28   15   36 1   
    29   16   17 1   
    30   16   37 1   
    31   17   18 2   
    32   17   19 1   
    33   19   20 1   
    34   19   38 1   
    35   19   39 1   
    36   20   21 1   
    37   20   40 1   
    38   20   41 1   
    39   21   22 1   
    40   21   42 1   
    41   21   43 1   
    42   22   23 1   
    43   22   44 1   
    44   22   45 1   
    45   23   46 1   
    46   23   47 1   
    47   23   58 1   
    48   24   25 1   
    49   24   48 1   
    50   24   49 1   
    51   25   26 1   
    52   25   27 1   
    53   25   50 1   
    54   26   51 1   
    55   26   52 1   
    56   26   53 1   
    57   27   54 1   
    58   27   55 1   
    59   27   56 1   
@<TRIPOS>SUBSTRUCTURE
     1 9PA         1 TEMP              0 ****  ****    0 ROOT
