@<TRIPOS>MOLECULE
9PA
   58    59     1     0     0
SMALL
bcc


@<TRIPOS>ATOM
      1 O1          1.4420    0.6630    0.8130 o         1 9PA     -0.490000
      2 C2          2.4260    0.1060    0.3220 c         1 9PA      0.654700
      3 O3          3.0870   -0.6830    1.2210 oh        1 9PA     -0.577100
      4 C4          2.9330    0.2350   -1.0560 ca        1 9PA     -0.153600
      5 C5          3.6060   -0.8030   -1.6830 ca        1 9PA      0.080100
      6 O6          3.9220   -2.0590   -1.1760 os        1 9PA     -0.351900
      7 C7          4.5760   -2.7950   -2.2410 c3        1 9PA      0.327200
      8 O8          4.6990   -1.9040   -3.3720 os        1 9PA     -0.325900
      9 C9          4.0800   -0.7100   -3.0160 ca        1 9PA      0.048100
     10 C10         3.9080    0.4330   -3.7680 ca        1 9PA     -0.075000
     11 C11         3.2310    1.4910   -3.1380 ca        1 9PA     -0.139000
     12 C12         2.7450    1.4120   -1.8290 ca        1 9PA     -0.020300
     13 C13         1.9880    2.5740   -1.2820 c3        1 9PA     -0.052100
     14 C14         2.7640    3.3660   -0.2290 c3        1 9PA     -0.071700
     15 C15         3.8930    4.1550   -0.9150 c3        1 9PA      0.086000
     16 N16         5.0700    4.3270   -0.1020 n         1 9PA     -0.557900
     17 C17         6.3370    4.2940   -0.6240 c         1 9PA      0.655100
     18 O18         6.5580    4.1270   -1.8420 o         1 9PA     -0.618100
     19 C19         7.4920    4.4870    0.3540 c3        1 9PA     -0.156400
     20 C20         8.7940    4.5680   -0.4140 c3        1 9PA     -0.074400
     21 C21         9.9680    4.7670    0.5230 c3        1 9PA     -0.110400
     22 C22        11.2420    4.8480   -0.3080 c3        1 9PA      0.098800
     23 N23        12.4650    5.0530    0.5250 n4        1 9PA     -0.839600
     24 C24         1.7840    4.2750    0.5000 c3        1 9PA     -0.081400
     25 C25         2.3620    5.0530    1.6710 c3        1 9PA     -0.066700
     26 C26         1.3040    5.9950    2.2170 c3        1 9PA     -0.094100
     27 C27         2.8510    4.1390    2.7740 c3        1 9PA     -0.094100
     28 H7          5.6000   -3.0780   -1.8950 h2        1 9PA      0.082700
     29 H7A         3.9260   -3.6590   -2.5270 h2        1 9PA      0.082700
     30 H10         4.2730    0.5140   -4.8010 ha        1 9PA      0.166000
     31 H11         3.0730    2.4190   -3.7120 ha        1 9PA      0.151000
     32 H13         1.0350    2.1920   -0.8170 hc        1 9PA      0.077200
     33 H13A        1.6960    3.2670   -2.1170 hc        1 9PA      0.077200
     34 H14         3.1880    2.6300    0.5110 hc        1 9PA      0.063700
     35 H15         3.5040    5.1750   -1.2020 h1        1 9PA      0.062700
     36 H15A        4.1960    3.6240   -1.8660 h1        1 9PA      0.062700
     37 HN16        4.9410    4.4270    0.8770 hn        1 9PA      0.318500
     38 H19         7.3340    5.4250    0.9480 hc        1 9PA      0.068200
     39 H19A        7.5140    3.6230    1.0690 hc        1 9PA      0.068200
     40 H20         8.9270    3.6270   -1.0130 hc        1 9PA      0.077200
     41 H20A        8.7350    5.4150   -1.1490 hc        1 9PA      0.077200
     42 H21         9.8230    5.7100    1.1150 hc        1 9PA      0.067700
     43 H21A       10.0230    3.9100    1.2460 hc        1 9PA      0.067700
     44 H22        11.3820    3.8930   -0.8940 hx        1 9PA      0.117700
     45 H22A       11.1750    5.7100   -1.0350 hx        1 9PA      0.117700
     46 HN23       12.5740    4.2760    1.1870 hn        1 9PA      0.461467
     47 HN2A       13.2950    5.1010   -0.0730 hn        1 9PA      0.461467
     48 H24         1.3480    5.0030   -0.2360 hc        1 9PA      0.056700
     49 H24A        0.9390    3.6390    0.8840 hc        1 9PA      0.056700
     50 H25         3.2210    5.6840    1.3060 hc        1 9PA      0.029700
     51 H26         1.7190    6.5940    3.0630 hc        1 9PA      0.037700
     52 H26A        0.4230    5.4180    2.5910 hc        1 9PA      0.037700
     53 H26B        0.9560    6.6960    1.4210 hc        1 9PA      0.037700
     54 H27         2.0300    3.4590    3.1090 hc        1 9PA      0.037700
     55 H27A        3.1920    4.7400    3.6510 hc        1 9PA      0.037700
     56 H27B        3.7040    3.5070    2.4270 hc        1 9PA      0.037700
     57 H162        3.7990   -1.1790    0.7940 ho        1 9PA      0.440000
     58 H233       12.3850    5.9250    1.0590 hn        1 9PA      0.461467
@<TRIPOS>BOND
     1    1    2 2   
     2    2    3 1   
     3    2    4 1   
     4    3   57 1   
     5    4    5 ar  
     6    4   12 ar  
     7    5    6 1   
     8    5    9 ar  
     9    6    7 1   
    10    7    8 1   
    11    7   28 1   
    12    7   29 1   
    13    8    9 1   
    14    9   10 ar  
    15   10   11 ar  
    16   10   30 1   
    17   11   12 ar  
    18   11   31 1   
    19   12   13 1   
    20   13   14 1   
    21   13   32 1   
    22   13   33 1   
    23   14   15 1   
    24   14   24 1   
    25   14   34 1   
    26   15   16 1   
    27   15   35 1   
    28   15   36 1   
    29   16   17 1   
    30   16   37 1   
    31   17   18 2   
    32   17   19 1   
    33   19   20 1   
    34   19   38 1   
    35   19   39 1   
    36   20   21 1   
    37   20   40 1   
    38   20   41 1   
    39   21   22 1   
    40   21   42 1   
    41   21   43 1   
    42   22   23 1   
    43   22   44 1   
    44   22   45 1   
    45   23   46 1   
    46   23   47 1   
    47   23   58 1   
    48   24   25 1   
    49   24   48 1   
    50   24   49 1   
    51   25   26 1   
    52   25   27 1   
    53   25   50 1   
    54   26   51 1   
    55   26   52 1   
    56   26   53 1   
    57   27   54 1   
    58   27   55 1   
    59   27   56 1   
@<TRIPOS>SUBSTRUCTURE
     1 9PA         1 TEMP              0 ****  ****    0 ROOT
