@<TRIPOS>MOLECULE
9PA
   56    57     1     0     0
SMALL
bcc


@<TRIPOS>ATOM
      1 O1          0.9210   -1.2100    2.3120 o         1 9PA     -0.821300
      2 C2          0.1940   -0.4310    1.6430 c         1 9PA      0.925200
      3 O3         -1.0670   -0.3590    1.7410 o         1 9PA     -0.821300
      4 C4          0.8470    0.4570    0.5930 ca        1 9PA     -0.092600
      5 C5          1.0150    1.8180    0.7690 ca        1 9PA      0.066100
      6 O6          0.7010    2.6000    1.8840 os        1 9PA     -0.315900
      7 C7          1.0750    3.9530    1.5670 c3        1 9PA      0.319200
      8 O8          1.6190    3.9700    0.2290 os        1 9PA     -0.355900
      9 C9          1.5730    2.6540   -0.2320 ca        1 9PA      0.030100
     10 C10         1.9770    2.1590   -1.4530 ca        1 9PA     -0.138000
     11 C11         1.8190    0.7750   -1.6380 ca        1 9PA     -0.149000
     12 C12         1.2840   -0.0610   -0.6530 ca        1 9PA     -0.061300
     13 C13         1.2630   -1.5300   -0.9090 c3        1 9PA     -0.027100
     14 C14        -0.1130   -2.1870   -0.9000 c3        1 9PA     -0.103700
     15 C15        -1.1040   -1.4350   -1.8100 c3        1 9PA      0.083000
     16 N16        -1.9240   -0.4800   -1.1030 n         1 9PA     -0.533900
     17 C17        -3.2830   -0.6950   -0.9380 c         1 9PA      0.652100
     18 O18        -3.9390   -1.4460   -1.6940 o         1 9PA     -0.655100
     19 C19        -3.9670    0.0780    0.1770 c3        1 9PA     -0.165400
     20 C20        -4.0380    1.5570   -0.1300 c3        1 9PA     -0.067400
     21 C21        -4.7140    2.3030    1.0020 c3        1 9PA     -0.086400
     22 C22        -4.7160    3.8030    0.7170 c3        1 9PA      0.152800
     23 N23        -5.3390    4.5970    1.7540 n3        1 9PA     -0.916800
     24 C24         0.0140   -3.6530   -1.3000 c3        1 9PA     -0.061400
     25 C25        -0.1150   -4.5980   -0.1110 c3        1 9PA     -0.068700
     26 C26        -0.1160   -6.0340   -0.5990 c3        1 9PA     -0.097600
     27 C27         0.9870   -4.3860    0.9050 c3        1 9PA     -0.097600
     28 H7          0.1600    4.5950    1.5870 h2        1 9PA      0.051200
     29 H7A         1.8700    4.2840    2.2800 h2        1 9PA      0.051200
     30 H10         2.3980    2.8010   -2.2340 ha        1 9PA      0.132000
     31 H11         2.1350    0.3430   -2.5990 ha        1 9PA      0.119000
     32 H13         1.7590   -1.7400   -1.8970 hc        1 9PA      0.049200
     33 H13A        1.8790   -2.0240   -0.1040 hc        1 9PA      0.049200
     34 H14        -0.4980   -2.1490    0.1650 hc        1 9PA      0.110700
     35 H15        -0.5220   -0.8640   -2.5900 h1        1 9PA      0.047200
     36 H15A       -1.7760   -2.1630   -2.3470 h1        1 9PA      0.047200
     37 HN16       -1.4650   -0.0360   -0.3230 hn        1 9PA      0.342500
     38 H19        -4.9990   -0.3400    0.3020 hc        1 9PA      0.083700
     39 H19A       -3.3940   -0.0880    1.1340 hc        1 9PA      0.083700
     40 H20        -3.0010    1.9620   -0.2770 hc        1 9PA      0.046700
     41 H20A       -4.6030    1.7220   -1.0850 hc        1 9PA      0.046700
     42 H21        -5.7650    1.9350    1.1250 hc        1 9PA      0.048700
     43 H21A       -4.1680    2.0940    1.9600 hc        1 9PA      0.048700
     44 H22        -3.6480    4.1210    0.5230 h1        1 9PA      0.026200
     45 H22A       -5.2930    3.9940   -0.2330 h1        1 9PA      0.026200
     46 HN23       -5.1450    4.2170    2.6600 hn        1 9PA      0.340800
     47 HN2A       -4.9920    5.5360    1.7210 hn        1 9PA      0.340800
     48 H24        -0.7820   -3.9220   -2.0450 hc        1 9PA      0.028700
     49 H24A        1.0000   -3.8360   -1.8030 hc        1 9PA      0.028700
     50 H25        -1.1030   -4.3950    0.3930 hc        1 9PA      0.057700
     51 H26         0.8480   -6.2760   -1.1070 hc        1 9PA      0.033867
     52 H26A       -0.2460   -6.7340    0.2610 hc        1 9PA      0.033867
     53 H26B       -0.9500   -6.2020   -1.3230 hc        1 9PA      0.033867
     54 H27         0.9160   -5.1530    1.7130 hc        1 9PA      0.033867
     55 H27A        1.9890   -4.4760    0.4220 hc        1 9PA      0.033867
     56 H27B        0.9040   -3.3700    1.3760 hc        1 9PA      0.033867
@<TRIPOS>BOND
     1    1    2 1   
     2    2    3 1   
     3    2    4 1   
     4    4    5 ar  
     5    4   12 ar  
     6    5    6 1   
     7    5    9 ar  
     8    6    7 1   
     9    7    8 1   
    10    7   28 1   
    11    7   29 1   
    12    8    9 1   
    13    9   10 ar  
    14   10   11 ar  
    15   10   30 1   
    16   11   12 ar  
    17   11   31 1   
    18   12   13 1   
    19   13   14 1   
    20   13   32 1   
    21   13   33 1   
    22   14   15 1   
    23   14   24 1   
    24   14   34 1   
    25   15   16 1   
    26   15   35 1   
    27   15   36 1   
    28   16   17 1   
    29   16   37 1   
    30   17   18 2   
    31   17   19 1   
    32   19   20 1   
    33   19   38 1   
    34   19   39 1   
    35   20   21 1   
    36   20   40 1   
    37   20   41 1   
    38   21   22 1   
    39   21   42 1   
    40   21   43 1   
    41   22   23 1   
    42   22   44 1   
    43   22   45 1   
    44   23   46 1   
    45   23   47 1   
    46   24   25 1   
    47   24   48 1   
    48   24   49 1   
    49   25   26 1   
    50   25   27 1   
    51   25   50 1   
    52   26   51 1   
    53   26   52 1   
    54   26   53 1   
    55   27   54 1   
    56   27   55 1   
    57   27   56 1   
@<TRIPOS>SUBSTRUCTURE
     1 9PA         1 TEMP              0 ****  ****    0 ROOT
