@<TRIPOS>MOLECULE
9PA
   58    59     1     0     0
SMALL
bcc


@<TRIPOS>ATOM
      1 O1          1.4310    0.6780    0.7830 o         1 9PA     -0.490000
      2 C2          2.4210    0.1200    0.3030 c         1 9PA      0.654700
      3 O3          3.0730   -0.6660    1.2100 oh        1 9PA     -0.577100
      4 C4          2.9410    0.2450   -1.0700 ca        1 9PA     -0.153600
      5 C5          3.6190   -0.7950   -1.6890 ca        1 9PA      0.080100
      6 O6          3.9310   -2.0490   -1.1750 os        1 9PA     -0.351900
      7 C7          4.5950   -2.7880   -2.2320 c3        1 9PA      0.327200
      8 O8          4.7280   -1.9000   -3.3640 os        1 9PA     -0.325900
      9 C9          4.1060   -0.7050   -3.0180 ca        1 9PA      0.048100
     10 C10         3.9410    0.4360   -3.7740 ca        1 9PA     -0.075000
     11 C11         3.2580    1.4950   -3.1540 ca        1 9PA     -0.138000
     12 C12         2.7590    1.4200   -1.8490 ca        1 9PA     -0.020300
     13 C13         1.9970    2.5840   -1.3120 c3        1 9PA     -0.052100
     14 C14         2.7630    3.3790   -0.2540 c3        1 9PA     -0.071700
     15 C15         3.8990    4.1650   -0.9310 c3        1 9PA      0.086000
     16 N16         5.0680    4.3380   -0.1080 n         1 9PA     -0.557900
     17 C17         6.3410    4.2900   -0.6140 c         1 9PA      0.655100
     18 O18         6.5740    4.1090   -1.8280 o         1 9PA     -0.618100
     19 C19         7.4860    4.4830    0.3750 c3        1 9PA     -0.156400
     20 C20         8.7980    4.5420   -0.3790 c3        1 9PA     -0.074400
     21 C21         9.9630    4.7420    0.5700 c3        1 9PA     -0.110400
     22 C22        11.2470    4.8000   -0.2470 c3        1 9PA      0.098800
     23 N23        12.4620    5.0050    0.5990 n4        1 9PA     -0.839600
     24 C24         1.7760    4.2900    0.4620 c3        1 9PA     -0.081400
     25 C25         2.3430    5.0730    1.6360 c3        1 9PA     -0.066700
     26 C26         1.2790    6.0160    2.1690 c3        1 9PA     -0.094100
     27 C27         2.8220    4.1620    2.7470 c3        1 9PA     -0.094100
     28 H7          3.9470   -3.6520   -2.5210 h2        1 9PA      0.082700
     29 H7A         5.6160   -3.0690   -1.8750 h2        1 9PA      0.082700
     30 H10         4.3150    0.5140   -4.8040 ha        1 9PA      0.166000
     31 H11         3.1040    2.4210   -3.7320 ha        1 9PA      0.151000
     32 H13         1.7130    3.2740   -2.1520 hc        1 9PA      0.077200
     33 H13A        1.0400    2.2020   -0.8550 hc        1 9PA      0.077200
     34 H14         3.1790    2.6450    0.4920 hc        1 9PA      0.063700
     35 H15         3.5130    5.1850   -1.2240 h1        1 9PA      0.063200
     36 H15A        4.2100    3.6320   -1.8780 h1        1 9PA      0.063200
     37 HN16        3.7900   -1.1630    0.7910 ho        1 9PA      0.440000
     38 H19         7.4910    3.6280    1.1000 hc        1 9PA      0.068200
     39 H19A        7.3300    5.4310    0.9540 hc        1 9PA      0.068200
     40 H20         8.7560    5.3790   -1.1260 hc        1 9PA      0.077700
     41 H20A        8.9290    3.5910   -0.9630 hc        1 9PA      0.077700
     42 H21         9.8190    5.6940    1.1470 hc        1 9PA      0.067700
     43 H21A       10.0010    3.8950    1.3050 hc        1 9PA      0.067700
     44 H22        11.3850    3.8360   -0.8180 hx        1 9PA      0.117700
     45 H22A       11.1970    5.6530   -0.9860 hx        1 9PA      0.117700
     46 HN23       12.5550    4.2370    1.2720 hn        1 9PA      0.461467
     47 HN2A       13.2990    5.0370    0.0100 hn        1 9PA      0.461467
     48 H24         0.9270    3.6550    0.8410 hc        1 9PA      0.056700
     49 H24A        1.3470    5.0150   -0.2810 hc        1 9PA      0.056700
     50 H25         3.2050    5.7020    1.2770 hc        1 9PA      0.029700
     51 H26         0.9390    6.7140    1.3670 hc        1 9PA      0.037700
     52 H26A        0.3960    5.4400    2.5360 hc        1 9PA      0.037700
     53 H26B        1.6860    6.6180    3.0160 hc        1 9PA      0.037700
     54 H27         3.6780    3.5290    2.4090 hc        1 9PA      0.037700
     55 H27A        1.9980    3.4830    3.0760 hc        1 9PA      0.037700
     56 H27B        3.1550    4.7660    3.6250 hc        1 9PA      0.037700
     57 H162        4.9290    4.4470    0.8690 hn        1 9PA      0.318500
     58 H233       12.3840    5.8850    1.1190 hn        1 9PA      0.461467
@<TRIPOS>BOND
     1    1    2 2   
     2    2    3 1   
     3    2    4 1   
     4    3   37 1   
     5    4    5 ar  
     6    4   12 ar  
     7    5    6 1   
     8    5    9 ar  
     9    6    7 1   
    10    7    8 1   
    11    7   28 1   
    12    7   29 1   
    13    8    9 1   
    14    9   10 ar  
    15   10   11 ar  
    16   10   30 1   
    17   11   12 ar  
    18   11   31 1   
    19   12   13 1   
    20   13   14 1   
    21   13   32 1   
    22   13   33 1   
    23   14   15 1   
    24   14   24 1   
    25   14   34 1   
    26   15   16 1   
    27   15   35 1   
    28   15   36 1   
    29   16   17 1   
    30   16   57 1   
    31   17   18 2   
    32   17   19 1   
    33   19   20 1   
    34   19   38 1   
    35   19   39 1   
    36   20   21 1   
    37   20   40 1   
    38   20   41 1   
    39   21   22 1   
    40   21   42 1   
    41   21   43 1   
    42   22   23 1   
    43   22   44 1   
    44   22   45 1   
    45   23   46 1   
    46   23   47 1   
    47   23   58 1   
    48   24   25 1   
    49   24   48 1   
    50   24   49 1   
    51   25   26 1   
    52   25   27 1   
    53   25   50 1   
    54   26   51 1   
    55   26   52 1   
    56   26   53 1   
    57   27   54 1   
    58   27   55 1   
    59   27   56 1   
@<TRIPOS>SUBSTRUCTURE
     1 9PA         1 TEMP              0 ****  ****    0 ROOT
