@<TRIPOS>MOLECULE
9PA
   56    55     1     0     0
SMALL
bcc


@<TRIPOS>ATOM
      1 O1         -2.4470   -0.5680   -3.6770 o         1 9PA     -0.549500
      2 C2         -3.1670   -1.3110   -2.9000 c2        1 9PA      0.371000
      3 O3         -4.3720   -1.5800   -3.2180 o         1 9PA     -0.549500
      4 C4         -2.5010   -2.0520   -1.7100 c2        1 9PA     -0.055000
      5 C5         -2.1670   -3.4030   -1.8330 c1        1 9PA      0.018000
      6 O6         -2.1560   -4.2860   -2.9550 os        1 9PA     -0.197000
      7 C7         -1.5980   -5.5040   -2.5410 c3        1 9PA      0.097000
      8 O8         -1.3930   -5.4340   -1.1480 os        1 9PA     -0.241000
      9 C9         -1.7320   -4.1170   -0.7190 c1        1 9PA     -0.015000
     10 C10        -1.6310   -3.4740    0.5310 c1        1 9PA     -0.146000
     11 C11        -1.9620   -2.1370    0.6480 c1        1 9PA     -0.153000
     12 C12        -2.4000   -1.4200   -0.4720 c2        1 9PA     -0.060000
     13 C13        -2.9410    0.0200   -0.2930 c3        1 9PA     -0.125000
     14 C14        -1.9590    0.8280    0.5760 c3        1 9PA     -0.111000
     15 C15        -0.8570    1.3940   -0.3040 c3        1 9PA     -0.056000
     16 N16         0.4450    0.9950    0.2290 n         1 9PA     -0.355000
     17 C17         1.6560    1.4820   -0.3850 c2        1 9PA      0.294000
     18 O18         1.5950    2.2630   -1.3480 o         1 9PA     -0.402000
     19 C19         3.0420    0.9510    0.1080 c3        1 9PA     -0.186000
     20 C20         4.1440    1.3490   -0.8940 c3        1 9PA     -0.160000
     21 C21         5.5230    0.7400   -0.4240 c3        1 9PA     -0.159000
     22 C22         6.5540    0.9050   -1.5410 c3        1 9PA     -0.084000
     23 N23         7.7680    0.2170   -1.1850 n3        1 9PA     -0.348000
     24 C24        -2.6830    1.9530    1.2600 c3        1 9PA     -0.165000
     25 C25        -2.3920    1.9030    2.7790 c3        1 9PA     -0.103000
     26 C26        -2.1710    3.2520    3.2700 c3        1 9PA     -0.208000
     27 C27        -3.5820    1.2790    3.5070 c3        1 9PA     -0.208000
     28 H7         -2.2420   -6.2480   -2.7430 h2        1 9PA      0.089000
     29 H7A        -0.7210   -5.6310   -2.9940 h2        1 9PA      0.089000
     30 H10        -1.4230   -4.0100    1.3570 ha        1 9PA      0.129000
     31 H11        -1.9760   -1.7170    1.5270 ha        1 9PA      0.117000
     32 H13        -3.8470   -0.0140    0.1620 hc        1 9PA      0.104000
     33 H13A       -3.0310    0.4440   -1.1670 hc        1 9PA      0.104000
     34 H14        -1.5710    0.2500    1.2420 hc        1 9PA      0.084000
     35 H15        -0.9650    1.0260   -1.2730 h1        1 9PA      0.136500
     36 H15A       -0.9190    2.3840   -0.3180 h1        1 9PA      0.136500
     37 HN16        0.4930    0.4800    1.0200 hn        1 9PA      0.223000
     38 H19         3.0050   -0.0620    0.1860 hc        1 9PA      0.100500
     39 H19A        3.2430    1.3350    0.9770 hc        1 9PA      0.100500
     40 H20         4.2100    2.2480   -0.9300 hc        1 9PA      0.093000
     41 H20A        3.9220    1.0060   -1.7760 hc        1 9PA      0.093000
     42 H21         5.8320    1.2130    0.3810 hc        1 9PA      0.082000
     43 H21A        5.4120   -0.1920   -0.2250 hc        1 9PA      0.082000
     44 H22         6.7470    1.8660   -1.6710 h1        1 9PA      0.069500
     45 H22A        6.1820    0.5140   -2.4040 h1        1 9PA      0.069500
     46 HN23        8.0990   -0.1790   -1.9010 hn        1 9PA      0.138500
     47 HN2A        8.3890    0.8300   -0.8530 hn        1 9PA      0.138500
     48 H24        -3.6770    1.8620    1.1030 hc        1 9PA      0.093500
     49 H24A       -2.3470    2.8750    0.8700 hc        1 9PA      0.093500
     50 H25        -1.5590    1.3400    2.9460 hc        1 9PA      0.080000
     51 H26        -3.0060    3.7960    3.1400 hc        1 9PA      0.068333
     52 H26A       -1.9350    3.2170    4.2690 hc        1 9PA      0.068333
     53 H26B       -1.4120    3.6740    2.7570 hc        1 9PA      0.068333
     54 H27        -3.5070    1.4420    4.4400 hc        1 9PA      0.068333
     55 H27A       -3.5900    0.3280    3.3480 hc        1 9PA      0.068333
     56 H27B       -4.4220    1.6780    3.1690 hc        1 9PA      0.068333
@<TRIPOS>BOND
     1    1    2 1   
     2    2    3 1   
     3    2    4 1   
     4    4    5 1   
     5    4   12 1   
     6    5    6 1   
     7    6    7 1   
     8    7    8 1   
     9    7   28 1   
    10    7   29 1   
    11    8    9 1   
    12    9   10 1   
    13   10   30 1   
    14   11   12 1   
    15   11   31 1   
    16   12   13 1   
    17   13   14 1   
    18   13   32 1   
    19   13   33 1   
    20   14   15 1   
    21   14   24 1   
    22   14   34 1   
    23   15   16 1   
    24   15   35 1   
    25   15   36 1   
    26   16   17 1   
    27   16   37 1   
    28   17   18 1   
    29   17   19 1   
    30   19   20 1   
    31   19   38 1   
    32   19   39 1   
    33   20   21 1   
    34   20   40 1   
    35   20   41 1   
    36   21   22 1   
    37   21   42 1   
    38   21   43 1   
    39   22   23 1   
    40   22   44 1   
    41   22   45 1   
    42   23   46 1   
    43   23   47 1   
    44   24   25 1   
    45   24   48 1   
    46   24   49 1   
    47   25   26 1   
    48   25   27 1   
    49   25   50 1   
    50   26   51 1   
    51   26   52 1   
    52   26   53 1   
    53   27   54 1   
    54   27   55 1   
    55   27   56 1   
@<TRIPOS>SUBSTRUCTURE
     1 9PA         1 TEMP              0 ****  ****    0 ROOT
