@<TRIPOS>MOLECULE
9PC
   32    34     1     0     0
SMALL
bcc


@<TRIPOS>ATOM
      1 C11         2.4990    2.3550    0.5520 ce        1 9PC     -0.097700
      2 C12         3.6360    2.1370    1.2880 ce        1 9PC     -0.092000
      3 N           6.0140    4.1870    3.2540 n4        1 9PC     -0.767400
      4 C13         6.8360    1.7990    4.8550 ce        1 9PC      0.336500
      5 C1          7.6440    2.3760    3.8930 cf        1 9PC     -0.364400
      6 C2          8.8290    1.6400    3.2280 c3        1 9PC      0.281000
      7 C3          9.2440    0.4730    4.1280 c2        1 9PC     -0.159300
      8 F1          5.8330    2.4530    5.4550 f         1 9PC     -0.128500
      9 C           7.4570    3.7180    3.3710 c         1 9PC      0.586300
     10 O           8.2830    4.5170    2.9590 o         1 9PC     -0.401100
     11 C5          6.9860    0.3400    5.0820 ce        1 9PC      0.026000
     12 C4          8.2160   -0.0590    4.7500 c1        1 9PC      0.059200
     13 O1          5.9030   -0.3500    5.5400 os        1 9PC     -0.267900
     14 C6          5.2900   -1.2240    4.5790 c3        1 9PC      0.109100
     15 C7          4.3940   -0.4850    3.6400 cc        1 9PC      0.277200
     16 S           2.8410   -1.1290    3.2840 ss        1 9PC      0.144600
     17 C9          2.5290    0.1380    2.2220 cd        1 9PC      0.046500
     18 N2          1.4160    0.4130    1.4460 nh        1 9PC     -0.183400
     19 C10         1.3440    1.4720    0.6350 c1        1 9PC      0.035100
     20 CL          2.3810    3.6520   -0.5140 cl        1 9PC     -0.024400
     21 C8          3.6600    1.0190    2.1790 cd        1 9PC     -0.058000
     22 N1          4.7080    0.6530    3.0190 nd        1 9PC     -0.561300
     23 H1          4.5340    2.7600    1.1730 ha        1 9PC      0.121000
     24 H2          5.4340    3.4270    2.8740 hn        1 9PC      0.473467
     25 H3          5.6540    4.4350    4.1830 hn        1 9PC      0.473467
     26 H4          9.7080    2.3580    3.2260 h1        1 9PC      0.116700
     27 H5         10.3110    0.2650    4.2700 ha        1 9PC      0.207000
     28 H6          4.6930   -1.9220    5.2320 h1        1 9PC      0.102700
     29 H7          6.0720   -1.7920    4.0060 h1        1 9PC      0.102700
     30 H8          0.6320   -0.2100    1.4860 hn        1 9PC      0.330700
     31 HN3         5.9570    5.0090    2.6420 hn        1 9PC      0.473467
     32 F           8.5310    1.3040    1.9260 f         1 9PC     -0.196300
@<TRIPOS>BOND
     1    1    2 1   
     2    1   19 2   
     3    1   20 1   
     4    2   21 2   
     5    2   23 1   
     6    3    9 1   
     7    3   24 1   
     8    3   25 1   
     9    3   31 1   
    10    4    5 2   
    11    4    8 1   
    12    4   11 1   
    13    5    6 1   
    14    5    9 1   
    15    6    7 1   
    16    6   26 1   
    17    6   32 1   
    18    7   12 2   
    19    7   27 1   
    20    9   10 2   
    21   11   12 2   
    22   11   13 1   
    23   13   14 1   
    24   14   15 1   
    25   14   28 1   
    26   14   29 1   
    27   15   16 1   
    28   15   22 2   
    29   16   17 1   
    30   17   18 2   
    31   17   21 1   
    32   18   19 2   
    33   18   30 1   
    34   21   22 1   
@<TRIPOS>SUBSTRUCTURE
     1 9PC         1 TEMP              0 ****  ****    0 ROOT
