@<TRIPOS>MOLECULE
9PC
   32    34     1     0     0
SMALL
bcc


@<TRIPOS>ATOM
      1 C11         1.9020    1.7250    0.2370 ce        1 9PC     -0.111700
      2 C12         3.0830    1.6200    0.9270 ce        1 9PC     -0.059000
      3 N           7.4400    4.8010    3.2770 nz        1 9PC     -0.767400
      4 C13         6.8070    1.9740    4.2260 ce        1 9PC      0.318500
      5 C1          8.0770    2.4780    4.0250 cf        1 9PC     -0.372400
      6 C2          9.3200    1.5520    3.9280 c3        1 9PC      0.276000
      7 C3          8.8320    0.2390    3.3160 c2        1 9PC     -0.138300
      8 F1          5.7370    2.7580    4.3970 f         1 9PC     -0.124500
      9 C           8.4040    3.8930    4.0320 c         1 9PC      0.585300
     10 O           9.3560    4.4760    4.5240 o         1 9PC     -0.385100
     11 C5          6.6850    0.4980    4.4530 ce        1 9PC      0.080000
     12 C4          7.6920   -0.1370    3.8610 c1        1 9PC      0.003200
     13 O1          5.7240    0.0840    5.3270 os        1 9PC     -0.282900
     14 C6          4.8450   -0.9360    4.8170 c3        1 9PC      0.124100
     15 C7          3.9040   -0.4150    3.7850 cc        1 9PC      0.257200
     16 S           2.2870   -1.0040    3.7210 ss        1 9PC      0.113600
     17 C9          1.9590   -0.0290    2.3880 cd        1 9PC      0.049500
     18 N2          0.8030    0.1260    1.6430 nu        1 9PC     -0.185400
     19 C10         0.7210    0.9600    0.6010 c1        1 9PC      0.025100
     20 Cl          1.7520    2.7540   -1.0890 cl        1 9PC     -0.034400
     21 C8          3.1290    0.7260    2.0430 cd        1 9PC     -0.047000
     22 N1          4.2270    0.4890    2.8610 nd        1 9PC     -0.529300
     23 H1          3.9870    2.1820    0.6500 ha        1 9PC      0.149000
     24 H2          7.3980    4.5140    2.2950 hn        1 9PC      0.470467
     25 H3          6.4990    4.7350    3.6820 hn        1 9PC      0.470467
     26 H4          9.7320    1.4200    4.9730 h1        1 9PC      0.114700
     27 H5          9.3670   -0.2000    2.4650 ha        1 9PC      0.207000
     28 H6          4.2930   -1.2560    5.7450 h1        1 9PC      0.100200
     29 H7          5.4530   -1.7840    4.4000 h1        1 9PC      0.100200
     30 H8         -0.0070   -0.4080    1.8900 hn        1 9PC      0.325700
     31 HN3         7.7640    5.7750    3.3300 hn        1 9PC      0.470467
     32 F          10.2970    2.1190    3.1350 f         1 9PC     -0.199300
@<TRIPOS>BOND
     1    1    2 1   
     2    1   19 2   
     3    1   20 1   
     4    2   21 2   
     5    2   23 1   
     6    3    9 1   
     7    3   24 1   
     8    3   25 1   
     9    3   31 1   
    10    4    5 2   
    11    4    8 1   
    12    4   11 1   
    13    5    6 1   
    14    5    9 1   
    15    6    7 1   
    16    6   26 1   
    17    6   32 1   
    18    7   12 2   
    19    7   27 1   
    20    9   10 2   
    21   11   12 2   
    22   11   13 1   
    23   13   14 1   
    24   14   15 1   
    25   14   28 1   
    26   14   29 1   
    27   15   16 1   
    28   15   22 2   
    29   16   17 1   
    30   17   18 2   
    31   17   21 1   
    32   18   19 2   
    33   18   30 1   
    34   21   22 1   
@<TRIPOS>SUBSTRUCTURE
     1 9PC         1 TEMP              0 ****  ****    0 ROOT
