@<TRIPOS>MOLECULE
9PC
   31    25     1     0     0
SMALL
bcc


@<TRIPOS>ATOM
      1 C11        -4.8260   -1.1680   -4.3760 c1        1 9PC     -0.122000
      2 C12        -3.4580   -1.2080   -4.2270 c1        1 9PC     -0.035000
      3 N           3.9410    2.5820    4.3540 n3        1 9PC     -0.419000
      4 C13         1.7870    1.2220    1.5410 c1        1 9PC      0.148000
      5 C1          2.8170    1.3110    2.4630 c1        1 9PC     -0.184000
      6 C2          3.7810    0.3150    2.5250 c1        1 9PC      0.130000
      7 C3          3.7140   -0.7680    1.6630 c2        1 9PC     -0.176000
      8 F1          0.8710    2.1950    1.4650 f         1 9PC     -0.073000
      9 C           2.8960    2.4990    3.3980 c1        1 9PC      0.348000
     10 O           2.0560    3.3740    3.3400 o         1 9PC     -0.346000
     11 C5          1.7190    0.1380    0.6800 c1        1 9PC     -0.004000
     12 C4          2.6830   -0.8570    0.7410 c1        1 9PC     -0.050000
     13 F           4.8050    0.4270    3.3800 f         1 9PC     -0.100000
     14 O1          0.7170    0.0850   -0.3060 os        1 9PC     -0.193000
     15 C6         -0.3240   -0.8170   -0.0130 c3        1 9PC      0.035000
     16 C7         -1.3700   -0.7530   -1.1070 c2        1 9PC     -0.283000
     17 S          -2.8260   -0.6000   -0.6330 ss        1 9PC      0.512000
     18 C9         -3.7360   -0.7770   -1.8650 c1        1 9PC     -0.278000
     19 N2         -5.0920   -0.7380   -2.0170 n1        1 9PC     -0.086000
     20 C10        -5.6520   -0.9300   -3.2580 c1        1 9PC     -0.045000
     21 CL         -5.5770   -1.0580   -5.9460 cl        1 9PC      0.015000
     22 C8         -2.9000   -1.0170   -2.9930 c1        1 9PC     -0.099000
     23 N1         -1.3900   -1.0020   -2.5090 n1        1 9PC     -0.080000
     24 H1         -2.8860   -1.3730   -5.0010 ha        1 9PC      0.170000
     25 H2          4.1700    3.3910    4.7120 hn        1 9PC      0.228500
     26 H3          4.3690    1.8240    4.6290 hn        1 9PC      0.228500
     27 H4          4.3920   -1.4690    1.7070 ha        1 9PC      0.160000
     28 H5          2.6350   -1.6210    0.1350 ha        1 9PC      0.165000
     29 H6         -0.7330   -0.5770    0.8440 h1        1 9PC      0.124500
     30 H7          0.0360   -1.7260    0.0400 h1        1 9PC      0.124500
     31 H8         -6.6210   -0.9020   -3.3650 ha        1 9PC      0.181000
@<TRIPOS>BOND
     1    1    2 1   
     2    1   21 1   
     3    2   24 1   
     4    3    9 1   
     5    3   25 1   
     6    3   26 1   
     7    4    8 1   
     8    4   11 1   
     9    5    6 1   
    10    6    7 1   
    11    7   12 1   
    12    7   27 1   
    13    9   10 1   
    14   11   14 1   
    15   12   28 1   
    16   14   15 1   
    17   15   16 1   
    18   15   29 1   
    19   15   30 1   
    20   16   17 1   
    21   16   23 1   
    22   17   18 1   
    23   18   22 1   
    24   19   20 1   
    25   20   31 1   
@<TRIPOS>SUBSTRUCTURE
     1 9PC         1 TEMP              0 ****  ****    0 ROOT
