@<TRIPOS>MOLECULE
9PC
   31    33     1     0     0
SMALL
bcc


@<TRIPOS>ATOM
      1 C11         3.4510    1.8010    0.4370 ca        1 9PC     -0.109900
      2 C12         2.1770    1.2770    0.6000 ca        1 9PC     -0.024000
      3 N          -4.4910    2.3500   -0.8130 n         1 9PC     -0.660000
      4 C13        -2.2010   -0.4160   -0.7330 ca        1 9PC      0.224900
      5 C1         -3.1150    0.4510   -0.0970 ca        1 9PC     -0.209600
      6 C2         -3.8610   -0.0290    0.9990 ca        1 9PC      0.165900
      7 C3         -3.6990   -1.3470    1.4650 ca        1 9PC     -0.176000
      8 F1         -1.4860   -0.0020   -1.7950 f         1 9PC     -0.093900
      9 C          -3.2300    1.8650   -0.5650 c         1 9PC      0.677700
     10 O          -2.2260    2.5770   -0.7580 o         1 9PC     -0.585100
     11 C5         -2.0590   -1.7450   -0.2610 ca        1 9PC      0.040100
     12 C4         -2.8000   -2.1970    0.8330 ca        1 9PC     -0.087000
     13 O1         -1.2480   -2.6100   -0.9820 os        1 9PC     -0.311900
     14 C6         -0.0790   -3.0560   -0.2920 c3        1 9PC      0.118100
     15 C7          0.9790   -2.0040   -0.2150 cc        1 9PC      0.297200
     16 S           2.5730   -2.3510   -0.7910 ss        1 9PC     -0.049500
     17 C9          3.0860   -0.7910   -0.3670 ca        1 9PC      0.381600
     18 N2          4.3240   -0.2620   -0.5170 nb        1 9PC     -0.616000
     19 C10         4.4910    1.0000   -0.1210 ca        1 9PC      0.420200
     20 CL          3.7960    3.3940    0.8940 cl        1 9PC     -0.064400
     21 C8          1.9710   -0.0610    0.1970 ca        1 9PC     -0.019900
     22 N1          0.7810   -0.7880    0.2770 nd        1 9PC     -0.496100
     23 H1          1.3470    1.8690    1.0150 ha        1 9PC      0.179000
     24 H2         -5.2900    1.8430   -0.5310 hn        1 9PC      0.315000
     25 H3         -4.5950    3.3020   -1.0660 hn        1 9PC      0.315000
     26 H4         -4.2880   -1.6920    2.3270 ha        1 9PC      0.159000
     27 H5         -2.6710   -3.2320    1.1880 ha        1 9PC      0.152000
     28 H6         -0.3430   -3.4120    0.7400 h1        1 9PC      0.076200
     29 H7          0.2730   -3.9160   -0.9270 h1        1 9PC      0.076200
     30 H8          5.5080    1.4170   -0.2520 h4        1 9PC      0.042100
     31 F          -4.7480    0.7790    1.6280 f         1 9PC     -0.134900
@<TRIPOS>BOND
     1    1    2 ar  
     2    1   19 ar  
     3    1   20 1   
     4    2   21 ar  
     5    2   23 1   
     6    3    9 1   
     7    3   24 1   
     8    3   25 1   
     9    4    5 ar  
    10    4    8 1   
    11    4   11 ar  
    12    5    6 ar  
    13    5    9 1   
    14    6    7 ar  
    15    6   31 1   
    16    7   12 ar  
    17    7   26 1   
    18    9   10 2   
    19   11   12 ar  
    20   11   13 1   
    21   12   27 1   
    22   13   14 1   
    23   14   15 1   
    24   14   28 1   
    25   14   29 1   
    26   15   16 1   
    27   15   22 2   
    28   16   17 1   
    29   17   18 ar  
    30   17   21 ar  
    31   18   19 ar  
    32   19   30 1   
    33   21   22 1   
@<TRIPOS>SUBSTRUCTURE
     1 9PC         1 TEMP              0 ****  ****    0 ROOT
