@<TRIPOS>MOLECULE
9PC
   32    34     1     0     0
SMALL
bcc


@<TRIPOS>ATOM
      1 C11         2.6320    2.2130    0.3590 ce        1 9PC     -0.097700
      2 C12         3.7330    2.0240    1.1550 ce        1 9PC     -0.092000
      3 N           6.1360    4.1640    2.9910 n4        1 9PC     -0.767400
      4 C13         6.7940    1.9210    4.8560 ce        1 9PC      0.336500
      5 C1          7.6590    2.3600    3.8710 cf        1 9PC     -0.364400
      6 C2          8.8290    1.5090    3.3280 c3        1 9PC      0.281000
      7 C3          9.1600    0.4250    4.3570 c2        1 9PC     -0.159300
      8 F1          5.8040    2.6760    5.3490 f         1 9PC     -0.128500
      9 C           7.5510    3.6480    3.2080 c         1 9PC      0.586300
     10 O           8.4270    4.3640    2.7480 o         1 9PC     -0.401100
     11 C5          6.8690    0.4880    5.2360 ce        1 9PC      0.026000
     12 C4          8.0880    0.0050    4.9920 c1        1 9PC      0.059200
     13 O1          5.7410   -0.1040    5.7210 os        1 9PC     -0.267900
     14 C6          5.1190   -1.0460    4.8320 c3        1 9PC      0.109100
     15 C7          4.2910   -0.3700    3.7900 cc        1 9PC      0.277200
     16 S           2.7210   -0.9810    3.4420 ss        1 9PC      0.144600
     17 C9          2.5030    0.1810    2.2460 cd        1 9PC      0.046500
     18 N2          1.4310    0.4220    1.4040 nh        1 9PC     -0.183400
     19 C10         1.4350    1.3930    0.4870 c1        1 9PC      0.035100
     20 CL          2.6090    3.3960   -0.8390 cl        1 9PC     -0.024400
     21 C8          3.6750    1.0050    2.1560 cd        1 9PC     -0.058000
     22 N1          4.6770    0.6830    3.0680 nd        1 9PC     -0.561300
     23 H1          4.6620    2.5930    1.0110 ha        1 9PC      0.121000
     24 H2          5.5340    3.3940    2.6680 hn        1 9PC      0.473467
     25 H3          5.7580    4.5210    3.8750 hn        1 9PC      0.473467
     26 H4          9.7410    2.1860    3.2860 h1        1 9PC      0.116700
     27 H5         10.2110    0.1870    4.5590 ha        1 9PC      0.207000
     28 H6          4.4690   -1.6450    5.5300 h1        1 9PC      0.102700
     29 H7          5.8930   -1.7030    4.3500 h1        1 9PC      0.102700
     30 H8          0.6180   -0.1590    1.4780 hn        1 9PC      0.330700
     31 HN3         6.1380    4.9200    2.2960 hn        1 9PC      0.473467
     32 F           8.5580    1.0540    2.0570 f         1 9PC     -0.196300
@<TRIPOS>BOND
     1    1    2 1   
     2    1   19 2   
     3    1   20 1   
     4    2   21 2   
     5    2   23 1   
     6    3    9 1   
     7    3   24 1   
     8    3   25 1   
     9    3   31 1   
    10    4    5 2   
    11    4    8 1   
    12    4   11 1   
    13    5    6 1   
    14    5    9 1   
    15    6    7 1   
    16    6   26 1   
    17    6   32 1   
    18    7   12 2   
    19    7   27 1   
    20    9   10 2   
    21   11   12 2   
    22   11   13 1   
    23   13   14 1   
    24   14   15 1   
    25   14   28 1   
    26   14   29 1   
    27   15   16 1   
    28   15   22 2   
    29   16   17 1   
    30   17   18 2   
    31   17   21 1   
    32   18   19 2   
    33   18   30 1   
    34   21   22 1   
@<TRIPOS>SUBSTRUCTURE
     1 9PC         1 TEMP              0 ****  ****    0 ROOT
