@<TRIPOS>MOLECULE
9PE
   99    98     1     0     0
SMALL
bcc


@<TRIPOS>ATOM
      1 P          -4.4690    2.1240   -0.4620 p5        1 9PE      1.443800
      2 N          -6.8730    1.6810   -3.2420 n3        1 9PE     -0.908800
      3 O11        -5.3770    2.0530    0.9160 os        1 9PE     -0.559200
      4 O12        -5.0730    3.1020   -1.3870 o         1 9PE     -0.840500
      5 O13        -4.9200    0.6520   -1.0750 os        1 9PE     -0.575200
      6 O14        -3.0450    2.0910   -0.0720 o         1 9PE     -0.840500
      7 C11        -4.7550    0.5070   -2.4520 c3        1 9PE      0.158400
      8 C12        -6.1070    0.4620   -3.1890 c3        1 9PE      0.134800
      9 C1         -4.8270    2.6070    2.0640 c3        1 9PE      0.174400
     10 C2         -4.5490    1.5700    3.1660 c3        1 9PE      0.114100
     11 C3         -5.7100    0.6110    3.4210 c3        1 9PE      0.154400
     12 O31        -5.6900   -0.4290    2.4430 os        1 9PE     -0.407900
     13 O32        -7.9280   -0.3610    2.3260 o         1 9PE     -0.579000
     14 C31        -6.8680   -0.7510    1.8260 c         1 9PE      0.657100
     15 C32        -6.6500   -1.5890    0.6070 c3        1 9PE     -0.146400
     16 C33        -7.9070   -2.3340    0.2150 c3        1 9PE     -0.073400
     17 C34        -7.7120   -3.0600   -1.0980 c3        1 9PE     -0.080400
     18 C35        -8.9590   -3.8230   -1.4910 c3        1 9PE     -0.077400
     19 C36        -8.7700   -4.5450   -2.8080 c3        1 9PE     -0.081400
     20 C37       -10.0070   -5.3090   -3.2040 c3        1 9PE     -0.090100
     21 O21        -3.4120    0.7640    2.8260 os        1 9PE     -0.419900
     22 O22        -2.0390    2.3480    3.6190 o         1 9PE     -0.587000
     23 C21        -2.1820    1.3690    2.8780 c         1 9PE      0.669100
     24 C22        -1.1850    0.7000    1.9920 c3        1 9PE     -0.153400
     25 C23         0.2340    0.9560    2.4450 c3        1 9PE     -0.070400
     26 C24         1.2230    0.4300    1.4270 c3        1 9PE     -0.079400
     27 C25         2.6490    0.6760    1.8720 c3        1 9PE     -0.078400
     28 C26         3.6400    0.1550    0.8530 c3        1 9PE     -0.079400
     29 C27         5.0660    0.4000    1.2960 c3        1 9PE     -0.078400
     30 C28         6.0570   -0.1200    0.2770 c3        1 9PE     -0.079400
     31 C29         7.4830    0.1250    0.7200 c3        1 9PE     -0.078400
     32 C2A         8.4730   -0.3960   -0.3000 c3        1 9PE     -0.079400
     33 C2B         9.9000   -0.1510    0.1440 c3        1 9PE     -0.078400
     34 C2C        10.8900   -0.6710   -0.8760 c3        1 9PE     -0.079400
     35 C2D        12.3160   -0.4270   -0.4330 c3        1 9PE     -0.078400
     36 C2E        13.3060   -0.9470   -1.4530 c3        1 9PE     -0.079400
     37 C2F        14.7320   -0.7030   -1.0100 c3        1 9PE     -0.079400
     38 C2G        15.7220   -1.2230   -2.0300 c3        1 9PE     -0.079400
     39 C2H        17.1490   -0.9790   -1.5880 c3        1 9PE     -0.080400
     40 C2I        18.1380   -1.4960   -2.6010 c3        1 9PE     -0.092100
     41 HN         -7.2960    1.8600   -2.3490 hn        1 9PE      0.360800
     42 HNA        -6.2670    2.4610   -3.4340 hn        1 9PE      0.360800
     43 H11        -4.1220    1.3430   -2.8600 h1        1 9PE      0.017700
     44 H11A       -4.2280   -0.4730   -2.6310 h1        1 9PE      0.017700
     45 H12        -6.7370   -0.3400   -2.7100 h1        1 9PE      0.027200
     46 H12A       -5.8940    0.1500   -4.2510 h1        1 9PE      0.027200
     47 H1         -3.8570    3.1330    1.8300 h1        1 9PE      0.038700
     48 H1A        -5.5730    3.3420    2.4850 h1        1 9PE      0.038700
     49 H2         -4.3330    2.1280    4.1230 h1        1 9PE      0.054700
     50 H3         -5.5860    0.1030    4.4150 h1        1 9PE      0.053700
     51 H3A        -6.6730    1.1850    3.3890 h1        1 9PE      0.053700
     52 H32        -6.3190   -0.8890   -0.2170 hc        1 9PE      0.104200
     53 H32A       -5.8040   -2.3010    0.7930 hc        1 9PE      0.104200
     54 H33        -8.1800   -3.0670    1.0190 hc        1 9PE      0.046700
     55 H33A       -8.7580   -1.6070    0.1300 hc        1 9PE      0.046700
     56 H34        -7.4540   -2.3180   -1.9010 hc        1 9PE      0.044200
     57 H34A       -6.8470   -3.7690   -1.0130 hc        1 9PE      0.044200
     58 H35        -9.2160   -4.5650   -0.6900 hc        1 9PE      0.037200
     59 H35A       -9.8230   -3.1120   -1.5730 hc        1 9PE      0.037200
     60 H36        -8.5150   -3.8000   -3.6080 hc        1 9PE      0.039200
     61 H36A       -7.9020   -5.2510   -2.7270 hc        1 9PE      0.039200
     62 H37       -10.8780   -4.6170   -3.3150 hc        1 9PE      0.027700
     63 H37A       -9.8470   -5.8330   -4.1770 hc        1 9PE      0.027700
     64 H37B      -10.2640   -6.0720   -2.4310 hc        1 9PE      0.027700
     65 H22        -1.3990   -0.3990    1.9440 hc        1 9PE      0.114700
     66 H22A       -1.3740    1.1300    0.9590 hc        1 9PE      0.114700
     67 H23         0.3830    2.0590    2.5900 hc        1 9PE      0.043700
     68 H23A        0.4140    0.4660    3.4380 hc        1 9PE      0.043700
     69 H24         1.0600   -0.6690    1.2760 hc        1 9PE      0.044200
     70 H24A        1.0440    0.9310    0.4390 hc        1 9PE      0.044200
     71 H25         2.8100    1.7760    2.0250 hc        1 9PE      0.036700
     72 H25A        2.8280    0.1760    2.8600 hc        1 9PE      0.036700
     73 H26         3.4780   -0.9440    0.6990 hc        1 9PE      0.039700
     74 H26A        3.4610    0.6570   -0.1340 hc        1 9PE      0.039700
     75 H27         5.2280    1.5000    1.4500 hc        1 9PE      0.037200
     76 H27A        5.2450   -0.1010    2.2840 hc        1 9PE      0.037200
     77 H28         5.8940   -1.2200    0.1220 hc        1 9PE      0.039200
     78 H28A        5.8780    0.3820   -0.7100 hc        1 9PE      0.039200
     79 H29         7.6450    1.2240    0.8750 hc        1 9PE      0.038200
     80 H29A        7.6620   -0.3770    1.7080 hc        1 9PE      0.038200
     81 H2A         8.3110   -1.4950   -0.4540 hc        1 9PE      0.039200
     82 H2AA        8.2950    0.1070   -1.2870 hc        1 9PE      0.039200
     83 H2B        10.0620    0.9480    0.2980 hc        1 9PE      0.038200
     84 H2BA       10.0780   -0.6530    1.1310 hc        1 9PE      0.038200
     85 H2C        10.7270   -1.7700   -1.0320 hc        1 9PE      0.039200
     86 H2CA       10.7110   -0.1690   -1.8630 hc        1 9PE      0.039200
     87 H2D        12.4790    0.6720   -0.2780 hc        1 9PE      0.038700
     88 H2DA       12.4940   -0.9290    0.5540 hc        1 9PE      0.038700
     89 H2E        13.1430   -2.0460   -1.6080 hc        1 9PE      0.039200
     90 H2EA       13.1280   -0.4440   -2.4400 hc        1 9PE      0.039200
     91 H2F        14.8950    0.3960   -0.8540 hc        1 9PE      0.038700
     92 H2FA       14.9110   -1.2060   -0.0230 hc        1 9PE      0.038700
     93 H2G        15.5600   -2.3220   -2.1850 hc        1 9PE      0.039200
     94 H2GA       15.5440   -0.7200   -3.0170 hc        1 9PE      0.039200
     95 H2H        17.3090    0.1200   -1.4310 hc        1 9PE      0.037700
     96 H2HA       17.3250   -1.4820   -0.6000 hc        1 9PE      0.037700
     97 H2I        18.0110   -2.5950   -2.7520 hc        1 9PE      0.031367
     98 H2IA       17.9950   -0.9880   -3.5850 hc        1 9PE      0.031367
     99 H2IB       19.1830   -1.3060   -2.2550 hc        1 9PE      0.031367
@<TRIPOS>BOND
     1    1    3 1   
     2    1    4 1   
     3    1    5 1   
     4    1    6 1   
     5    2    8 1   
     6    2   41 1   
     7    2   42 1   
     8    3    9 1   
     9    5    7 1   
    10    7    8 1   
    11    7   43 1   
    12    7   44 1   
    13    8   45 1   
    14    8   46 1   
    15    9   10 1   
    16    9   47 1   
    17    9   48 1   
    18   10   11 1   
    19   10   21 1   
    20   10   49 1   
    21   11   12 1   
    22   11   50 1   
    23   11   51 1   
    24   12   14 1   
    25   13   14 2   
    26   14   15 1   
    27   15   16 1   
    28   15   52 1   
    29   15   53 1   
    30   16   17 1   
    31   16   54 1   
    32   16   55 1   
    33   17   18 1   
    34   17   56 1   
    35   17   57 1   
    36   18   19 1   
    37   18   58 1   
    38   18   59 1   
    39   19   20 1   
    40   19   60 1   
    41   19   61 1   
    42   20   62 1   
    43   20   63 1   
    44   20   64 1   
    45   21   23 1   
    46   22   23 2   
    47   23   24 1   
    48   24   25 1   
    49   24   65 1   
    50   24   66 1   
    51   25   26 1   
    52   25   67 1   
    53   25   68 1   
    54   26   27 1   
    55   26   69 1   
    56   26   70 1   
    57   27   28 1   
    58   27   71 1   
    59   27   72 1   
    60   28   29 1   
    61   28   73 1   
    62   28   74 1   
    63   29   30 1   
    64   29   75 1   
    65   29   76 1   
    66   30   31 1   
    67   30   77 1   
    68   30   78 1   
    69   31   32 1   
    70   31   79 1   
    71   31   80 1   
    72   32   33 1   
    73   32   81 1   
    74   32   82 1   
    75   33   34 1   
    76   33   83 1   
    77   33   84 1   
    78   34   35 1   
    79   34   85 1   
    80   34   86 1   
    81   35   36 1   
    82   35   87 1   
    83   35   88 1   
    84   36   37 1   
    85   36   89 1   
    86   36   90 1   
    87   37   38 1   
    88   37   91 1   
    89   37   92 1   
    90   38   39 1   
    91   38   93 1   
    92   38   94 1   
    93   39   40 1   
    94   39   95 1   
    95   39   96 1   
    96   40   97 1   
    97   40   98 1   
    98   40   99 1   
@<TRIPOS>SUBSTRUCTURE
     1 9PE         1 TEMP              0 ****  ****    0 ROOT
