@<TRIPOS>MOLECULE
9PE
   99    97     1     0     0
SMALL
bcc


@<TRIPOS>ATOM
      1 P          -3.8980   -7.5000   -1.4650 p3        1 9PE      2.542000
      2 N          -4.6430  -10.9970    1.9590 n3        1 9PE     -0.339000
      3 O11        -2.6280   -6.5240   -1.8400 o         1 9PE     -0.738000
      4 O12        -5.0360   -6.6630   -0.9460 o         1 9PE     -1.148500
      5 O13        -3.4600   -8.5350   -0.3570 os        1 9PE     -0.728000
      6 O14        -4.3450   -8.2490   -2.7070 o         1 9PE     -1.148500
      7 C11        -4.4710   -9.2390    0.3460 c3        1 9PE      0.005000
      8 C12        -3.9280  -10.5690    0.8120 c3        1 9PE     -0.119000
      9 C1         -2.5890   -5.9170   -3.1610 c3        1 9PE      0.038000
     10 C2         -1.4140   -4.9340   -3.2390 c3        1 9PE     -0.010000
     11 C3         -1.0020   -4.7500   -4.6890 c3        1 9PE     -0.039000
     12 O31        -0.0080   -5.7360   -5.0330 os        1 9PE     -0.276000
     13 O32         0.3620   -4.5590   -6.9450 o         1 9PE     -0.386000
     14 C31         0.4970   -5.6060   -6.3440 c2        1 9PE      0.333000
     15 C32         1.2550   -6.7600   -6.9870 c3        1 9PE     -0.191000
     16 C33         2.1710   -6.2190   -8.0900 c3        1 9PE     -0.146000
     17 C34         2.9250   -7.3720   -8.7340 c3        1 9PE     -0.160000
     18 C35         3.9000   -6.8260   -9.7670 c3        1 9PE     -0.156000
     19 C36         4.7420   -8.0050  -10.3700 c3        1 9PE     -0.160000
     20 C37         5.6160   -7.4710  -11.5440 c3        1 9PE     -0.208000
     21 O21        -1.8010   -3.6850   -2.6930 os        1 9PE     -0.265000
     22 O22         0.4200   -3.1460   -2.2730 o         1 9PE     -0.370000
     23 C21        -0.7570   -3.0310   -1.9290 c2        1 9PE      0.304000
     24 C22        -1.1150   -2.2700   -0.6030 c3        1 9PE     -0.161000
     25 C23        -0.9000   -0.7800   -0.8030 c3        1 9PE     -0.148000
     26 C24        -0.2710   -0.1680    0.4730 c3        1 9PE     -0.171000
     27 C25        -0.9220    1.1930    0.7560 c3        1 9PE     -0.154000
     28 C26         0.0980    2.1170    1.4840 c3        1 9PE     -0.158000
     29 C27        -0.6300    2.9450    2.5410 c3        1 9PE     -0.157000
     30 C28         0.0240    4.3410    2.6490 c3        1 9PE     -0.158000
     31 C29        -0.1710    4.8920    4.0950 c3        1 9PE     -0.157000
     32 C2A        -0.1250    6.4470    4.0680 c3        1 9PE     -0.158000
     33 C2B         0.2900    6.9890    5.4910 c3        1 9PE     -0.157000
     34 C2C        -0.0980    8.4700    5.6110 c3        1 9PE     -0.158000
     35 C2D         0.6850    9.1170    6.7930 c3        1 9PE     -0.157000
     36 C2E         0.1850   10.5840    7.0110 c3        1 9PE     -0.158000
     37 C2F         1.1110   11.2980    8.0100 c3        1 9PE     -0.158000
     38 C2G         0.6410   12.7470    8.1990 c3        1 9PE     -0.158000
     39 C2H         1.6370   13.4990    9.1190 c3        1 9PE     -0.159000
     40 C2I         1.2000   14.9650    9.2540 c3        1 9PE     -0.210000
     41 HN         -4.0510  -11.1660    2.6440 hn        1 9PE      0.126500
     42 HNA        -5.1050  -11.7600    1.7620 hn        1 9PE      0.126500
     43 H11        -4.7590   -8.7080    1.1280 h1        1 9PE      0.065000
     44 H11A       -5.2460   -9.3910   -0.2540 h1        1 9PE      0.065000
     45 H12        -2.9770  -10.4740    1.0350 h1        1 9PE      0.094500
     46 H12A       -4.0320  -11.2300    0.0990 h1        1 9PE      0.094500
     47 H1         -2.4740   -6.6170   -3.8380 h1        1 9PE      0.091000
     48 H1A        -3.4200   -5.4420   -3.3230 h1        1 9PE      0.091000
     49 H2         -0.6550   -5.2920   -2.7280 h1        1 9PE      0.138000
     50 H3         -0.6250   -3.8470   -4.8130 h1        1 9PE      0.103500
     51 H3A        -1.7870   -4.8600   -5.2700 h1        1 9PE      0.103500
     52 H32         1.7930   -7.2140   -6.3110 hc        1 9PE      0.163500
     53 H32A        0.6070   -7.4040   -7.3820 hc        1 9PE      0.163500
     54 H33         1.6260   -5.7590   -8.7740 hc        1 9PE      0.081000
     55 H33A        2.8110   -5.5860   -7.7020 hc        1 9PE      0.081000
     56 H34         3.4120   -7.8560   -8.0570 hc        1 9PE      0.088000
     57 H34A        2.2920   -7.9700   -9.1690 hc        1 9PE      0.088000
     58 H35         4.4970   -6.1850   -9.3420 hc        1 9PE      0.074500
     59 H35A        3.4020   -6.3820  -10.4820 hc        1 9PE      0.074500
     60 H36         4.1350   -8.7040  -10.7050 hc        1 9PE      0.079500
     61 H36A        5.3200   -8.3780   -9.6800 hc        1 9PE      0.079500
     62 H37         6.2180   -8.1970  -11.8680 hc        1 9PE      0.065667
     63 H37A        5.0360   -7.1770  -12.2760 hc        1 9PE      0.065667
     64 H37B        6.1550   -6.7160  -11.2330 hc        1 9PE      0.065667
     65 H22        -2.0350   -2.4340   -0.3770 hc        1 9PE      0.114000
     66 H22A       -0.5390   -2.5900    0.1230 hc        1 9PE      0.114000
     67 H23        -1.7670   -0.3440   -0.9820 hc        1 9PE      0.084500
     68 H23A       -0.2890   -0.6330   -1.5760 hc        1 9PE      0.084500
     69 H24         0.6920   -0.0490    0.3380 hc        1 9PE      0.095000
     70 H24A       -0.4210   -0.7630    1.2260 hc        1 9PE      0.095000
     71 H25        -1.1930    1.6100   -0.0950 hc        1 9PE      0.075000
     72 H25A       -1.7160    1.0650    1.3270 hc        1 9PE      0.075000
     73 H26         0.5180    2.7130    0.8350 hc        1 9PE      0.081500
     74 H26A        0.7900    1.5640    1.9190 hc        1 9PE      0.081500
     75 H27        -1.5630    3.0440    2.2880 hc        1 9PE      0.077000
     76 H27A       -0.5730    2.4920    3.4050 hc        1 9PE      0.077000
     77 H28        -0.3940    4.9460    2.0130 hc        1 9PE      0.079000
     78 H28A        0.9790    4.2700    2.4530 hc        1 9PE      0.079000
     79 H29         0.5440    4.5530    4.6740 hc        1 9PE      0.078000
     80 H29A       -1.0320    4.6000    4.4390 hc        1 9PE      0.078000
     81 H2A        -1.0170    6.8000    3.8280 hc        1 9PE      0.078500
     82 H2AA        0.5400    6.7450    3.3950 hc        1 9PE      0.078500
     83 H2B        -0.1740    6.4720    6.1870 hc        1 9PE      0.078000
     84 H2BA        1.2680    6.8950    5.6060 hc        1 9PE      0.078000
     85 H2C         0.1260    8.9360    4.7770 hc        1 9PE      0.079000
     86 H2CA       -1.0620    8.5440    5.7770 hc        1 9PE      0.079000
     87 H2D         1.6520    9.1260    6.5800 hc        1 9PE      0.078500
     88 H2DA        0.5330    8.5870    7.6220 hc        1 9PE      0.078500
     89 H2E        -0.7330   10.5680    7.3680 hc        1 9PE      0.078500
     90 H2EA        0.1950   11.0620    6.1560 hc        1 9PE      0.078500
     91 H2F         1.0840   10.8340    8.8660 hc        1 9PE      0.078500
     92 H2FA        2.0130   11.2940    7.6710 hc        1 9PE      0.078500
     93 H2G         0.6000   13.1900    7.3350 hc        1 9PE      0.078500
     94 H2GA       -0.2520   12.7510    8.6120 hc        1 9PE      0.078500
     95 H2H         2.5320   13.4610    8.7300 hc        1 9PE      0.077500
     96 H2HA        1.6470   13.0770   10.0070 hc        1 9PE      0.077500
     97 H2I         1.2030   15.3880    8.3750 hc        1 9PE      0.071000
     98 H2IA        1.8270   15.4430    9.8520 hc        1 9PE      0.071000
     99 H2IB        0.2940   15.0040    9.6330 hc        1 9PE      0.071000
@<TRIPOS>BOND
     1    1    4 1   
     2    1    5 1   
     3    1    6 1   
     4    2    8 1   
     5    2   41 1   
     6    2   42 1   
     7    3    9 1   
     8    5    7 1   
     9    7    8 1   
    10    7   43 1   
    11    7   44 1   
    12    8   45 1   
    13    8   46 1   
    14    9   10 1   
    15    9   47 1   
    16    9   48 1   
    17   10   11 1   
    18   10   21 1   
    19   10   49 1   
    20   11   12 1   
    21   11   50 1   
    22   11   51 1   
    23   12   14 1   
    24   13   14 1   
    25   14   15 1   
    26   15   16 1   
    27   15   52 1   
    28   15   53 1   
    29   16   17 1   
    30   16   54 1   
    31   16   55 1   
    32   17   18 1   
    33   17   56 1   
    34   17   57 1   
    35   18   19 1   
    36   18   58 1   
    37   18   59 1   
    38   19   20 1   
    39   19   60 1   
    40   19   61 1   
    41   20   62 1   
    42   20   63 1   
    43   20   64 1   
    44   21   23 1   
    45   22   23 1   
    46   23   24 1   
    47   24   25 1   
    48   24   65 1   
    49   24   66 1   
    50   25   26 1   
    51   25   67 1   
    52   25   68 1   
    53   26   27 1   
    54   26   69 1   
    55   26   70 1   
    56   27   28 1   
    57   27   71 1   
    58   27   72 1   
    59   28   29 1   
    60   28   73 1   
    61   28   74 1   
    62   29   30 1   
    63   29   75 1   
    64   29   76 1   
    65   30   31 1   
    66   30   77 1   
    67   30   78 1   
    68   31   32 1   
    69   31   79 1   
    70   31   80 1   
    71   32   33 1   
    72   32   81 1   
    73   32   82 1   
    74   33   34 1   
    75   33   83 1   
    76   33   84 1   
    77   34   35 1   
    78   34   85 1   
    79   34   86 1   
    80   35   36 1   
    81   35   87 1   
    82   35   88 1   
    83   36   37 1   
    84   36   89 1   
    85   36   90 1   
    86   37   38 1   
    87   37   91 1   
    88   37   92 1   
    89   38   39 1   
    90   38   93 1   
    91   38   94 1   
    92   39   40 1   
    93   39   95 1   
    94   39   96 1   
    95   40   97 1   
    96   40   98 1   
    97   40   99 1   
@<TRIPOS>SUBSTRUCTURE
     1 9PE         1 TEMP              0 ****  ****    0 ROOT
