@<TRIPOS>MOLECULE
9PG
   36    37     1     0     0
SMALL
bcc


@<TRIPOS>ATOM
      1 C6         -0.2480    0.1730    0.2630 c3        1 9PG      0.141400
      2 C5          1.2680   -0.0460    0.2020 c3        1 9PG      0.105100
      3 C4          1.8780   -0.0900    1.6070 c3        1 9PG      0.124100
      4 C3          3.4130   -0.1100    1.4980 c3        1 9PG      0.115100
      5 C2          3.8790    1.0970    0.6700 c3        1 9PG      0.090100
      6 C1          3.1670    1.1250   -0.6950 c3        1 9PG      0.304900
      7 O8          2.5190    0.5730   -7.6270 o         1 9PG     -0.211000
      8 O7          3.9730   -0.9470   -7.6320 o         1 9PG     -0.211000
      9 C9          3.3380   -0.1050   -5.5670 ca        1 9PG     -0.210200
     10 C14         4.2230   -0.9550   -4.8780 ca        1 9PG     -0.037500
     11 C13         4.2950   -0.8920   -3.4940 ca        1 9PG     -0.185500
     12 C12         3.4740    0.0170   -2.7980 ca        1 9PG      0.166100
     13 C11         2.5820    0.8530   -3.4830 ca        1 9PG     -0.185500
     14 C10         2.5140    0.7940   -4.8710 ca        1 9PG     -0.037500
     15 O1          3.5980   -0.0230   -1.4250 os        1 9PG     -0.349900
     16 O2          5.2830    0.9790    0.5460 oh        1 9PG     -0.587800
     17 O3          3.9120   -0.0310    2.8210 oh        1 9PG     -0.605800
     18 O4          1.4270    1.0410    2.3310 oh        1 9PG     -0.594800
     19 O5          1.7690    1.0390   -0.5920 os        1 9PG     -0.430600
     20 O6         -0.8330    0.0310   -1.0120 oh        1 9PG     -0.593800
     21 H1         -0.7150   -0.6280    0.8950 h1        1 9PG      0.068700
     22 H2         -0.4650    1.1850    0.6970 h1        1 9PG      0.068700
     23 H3          1.5120   -1.0080   -0.3300 h1        1 9PG      0.073700
     24 H4          1.5370   -1.0280    2.1300 h1        1 9PG      0.063700
     25 H5          3.7600   -1.0590    1.0060 h1        1 9PG      0.074700
     26 H6          3.6140    2.0500    1.2100 h1        1 9PG      0.079700
     27 H7          3.3680    2.0820   -1.2540 h2        1 9PG      0.088700
     28 H9          4.9790   -1.5460   -2.9330 ha        1 9PG      0.164500
     29 H10         1.9180    1.5350   -2.9290 ha        1 9PG      0.164500
     30 H11         1.8140    1.4470   -5.4210 ha        1 9PG      0.173500
     31 H12         5.5760    1.6580   -0.0730 ho        1 9PG      0.413000
     32 H13         4.8750    0.0310    2.7520 ho        1 9PG      0.431000
     33 H14         1.9070    1.0390    3.1710 ho        1 9PG      0.426000
     34 H15        -0.4560    0.7200   -1.5750 ho        1 9PG      0.408000
     35 H8          4.8600   -1.6640   -5.4360 ha        1 9PG      0.173500
     36 N           3.2710   -0.1650   -7.0480 no        1 9PG      0.318200
@<TRIPOS>BOND
     1    1    2 1   
     2    1   20 1   
     3    1   21 1   
     4    1   22 1   
     5    2    3 1   
     6    2   19 1   
     7    2   23 1   
     8    3    4 1   
     9    3   18 1   
    10    3   24 1   
    11    4    5 1   
    12    4   17 1   
    13    4   25 1   
    14    5    6 1   
    15    5   16 1   
    16    5   26 1   
    17    6   15 1   
    18    6   19 1   
    19    6   27 1   
    20    7   36 1   
    21    8   36 1   
    22    9   10 ar  
    23    9   14 ar  
    24    9   36 1   
    25   10   11 ar  
    26   10   35 1   
    27   11   12 ar  
    28   11   28 1   
    29   12   13 ar  
    30   12   15 1   
    31   13   14 ar  
    32   13   29 1   
    33   14   30 1   
    34   16   31 1   
    35   17   32 1   
    36   18   33 1   
    37   20   34 1   
@<TRIPOS>SUBSTRUCTURE
     1 9PG         1 TEMP              0 ****  ****    0 ROOT
