@<TRIPOS>MOLECULE
9PL
   31    28     1     0     0
SMALL
bcc


@<TRIPOS>ATOM
      1 N1          1.8150   -1.1080   -2.0210 n2        1 9PL     -0.146500
      2 C2          3.0970   -0.7470   -2.3370 c1        1 9PL     -0.096000
      3 N3          3.4380    0.2920   -1.5660 n2        1 9PL     -0.146500
      4 C4          2.3840    0.5850   -0.7720 c1        1 9PL     -0.148500
      5 C5          1.3810   -0.2900   -1.0610 c1        1 9PL     -0.148500
      6 C6          1.1510   -2.2780   -2.4730 c2        1 9PL     -0.078000
      7 C7          0.0470   -0.3750   -0.3570 c2        1 9PL     -0.083000
      8 C8         -0.4210    1.0470    0.0380 c3        1 9PL     -0.130000
      9 C9         -1.3530    1.6230   -1.0480 c3        1 9PL     -0.028000
     10 O10        -2.7500    1.5930   -0.4560 os        1 9PL     -0.251000
     11 C11        -2.6650    0.8240    0.6010 c2        1 9PL      0.298000
     12 C12        -1.1930    0.9990    1.1890 c3        1 9PL     -0.138000
     13 C13        -0.7610   -0.1440    2.2190 c3        1 9PL     -0.142000
     14 C14        -1.1940    0.2270    3.5890 c3        1 9PL     -0.225000
     15 O15        -3.6130    0.2610    1.1680 o         1 9PL     -0.291000
     16 H2          3.6580   -1.1690   -3.0020 DU        1 9PL      0.188500
     17 H4          2.3480    1.2950   -0.1090 DU        1 9PL      0.188500
     18 H6          1.8150   -2.8560   -3.0660 ha        1 9PL      0.095000
     19 H6A         0.8560   -2.8100   -1.6960 ha        1 9PL      0.095000
     20 H6B         0.4410   -2.0480   -2.9600 ha        1 9PL      0.095000
     21 H7         -0.6450   -0.8000   -0.9880 ha        1 9PL      0.100500
     22 H7A         0.1410   -0.9440    0.4740 ha        1 9PL      0.100500
     23 H8          0.3960    1.6690    0.1770 hc        1 9PL      0.115000
     24 H9         -1.0920    2.5560   -1.2590 h1        1 9PL      0.105500
     25 H9A        -1.3180    1.0770   -1.8450 h1        1 9PL      0.105500
     26 H12        -1.1040    1.8070    1.7340 hc        1 9PL      0.130000
     27 H13        -1.1740   -0.9760    1.9690 hc        1 9PL      0.087500
     28 H13A        0.2710   -0.2500    2.2020 hc        1 9PL      0.087500
     29 H14        -2.2420    0.3470    3.6090 hc        1 9PL      0.086667
     30 H14A       -0.9400   -0.4640    4.1980 hc        1 9PL      0.086667
     31 H14B       -0.7710    1.0550    3.8490 hc        1 9PL      0.086667
@<TRIPOS>BOND
     1    1    2 1   
     2    1    5 1   
     3    2    3 1   
     4    3    4 1   
     5    4    5 1   
     6    6   18 1   
     7    6   19 1   
     8    6   20 1   
     9    7    8 1   
    10    7   21 1   
    11    7   22 1   
    12    8    9 1   
    13    8   12 1   
    14    8   23 1   
    15    9   10 1   
    16    9   24 1   
    17    9   25 1   
    18   10   11 1   
    19   11   12 1   
    20   11   15 1   
    21   12   13 1   
    22   12   26 1   
    23   13   14 1   
    24   13   27 1   
    25   13   28 1   
    26   14   29 1   
    27   14   30 1   
    28   14   31 1   
@<TRIPOS>SUBSTRUCTURE
     1 9PL         1 TEMP              0 ****  ****    0 ROOT
