@<TRIPOS>MOLECULE
9PL
   31    32     1     0     0
SMALL
bcc


@<TRIPOS>ATOM
      1 N1          0.0470   -0.2470   -0.0050 na        1 9PL     -0.201900
      2 C2          1.4390   -0.0710   -0.0100 cc        1 9PL      0.392400
      3 N3          1.8810    0.4220    1.1670 nd        1 9PL     -0.662000
      4 C4          0.7510    0.5700    1.9650 cd        1 9PL      0.301200
      5 C5         -0.4030    0.1600    1.2630 cc        1 9PL     -0.227900
      6 C6         -0.7440   -0.7590   -1.0730 c3        1 9PL      0.022600
      7 C7         -1.8080    0.1720    1.7160 c3        1 9PL      0.004900
      8 C8         -2.3370   -1.2220    2.0010 c3        1 9PL     -0.094700
      9 C9         -1.5060   -1.9330    3.0850 c3        1 9PL      0.122400
     10 O10        -2.4020   -2.4120    4.1030 os        1 9PL     -0.408900
     11 C11        -3.6990   -2.0510    3.8040 c         1 9PL      0.714600
     12 C12        -3.7890   -1.2700    2.5090 c3        1 9PL     -0.148700
     13 C13        -4.4590    0.0750    2.7150 c3        1 9PL     -0.065400
     14 C14        -5.9260   -0.0720    3.0350 c3        1 9PL     -0.107100
     15 O15        -4.5530   -2.4220    4.5990 o         1 9PL     -0.566500
     16 H2          2.0590   -0.3090   -0.8800 h5        1 9PL      0.062100
     17 H4          0.8150    0.9560    2.9820 h4        1 9PL      0.044100
     18 H6         -0.2100   -0.6010   -2.0470 h1        1 9PL      0.053700
     19 H6A        -0.9270   -1.8600   -0.9320 h1        1 9PL      0.053700
     20 H6B        -1.7340   -0.2310   -1.1030 h1        1 9PL      0.053700
     21 H7         -1.8680    0.8010    2.6450 hc        1 9PL      0.063700
     22 H7A        -2.4530    0.6590    0.9330 hc        1 9PL      0.063700
     23 H8         -2.2720   -1.8190    1.0490 hc        1 9PL      0.060700
     24 H9         -0.7820   -1.2420    3.5880 h1        1 9PL      0.070200
     25 H9A        -0.9710   -2.8310    2.6860 h1        1 9PL      0.070200
     26 H12        -4.4130   -1.8730    1.7920 hc        1 9PL      0.088700
     27 H13        -4.3490    0.6860    1.7800 hc        1 9PL      0.049200
     28 H13A       -3.9460    0.6310    3.5440 hc        1 9PL      0.049200
     29 H14        -6.4730   -0.5390    2.1790 hc        1 9PL      0.047033
     30 H14A       -6.3740    0.9310    3.2350 hc        1 9PL      0.047033
     31 H14B       -6.0710   -0.7160    3.9380 hc        1 9PL      0.047033
@<TRIPOS>BOND
     1    1    2 1   
     2    1    5 1   
     3    1    6 1   
     4    2    3 2   
     5    2   16 1   
     6    3    4 1   
     7    4    5 2   
     8    4   17 1   
     9    5    7 1   
    10    6   18 1   
    11    6   19 1   
    12    6   20 1   
    13    7    8 1   
    14    7   21 1   
    15    7   22 1   
    16    8    9 1   
    17    8   12 1   
    18    8   23 1   
    19    9   10 1   
    20    9   24 1   
    21    9   25 1   
    22   10   11 1   
    23   11   12 1   
    24   11   15 2   
    25   12   13 1   
    26   12   26 1   
    27   13   14 1   
    28   13   27 1   
    29   13   28 1   
    30   14   29 1   
    31   14   30 1   
    32   14   31 1   
@<TRIPOS>SUBSTRUCTURE
     1 9PL         1 TEMP              0 ****  ****    0 ROOT
