@<TRIPOS>MOLECULE
9PL
   31    32     1     0     0
SMALL
bcc


@<TRIPOS>ATOM
      1 N1         -2.8420   -0.6140   -0.3090 na        1 9PL     -0.201900
      2 C2         -4.0050    0.1380   -0.0840 cc        1 9PL      0.392400
      3 N3         -3.8020    1.1040    0.8370 nd        1 9PL     -0.662000
      4 C4         -2.4710    0.9850    1.2240 cd        1 9PL      0.301200
      5 C5         -1.8500   -0.0740    0.5260 cc        1 9PL     -0.227900
      6 C6         -2.7000   -1.6960   -1.2230 c3        1 9PL      0.022600
      7 C7         -0.4620   -0.5640    0.6440 c3        1 9PL      0.004900
      8 C8          0.3850   -0.1990   -0.5620 c3        1 9PL     -0.094700
      9 C9          0.4480    1.3240   -0.7710 c3        1 9PL      0.122400
     10 O10         1.8290    1.7120   -0.8740 os        1 9PL     -0.408900
     11 C11         2.6450    0.6130   -0.7120 c         1 9PL      0.714600
     12 C12         1.8530   -0.6570   -0.4800 c3        1 9PL     -0.148700
     13 C13         2.2600   -1.3390    0.8120 c3        1 9PL     -0.065400
     14 C14         3.6530   -1.9110    0.7300 c3        1 9PL     -0.107100
     15 O15         3.8490    0.8260   -0.7960 o         1 9PL     -0.566500
     16 H2         -4.9470   -0.0650   -0.6050 h5        1 9PL      0.062100
     17 H4         -2.0300    1.6460    1.9690 h4        1 9PL      0.044100
     18 H6         -2.2690   -1.3330   -2.1970 h1        1 9PL      0.053700
     19 H6A        -2.0110   -2.4730   -0.7930 h1        1 9PL      0.053700
     20 H6B        -3.7030   -2.1590   -1.4200 h1        1 9PL      0.053700
     21 H7         -0.0150   -0.1180    1.5740 hc        1 9PL      0.063700
     22 H7A        -0.4660   -1.6820    0.7690 hc        1 9PL      0.063700
     23 H8         -0.0840   -0.6690   -1.4700 hc        1 9PL      0.060700
     24 H9         -0.0410    1.6390   -1.7270 h1        1 9PL      0.070200
     25 H9A         0.0130    1.8920    0.0910 h1        1 9PL      0.070200
     26 H12         2.0720   -1.3550   -1.3360 hc        1 9PL      0.088700
     27 H13         2.2010   -0.6080    1.6610 hc        1 9PL      0.049200
     28 H13A        1.5370   -2.1690    1.0310 hc        1 9PL      0.049200
     29 H14         3.7070   -2.7110   -0.0480 hc        1 9PL      0.047033
     30 H14A        4.3920   -1.1140    0.4670 hc        1 9PL      0.047033
     31 H14B        3.9400   -2.3540    1.7140 hc        1 9PL      0.047033
@<TRIPOS>BOND
     1    1    2 1   
     2    1    5 1   
     3    1    6 1   
     4    2    3 2   
     5    2   16 1   
     6    3    4 1   
     7    4    5 2   
     8    4   17 1   
     9    5    7 1   
    10    6   18 1   
    11    6   19 1   
    12    6   20 1   
    13    7    8 1   
    14    7   21 1   
    15    7   22 1   
    16    8    9 1   
    17    8   12 1   
    18    8   23 1   
    19    9   10 1   
    20    9   24 1   
    21    9   25 1   
    22   10   11 1   
    23   11   12 1   
    24   11   15 2   
    25   12   13 1   
    26   12   26 1   
    27   13   14 1   
    28   13   27 1   
    29   13   28 1   
    30   14   29 1   
    31   14   30 1   
    32   14   31 1   
@<TRIPOS>SUBSTRUCTURE
     1 9PL         1 TEMP              0 ****  ****    0 ROOT
