@<TRIPOS>MOLECULE
9PL
   31    32     1     0     0
SMALL
bcc


@<TRIPOS>ATOM
      1 N1          0.0490   -0.1860    0.0120 na        1 9PL     -0.201900
      2 C2          1.4430   -0.0220    0.0160 cc        1 9PL      0.392400
      3 N3          1.8890    0.4130    1.2140 nd        1 9PL     -0.662000
      4 C4          0.7600    0.5370    2.0170 cd        1 9PL      0.301200
      5 C5         -0.3980    0.1700    1.2960 cc        1 9PL     -0.227900
      6 C6         -0.7450   -0.6430   -1.0770 c3        1 9PL      0.022600
      7 C7         -1.8030    0.1760    1.7480 c3        1 9PL      0.004900
      8 C8         -2.3460   -1.2250    1.9710 c3        1 9PL     -0.094700
      9 C9         -1.5240   -1.9910    3.0230 c3        1 9PL      0.122400
     10 O10        -2.4260   -2.5090    4.0160 os        1 9PL     -0.408900
     11 C11        -3.7190   -2.1220    3.7320 c         1 9PL      0.714600
     12 C12        -3.7990   -1.2810    2.4750 c3        1 9PL     -0.148700
     13 C13        -4.4550    0.0600    2.7430 c3        1 9PL     -0.065400
     14 C14        -5.9240   -0.0860    3.0550 c3        1 9PL     -0.107100
     15 O15        -4.5780   -2.5210    4.5090 o         1 9PL     -0.566500
     16 H2          2.0620   -0.2290   -0.8630 h5        1 9PL      0.062100
     17 H4          0.8250    0.8790    3.0490 h4        1 9PL      0.044100
     18 H6         -0.2090   -0.4470   -2.0440 h1        1 9PL      0.053700
     19 H6A        -0.9370   -1.7480   -0.9860 h1        1 9PL      0.053700
     20 H6B        -1.7310   -0.1060   -1.0850 h1        1 9PL      0.053700
     21 H7         -1.8580    0.7630    2.7050 hc        1 9PL      0.063700
     22 H7A        -2.4430    0.7030    0.9870 hc        1 9PL      0.063700
     23 H8         -2.2860   -1.7790    0.9940 hc        1 9PL      0.060700
     24 H9         -0.9960   -2.8740    2.5840 h1        1 9PL      0.070200
     25 H9A        -0.7940   -1.3310    3.5570 h1        1 9PL      0.070200
     26 H12        -4.4290   -1.8430    1.7300 hc        1 9PL      0.088700
     27 H13        -4.3380    0.7130    1.8370 hc        1 9PL      0.049200
     28 H13A       -3.9370    0.5710    3.5970 hc        1 9PL      0.049200
     29 H14        -6.4740   -0.5060    2.1790 hc        1 9PL      0.047033
     30 H14A       -6.0770   -0.7700    3.9270 hc        1 9PL      0.047033
     31 H14B       -6.3620    0.9110    3.3020 hc        1 9PL      0.047033
@<TRIPOS>BOND
     1    1    2 1   
     2    1    5 1   
     3    1    6 1   
     4    2    3 2   
     5    2   16 1   
     6    3    4 1   
     7    4    5 2   
     8    4   17 1   
     9    5    7 1   
    10    6   18 1   
    11    6   19 1   
    12    6   20 1   
    13    7    8 1   
    14    7   21 1   
    15    7   22 1   
    16    8    9 1   
    17    8   12 1   
    18    8   23 1   
    19    9   10 1   
    20    9   24 1   
    21    9   25 1   
    22   10   11 1   
    23   11   12 1   
    24   11   15 2   
    25   12   13 1   
    26   12   26 1   
    27   13   14 1   
    28   13   27 1   
    29   13   28 1   
    30   14   29 1   
    31   14   30 1   
    32   14   31 1   
@<TRIPOS>SUBSTRUCTURE
     1 9PL         1 TEMP              0 ****  ****    0 ROOT
