@<TRIPOS>MOLECULE
9PO
   12    12     1     0     0
SMALL
bcc


@<TRIPOS>ATOM
      1 C4         -1.1570    1.1980   -0.0010 ca        1 9PO     -0.087000
      2 C5         -1.8710    0.0000   -0.0000 ca        1 9PO     -0.171000
      3 C1          0.2370   -1.1890    0.0000 ca        1 9PO     -0.221300
      4 N2          0.9630   -0.0000   -0.0000 na        1 9PO      0.252600
      5 O8          2.1870   -0.0000    0.0000 o         1 9PO     -0.288000
      6 C3          0.2370    1.1890   -0.0010 ca        1 9PO     -0.221300
      7 C6         -1.1570   -1.1980    0.0000 ca        1 9PO     -0.087000
      8 H4         -1.6770    2.1680   -0.0010 ha        1 9PO      0.153000
      9 H5         -2.9690    0.0000   -0.0010 ha        1 9PO      0.148000
     10 H3          0.8430    2.1110   -0.0010 h4        1 9PO      0.185000
     11 H6         -1.6770   -2.1680    0.0000 ha        1 9PO      0.153000
     12 H1          0.8430   -2.1110    0.0010 h4        1 9PO      0.185000
@<TRIPOS>BOND
     1    1    2 ar  
     2    1    6 ar  
     3    1    8 1   
     4    2    7 ar  
     5    2    9 1   
     6    3    4 2   
     7    3    7 ar  
     8    3   12 1   
     9    4    5 1   
    10    4    6 1   
    11    6   10 1   
    12    7   11 1   
@<TRIPOS>SUBSTRUCTURE
     1 9PO         1 TEMP              0 ****  ****    0 ROOT
