@<TRIPOS>MOLECULE
9PO
   12     9     1     0     0
SMALL
bcc


@<TRIPOS>ATOM
      1 C4         -0.6600    0.0000   -1.2190 c1        1 9PO     -0.087000
      2 C5          0.7050    0.0000   -1.2190 c1        1 9PO     -0.129000
      3 C1          0.6910    0.0000    1.1630 c1        1 9PO     -0.197000
      4 N2         -0.6710    0.0000    1.1610 n2        1 9PO      0.354000
      5 O8         -1.3550   -0.0000    2.3440 os        1 9PO     -0.438000
      6 C3         -1.3530    0.0000   -0.0190 c2        1 9PO     -0.197000
      7 C6          1.3860    0.0000   -0.0370 c1        1 9PO     -0.129000
      8 H4         -1.1480    0.0000   -2.0650 ha        1 9PO      0.153000
      9 H5          1.1930    0.0000   -2.0640 ha        1 9PO      0.150500
     10 H3         -2.3290    0.0000   -0.0180 h4        1 9PO      0.185000
     11 H6          2.3620    0.0000   -0.0360 ha        1 9PO      0.150500
     12 H1          1.1780    0.0000    2.0090 ha        1 9PO      0.185000
@<TRIPOS>BOND
     1    1    6 1   
     2    1    8 1   
     3    2    7 1   
     4    2    9 1   
     5    3    4 1   
     6    3   12 1   
     7    4    6 1   
     8    6   10 1   
     9    7   11 1   
@<TRIPOS>SUBSTRUCTURE
     1 9PO         1 TEMP              0 ****  ****    0 ROOT
