@<TRIPOS>MOLECULE
9PP
   33    34     1     0     0
SMALL
bcc


@<TRIPOS>ATOM
      1 N9          0.6420    0.7940    1.3850 nh        1 9PP     -0.252200
      2 C8          1.4470    1.3440    2.4330 c1        1 9PP      0.070400
      3 N7          1.1920    0.7370    3.6120 ne        1 9PP     -0.684800
      4 C5          0.2070   -0.2230    3.3740 ca        1 9PP     -0.144200
      5 C6         -0.4830   -1.1470    4.1920 ca        1 9PP      0.596200
      6 N6         -0.1220   -1.2840    5.5600 nh        1 9PP     -0.897500
      7 N1         -1.4690   -1.9460    3.6750 nb        1 9PP     -0.805000
      8 C2         -1.7120   -1.8630    2.3200 ca        1 9PP      0.763900
      9 N2         -2.6690   -2.8030    1.7880 nh        1 9PP     -0.882500
     10 N3         -1.1190   -1.0100    1.4090 nb        1 9PP     -0.751000
     11 C4         -0.1740   -0.2040    1.9450 ca        1 9PP      0.392800
     12 C10         0.6220    1.2200    0.0230 c3        1 9PP      0.065300
     13 C11        -0.2740    2.4480   -0.2700 c3        1 9PP      0.120100
     14 C12        -1.7420    2.1530   -0.0320 c3        1 9PP     -0.110100
     15 O13        -0.0570    2.7470   -1.6560 os        1 9PP     -0.409600
     16 P          -0.1520    4.2010   -3.7080 p5        1 9PP      1.339600
     17 C14        -0.2820    4.1020   -1.9880 c3        1 9PP     -0.101800
     18 O2P        -0.7030    2.7370   -4.1980 oh        1 9PP     -0.780400
     19 O3P        -1.1260    5.2230   -4.1630 o         1 9PP     -0.868000
     20 O1P         1.2750    4.2320   -4.1090 o         1 9PP     -0.868000
     21 H81        -0.1340    2.0290   -3.9210 ho        1 9PP      0.422000
     22 HN61        0.3630   -0.4680    5.8740 hn        1 9PP      0.366300
     23 HN62       -0.9040   -1.4860    6.1480 hn        1 9PP      0.366300
     24 HN21       -3.0440   -2.4760    0.9190 hn        1 9PP      0.358800
     25 HN22       -3.4100   -2.9640    2.4400 hn        1 9PP      0.358800
     26 H101        0.2810    0.3760   -0.6390 h1        1 9PP      0.056200
     27 H102        1.6750    1.5040   -0.2640 h1        1 9PP      0.056200
     28 H111        0.0540    3.3170    0.3640 h1        1 9PP      0.046700
     29 H121       -2.0650    1.2860   -0.6570 hc        1 9PP      0.033700
     30 H122       -1.9140    1.9070    1.0420 hc        1 9PP      0.033700
     31 H123       -2.3630    3.0380   -0.3080 hc        1 9PP      0.033700
     32 H141        0.4780    4.7490   -1.4820 h1        1 9PP      0.037200
     33 H142       -1.2920    4.4320   -1.6420 h1        1 9PP      0.037200
@<TRIPOS>BOND
     1    1    2 2   
     2    1   11 1   
     3    1   12 1   
     4    2    3 2   
     5    3    4 1   
     6    4    5 ar  
     7    4   11 ar  
     8    5    6 1   
     9    5    7 ar  
    10    6   22 1   
    11    6   23 1   
    12    7    8 ar  
    13    8    9 1   
    14    8   10 ar  
    15    9   24 1   
    16    9   25 1   
    17   10   11 ar  
    18   12   13 1   
    19   12   26 1   
    20   12   27 1   
    21   13   14 1   
    22   13   15 1   
    23   13   28 1   
    24   14   29 1   
    25   14   30 1   
    26   14   31 1   
    27   15   17 1   
    28   16   17 1   
    29   16   18 1   
    30   16   19 1   
    31   16   20 1   
    32   17   32 1   
    33   17   33 1   
    34   18   21 1   
@<TRIPOS>SUBSTRUCTURE
     1 9PP         1 TEMP              0 ****  ****    0 ROOT
