@<TRIPOS>MOLECULE
9PP
   33    28     1     0     0
SMALL
bcc


@<TRIPOS>ATOM
      1 N9          0.7530   -0.6180    0.2660 n2        1 9PP     -0.266000
      2 C8          2.0860   -0.3580    0.2680 c1        1 9PP     -0.150000
      3 N7          2.5260   -0.4200    1.5510 n2        1 9PP     -0.266000
      4 C5          1.4540   -0.7220    2.3540 c1        1 9PP     -0.076000
      5 C6          1.3340   -0.8580    3.7280 c1        1 9PP      0.060000
      6 N6          2.4840   -0.7920    4.5420 n3        1 9PP     -0.287500
      7 N1          0.1370   -1.1110    4.2750 n1        1 9PP     -0.252000
      8 C2         -0.9740   -1.2350    3.4730 c1        1 9PP      0.060000
      9 N2         -2.2690   -1.4630    4.0680 n3        1 9PP     -0.287500
     10 N3         -0.8600   -1.1030    2.1260 n1        1 9PP     -0.252000
     11 C4          0.3630   -0.8440    1.5650 c1        1 9PP     -0.076000
     12 C10         0.1010   -0.9210   -0.9870 c2        1 9PP      0.006000
     13 C11        -0.5770    0.3360   -1.5270 c3        1 9PP      0.009000
     14 C12        -2.0710    0.0980   -1.6490 c3        1 9PP     -0.227000
     15 O13        -0.0470    0.6480   -2.7890 os        1 9PP     -0.267000
     16 P           0.3150    2.2140   -4.9400 p3        1 9PP      2.621000
     17 C14        -0.4120    1.9450   -3.2650 c2        1 9PP     -0.660000
     18 O2P         0.5690    0.8740   -5.6060 o         1 9PP     -1.062333
     19 O3P        -0.6590    3.0300   -5.7930 o         1 9PP     -1.062333
     20 O1P         1.6290    2.9700   -4.8050 o         1 9PP     -1.062333
     21 H81         2.6530   -0.1840   -0.5410 DU        1 9PP      0.222000
     22 HN61        2.4140   -0.9030    5.4300 hn        1 9PP      0.157750
     23 HN62        3.3020   -0.5830    4.1670 hn        1 9PP      0.157750
     24 HN21       -2.3800   -1.3620    4.9640 hn        1 9PP      0.157750
     25 HN22       -2.9960   -1.6790    3.5310 hn        1 9PP      0.157750
     26 H101        0.7540   -1.2280   -1.6200 ha        1 9PP      0.095000
     27 H102       -0.5580   -1.6080   -0.8480 ha        1 9PP      0.095000
     28 H111       -0.4140    1.0930   -0.9040 h1        1 9PP      0.087000
     29 H121       -2.2740   -0.2630   -2.5400 hc        1 9PP      0.073000
     30 H122       -2.5470    0.9470   -1.5220 hc        1 9PP      0.073000
     31 H123       -2.3470   -0.5190   -0.9890 hc        1 9PP      0.073000
     32 H141       -0.0800    2.6070   -2.6670 h4        1 9PP      0.076000
     33 H142       -1.4110    2.0120   -3.3170 h4        1 9PP      0.076000
@<TRIPOS>BOND
     1    1    2 1   
     2    1   11 1   
     3    2    3 1   
     4    3    4 1   
     5    4   11 1   
     6    5    6 1   
     7    5    7 1   
     8    6   22 1   
     9    6   23 1   
    10    8    9 1   
    11    8   10 1   
    12    9   24 1   
    13    9   25 1   
    14   12   13 1   
    15   12   26 1   
    16   12   27 1   
    17   13   14 1   
    18   13   15 1   
    19   13   28 1   
    20   14   29 1   
    21   14   30 1   
    22   14   31 1   
    23   15   17 1   
    24   16   18 1   
    25   16   19 1   
    26   16   20 1   
    27   17   32 1   
    28   17   33 1   
@<TRIPOS>SUBSTRUCTURE
     1 9PP         1 TEMP              0 ****  ****    0 ROOT
