@<TRIPOS>MOLECULE
9PP
   33    34     1     0     0
SMALL
bcc


@<TRIPOS>ATOM
      1 N9          0.7250    0.4650    1.2950 nh        1 9PP     -0.254200
      2 C8          1.4600   -0.1840    2.3420 c1        1 9PP      0.072400
      3 N7          2.7840   -0.1810    2.0820 ne        1 9PP     -0.683800
      4 C5          2.9590    0.4750    0.8630 ca        1 9PP     -0.143200
      5 C6          4.0860    0.7610    0.0590 ca        1 9PP      0.595200
      6 N6          5.3890    0.4420    0.5310 nh        1 9PP     -0.897500
      7 N1          3.9470    1.3850   -1.1530 nb        1 9PP     -0.806000
      8 C2          2.6780    1.7750   -1.5250 ca        1 9PP      0.763900
      9 N2          2.5800    2.5360   -2.7480 nh        1 9PP     -0.882500
     10 N3          1.4960    1.5570   -0.8440 nb        1 9PP     -0.756000
     11 C4          1.6460    0.9100    0.3350 ca        1 9PP      0.396800
     12 C10        -0.6830    0.6980    1.3360 c3        1 9PP      0.068300
     13 C11        -1.4720    0.4410    0.0310 c3        1 9PP      0.129100
     14 C12        -1.8640    1.7490   -0.6350 c3        1 9PP     -0.116100
     15 O13        -2.6540   -0.2670    0.4370 os        1 9PP     -0.409600
     16 P          -4.8460   -1.4420    0.0310 p5        1 9PP      1.339600
     17 C14        -3.3560   -0.8680   -0.6310 c3        1 9PP     -0.107800
     18 O2P        -5.0230   -0.5570    1.3990 oh        1 9PP     -0.778400
     19 O3P        -5.9290   -1.0450   -0.9010 o         1 9PP     -0.868500
     20 O1P        -4.6720   -2.8410    0.4900 o         1 9PP     -0.868500
     21 H81        -4.3270   -0.7170    2.0250 ho        1 9PP      0.423000
     22 HN61        5.3370   -0.2600    1.2430 hn        1 9PP      0.366300
     23 HN62        6.0060    0.1610   -0.2030 hn        1 9PP      0.366300
     24 HN21        3.2560    2.2240   -3.4160 hn        1 9PP      0.358300
     25 HN22        1.6600    2.4660   -3.1370 hn        1 9PP      0.358300
     26 H101       -0.8720    1.7660    1.6500 h1        1 9PP      0.051200
     27 H102       -1.1010    0.0210    2.1390 h1        1 9PP      0.051200
     28 H111       -0.8850   -0.1970   -0.6840 h1        1 9PP      0.049700
     29 H121       -0.9840    2.4300   -0.7010 hc        1 9PP      0.034700
     30 H122       -2.2470    1.5600   -1.6660 hc        1 9PP      0.034700
     31 H123       -2.6710    2.2490   -0.0470 hc        1 9PP      0.034700
     32 H141       -3.5480   -0.1300   -1.4480 h1        1 9PP      0.038700
     33 H142       -2.7480   -1.7030   -1.0600 h1        1 9PP      0.038700
@<TRIPOS>BOND
     1    1    2 2   
     2    1   11 1   
     3    1   12 1   
     4    2    3 2   
     5    3    4 1   
     6    4    5 ar  
     7    4   11 ar  
     8    5    6 1   
     9    5    7 ar  
    10    6   22 1   
    11    6   23 1   
    12    7    8 ar  
    13    8    9 1   
    14    8   10 ar  
    15    9   24 1   
    16    9   25 1   
    17   10   11 ar  
    18   12   13 1   
    19   12   26 1   
    20   12   27 1   
    21   13   14 1   
    22   13   15 1   
    23   13   28 1   
    24   14   29 1   
    25   14   30 1   
    26   14   31 1   
    27   15   17 1   
    28   16   17 1   
    29   16   18 1   
    30   16   19 1   
    31   16   20 1   
    32   17   32 1   
    33   17   33 1   
    34   18   21 1   
@<TRIPOS>SUBSTRUCTURE
     1 9PP         1 TEMP              0 ****  ****    0 ROOT
