@<TRIPOS>MOLECULE
9PP
   33    34     1     0     0
SMALL
bcc


@<TRIPOS>ATOM
      1 N9          0.4860    1.0860    1.5710 nh        1 9PP     -0.252200
      2 C8          1.0200    1.8900    2.6290 c1        1 9PP      0.070400
      3 N7          0.6770    1.3940    3.8370 ne        1 9PP     -0.683800
      4 C5         -0.0960    0.2540    3.6080 ca        1 9PP     -0.144200
      5 C6         -0.7560   -0.6710    4.4500 ca        1 9PP      0.596200
      6 N6         -0.6000   -0.5770    5.8600 nv        1 9PP     -0.897500
      7 N1         -1.5100   -1.6860    3.9240 nb        1 9PP     -0.805000
      8 C2         -1.5440   -1.8110    2.5510 ca        1 9PP      0.763900
      9 N2         -2.2450   -2.9620    2.0350 nv        1 9PP     -0.882500
     10 N3         -0.9530   -0.9830    1.6150 nb        1 9PP     -0.751000
     11 C4         -0.2430    0.0350    2.1530 ca        1 9PP      0.392800
     12 C10         0.6190    1.3350    0.1730 c3        1 9PP      0.065300
     13 C11        -0.3950    2.3460   -0.4160 c3        1 9PP      0.120100
     14 C12        -1.8150    1.8200   -0.3720 c3        1 9PP     -0.109100
     15 O13         0.0120    2.5330   -1.7790 os        1 9PP     -0.410600
     16 P           0.0390    3.7190   -3.9970 p5        1 9PP      1.340600
     17 C14        -0.3510    3.7890   -2.3150 c3        1 9PP     -0.101800
     18 O2P        -1.0390    3.0020   -4.7200 o         1 9PP     -0.868500
     19 O3P         0.5050    5.0650   -4.4070 o         1 9PP     -0.868500
     20 O1P         1.3270    2.7060   -4.0360 oh        1 9PP     -0.778400
     21 H81         1.1010    1.8270   -3.7590 ho        1 9PP      0.423000
     22 HN61       -0.3050    0.3440    6.1150 hn        1 9PP      0.366300
     23 HN62       -1.4250   -0.8410    6.3580 hn        1 9PP      0.366300
     24 HN21       -3.0470   -3.1720    2.5960 hn        1 9PP      0.358800
     25 HN22       -2.5220   -2.8130    1.0850 hn        1 9PP      0.358800
     26 H101        0.5210    0.3710   -0.4000 h1        1 9PP      0.055700
     27 H102        1.6490    1.7580   -0.0050 h1        1 9PP      0.055700
     28 H111       -0.3240    3.3210    0.1410 h1        1 9PP      0.047700
     29 H121       -2.5110    2.5500   -0.8500 hc        1 9PP      0.033700
     30 H122       -1.8830    0.8530   -0.9270 hc        1 9PP      0.033700
     31 H123       -2.1290    1.6530    0.6840 hc        1 9PP      0.033700
     32 H141        0.2050    4.6040   -1.7900 h1        1 9PP      0.036700
     33 H142       -1.4440    3.9770   -2.1720 h1        1 9PP      0.036700
@<TRIPOS>BOND
     1    1    2 2   
     2    1   11 1   
     3    1   12 1   
     4    2    3 2   
     5    3    4 1   
     6    4    5 ar  
     7    4   11 ar  
     8    5    6 1   
     9    5    7 ar  
    10    6   22 1   
    11    6   23 1   
    12    7    8 ar  
    13    8    9 1   
    14    8   10 ar  
    15    9   24 1   
    16    9   25 1   
    17   10   11 ar  
    18   12   13 1   
    19   12   26 1   
    20   12   27 1   
    21   13   14 1   
    22   13   15 1   
    23   13   28 1   
    24   14   29 1   
    25   14   30 1   
    26   14   31 1   
    27   15   17 1   
    28   16   17 1   
    29   16   18 1   
    30   16   19 1   
    31   16   20 1   
    32   17   32 1   
    33   17   33 1   
    34   20   21 1   
@<TRIPOS>SUBSTRUCTURE
     1 9PP         1 TEMP              0 ****  ****    0 ROOT
