@<TRIPOS>MOLECULE
9PP
   35    37     1     0     0
SMALL
bcc


@<TRIPOS>ATOM
      1 N9         -1.0140   -0.2350   -0.1370 nh        1 9PP     -0.256100
      2 C8          0.3690   -0.4670   -0.4080 ce        1 9PP      0.437200
      3 N7          1.2370   -0.2890    0.5810 ne        1 9PP     -0.680000
      4 C5          0.4740    0.1380    1.6780 cf        1 9PP      0.151000
      5 C6          0.7490    0.4030    2.9970 cf        1 9PP      0.457900
      6 N6          2.0590    0.9820    3.3130 n4        1 9PP     -0.778600
      7 N1         -0.2150    0.3200    3.9970 ne        1 9PP     -0.882000
      8 C2         -1.4310   -0.0980    3.4870 ce        1 9PP      0.725200
      9 N2         -2.4340   -0.4250    4.5750 n4        1 9PP     -0.794600
     10 N3         -1.9030   -0.2660    2.2530 n2        1 9PP     -0.693900
     11 C4         -1.0260    0.3830    1.2530 c3        1 9PP      0.477400
     12 C10        -1.8150    0.4100   -1.1450 c3        1 9PP      0.000300
     13 C11        -1.2190    1.6210   -1.9110 c3        1 9PP      0.116100
     14 C12        -0.5510    1.1940   -3.2060 c3        1 9PP     -0.102100
     15 O13        -0.2190    2.2680   -1.1230 os        1 9PP     -0.409600
     16 P          -0.6010    3.1920    1.2040 p5        1 9PP      1.422600
     17 C14        -0.6180    3.4720   -0.4730 c3        1 9PP     -0.129800
     18 O2P         0.7540    2.9360    1.7640 o         1 9PP     -0.860500
     19 O3P        -1.5390    4.1030    1.8700 o         1 9PP     -0.860500
     20 O1P        -1.4030    1.7110    1.2180 os        1 9PP     -0.618200
     21 H81         0.6700   -0.8380   -1.4010 h5        1 9PP      0.054800
     22 HN61        1.9920    1.9610    2.9180 hn        1 9PP      0.470467
     23 HN62        2.7870    0.4630    2.8220 hn        1 9PP      0.470467
     24 HN21       -3.2210   -0.9410    4.1750 hn        1 9PP      0.453467
     25 HN22       -2.7650    0.4660    4.9560 hn        1 9PP      0.453467
     26 H101       -2.0790   -0.3810   -1.9050 h1        1 9PP      0.065200
     27 H102       -2.7610    0.7530   -0.6370 h1        1 9PP      0.065200
     28 H111       -2.0660    2.3230   -2.1480 h1        1 9PP      0.051700
     29 H121        0.3180    0.5240   -3.0000 hc        1 9PP      0.040033
     30 H122       -1.2840    0.6550   -3.8520 hc        1 9PP      0.040033
     31 H123       -0.1750    2.0920   -3.7510 hc        1 9PP      0.040033
     32 H141       -1.6210    3.8310   -0.8110 h1        1 9PP      0.072700
     33 H142        0.1300    4.2430   -0.7930 h1        1 9PP      0.072700
     34 H63         2.2430    1.0070    4.3130 hn        1 9PP      0.470467
     35 H23        -1.9880   -0.9720    5.3110 hn        1 9PP      0.453467
@<TRIPOS>BOND
     1    1    2 2   
     2    1   11 1   
     3    1   12 1   
     4    2    3 1   
     5    2   21 1   
     6    3    4 2   
     7    4    5 1   
     8    4   11 1   
     9    5    6 1   
    10    5    7 2   
    11    6   22 1   
    12    6   23 1   
    13    6   34 1   
    14    7    8 1   
    15    8    9 1   
    16    8   10 2   
    17    9   24 1   
    18    9   25 1   
    19    9   35 1   
    20   10   11 1   
    21   11   20 1   
    22   12   13 1   
    23   12   26 1   
    24   12   27 1   
    25   13   14 1   
    26   13   15 1   
    27   13   28 1   
    28   14   29 1   
    29   14   30 1   
    30   14   31 1   
    31   15   17 1   
    32   16   17 1   
    33   16   18 1   
    34   16   19 1   
    35   16   20 1   
    36   17   32 1   
    37   17   33 1   
@<TRIPOS>SUBSTRUCTURE
     1 9PP         1 TEMP              0 ****  ****    0 ROOT
