@<TRIPOS>MOLECULE
9PQ
   56    59     1     0     0
SMALL
bcc


@<TRIPOS>ATOM
      1 O24         0.4370    1.1960    0.2760 o         1 9PQ     -0.425100
      2 C23         1.5420    0.7140    0.0740 c         1 9PQ      0.575700
      3 N25         2.2960    0.2480    1.3160 ny        1 9PQ     -0.676800
      4 C26         1.4370    0.1690    2.5310 c3        1 9PQ      0.089800
      5 C27         2.2360   -0.3210    3.7650 c3        1 9PQ      0.168800
      6 N7          1.3730   -0.3240    4.9270 n3        1 9PQ     -0.742600
      7 C12         2.0240    0.1750    6.1330 c3        1 9PQ      0.135300
      8 C11         1.0960    0.1280    7.3550 c3        1 9PQ      0.125900
      9 O10         0.5350   -1.1660    7.5290 os        1 9PQ     -0.397600
     10 C9         -0.1960   -1.5870    6.3860 c3        1 9PQ      0.125900
     11 C8          0.6910   -1.5970    5.1330 c3        1 9PQ      0.135300
     12 C16         2.2280    0.5070   -1.1960 ca        1 9PQ     -0.222600
     13 C15         3.6040    0.2410   -1.3080 ca        1 9PQ     -0.067500
     14 C14         4.1760    0.0600   -2.5580 ca        1 9PQ     -0.120000
     15 C17         1.4430    0.6010   -2.3610 ca        1 9PQ     -0.067500
     16 C18         2.0250    0.4210   -3.6110 ca        1 9PQ     -0.120000
     17 C13         3.3960    0.1500   -3.7270 cp        1 9PQ      0.062000
     18 C19         4.0140   -0.0480   -5.0420 cp        1 9PQ     -0.059000
     19 C2          3.9330    0.9930   -6.0210 ca        1 9PQ     -0.016000
     20 C20         4.6680   -1.2340   -5.3390 ca        1 9PQ     -0.090300
     21 C28         4.7910   -2.3570   -4.3520 c3        1 9PQ      0.164700
     22 O29         5.9170   -2.2030   -3.5060 oh        1 9PQ     -0.606800
     23 C21         5.2330   -1.4300   -6.6250 ca        1 9PQ     -0.138000
     24 C22         5.1480   -0.4550   -7.5850 ca        1 9PQ     -0.079000
     25 C1          4.5020    0.7780   -7.3040 ca        1 9PQ     -0.037000
     26 C6          4.4230    1.8020   -8.2880 ca        1 9PQ     -0.106000
     27 C5          3.8160    2.9990   -8.0040 ca        1 9PQ     -0.117000
     28 C4          3.2660    3.2260   -6.7200 ca        1 9PQ     -0.102000
     29 C3          3.3240    2.2510   -5.7540 ca        1 9PQ     -0.143000
     30 H1          2.7010   -0.6730    1.1200 hn        1 9PQ      0.453800
     31 H2          1.0030    1.1920    2.7230 hx        1 9PQ      0.120700
     32 H3          0.5840   -0.5340    2.3070 hx        1 9PQ      0.120700
     33 H4          2.6560   -1.3450    3.5390 h1        1 9PQ      0.048700
     34 H5          3.1050    0.3780    3.9340 h1        1 9PQ      0.048700
     35 H7          2.3200    1.2460    5.9520 h1        1 9PQ      0.045700
     36 H8          2.9570   -0.4150    6.3690 h1        1 9PQ      0.045700
     37 H9          1.6890    0.3070    8.2910 h1        1 9PQ      0.068700
     38 H10         0.2780    0.8900    7.2610 h1        1 9PQ      0.068700
     39 H11        -1.0870   -0.9220    6.2360 h1        1 9PQ      0.068700
     40 H12        -0.5260   -2.6310    6.6300 h1        1 9PQ      0.068700
     41 H13         1.4280   -2.4470    5.2250 h1        1 9PQ      0.045700
     42 H14         0.0410   -1.7900    4.2350 h1        1 9PQ      0.045700
     43 H15         4.2600    0.1850   -0.4270 ha        1 9PQ      0.146000
     44 H16         5.2530   -0.1780   -2.6470 ha        1 9PQ      0.182500
     45 H17         0.3630    0.8160   -2.2770 ha        1 9PQ      0.146000
     46 H18         1.4030    0.4920   -4.5200 ha        1 9PQ      0.182500
     47 H19         3.9140   -2.3780   -3.6480 h1        1 9PQ      0.058200
     48 H20         4.8480   -3.3410   -4.8920 h1        1 9PQ      0.058200
     49 H21         6.7050   -2.2310   -4.0640 ho        1 9PQ      0.414000
     50 H22         5.7370   -2.3850   -6.8420 ha        1 9PQ      0.145000
     51 H23         5.5800   -0.6110   -8.5870 ha        1 9PQ      0.150000
     52 H24         4.8620    1.6120   -9.2800 ha        1 9PQ      0.147000
     53 H25         3.7530    3.7940   -8.7630 ha        1 9PQ      0.149000
     54 H26         2.7940    4.1980   -6.5050 ha        1 9PQ      0.143000
     55 H27         2.9060    2.4440   -4.7550 ha        1 9PQ      0.128000
     56 H252        3.0660    0.9040    1.4880 hn        1 9PQ      0.453800
@<TRIPOS>BOND
     1    1    2 2   
     2    2    3 1   
     3    2   12 1   
     4    3    4 1   
     5    3   30 1   
     6    3   56 1   
     7    4    5 1   
     8    4   31 1   
     9    4   32 1   
    10    5    6 1   
    11    5   33 1   
    12    5   34 1   
    13    6    7 1   
    14    6   11 1   
    15    7    8 1   
    16    7   35 1   
    17    7   36 1   
    18    8    9 1   
    19    8   37 1   
    20    8   38 1   
    21    9   10 1   
    22   10   11 1   
    23   10   39 1   
    24   10   40 1   
    25   11   41 1   
    26   11   42 1   
    27   12   13 ar  
    28   12   15 ar  
    29   13   14 ar  
    30   13   43 1   
    31   14   17 ar  
    32   14   44 1   
    33   15   16 ar  
    34   15   45 1   
    35   16   17 ar  
    36   16   46 1   
    37   17   18 1   
    38   18   19 ar  
    39   18   20 ar  
    40   19   25 ar  
    41   19   29 ar  
    42   20   21 1   
    43   20   23 ar  
    44   21   22 1   
    45   21   47 1   
    46   21   48 1   
    47   22   49 1   
    48   23   24 ar  
    49   23   50 1   
    50   24   25 ar  
    51   24   51 1   
    52   25   26 ar  
    53   26   27 ar  
    54   26   52 1   
    55   27   28 ar  
    56   27   53 1   
    57   28   29 ar  
    58   28   54 1   
    59   29   55 1   
@<TRIPOS>SUBSTRUCTURE
     1 9PQ         1 TEMP              0 ****  ****    0 ROOT
