@<TRIPOS>MOLECULE
9PQ
   55    58     1     0     0
SMALL
bcc


@<TRIPOS>ATOM
      1 O24        -2.2590    0.1600    2.1720 o         1 9PQ     -0.602100
      2 C23        -1.7850   -0.2030    1.0760 c         1 9PQ      0.668700
      3 N25        -2.5680   -0.8390    0.1300 n         1 9PQ     -0.566900
      4 C26        -3.9860   -0.9990    0.2830 c3        1 9PQ      0.086000
      5 C27        -4.8070    0.0340   -0.5290 c3        1 9PQ      0.142800
      6 N7         -6.2250   -0.2950   -0.5700 n3        1 9PQ     -0.724600
      7 C12        -6.9280    0.5010   -1.5700 c3        1 9PQ      0.130300
      8 C11        -8.4370    0.2340   -1.5800 c3        1 9PQ      0.126400
      9 O10        -9.0060    0.3860   -0.2860 os        1 9PQ     -0.414600
     10 C9         -8.3750   -0.4510    0.6770 c3        1 9PQ      0.126400
     11 C8         -6.8630   -0.2090    0.7390 c3        1 9PQ      0.130300
     12 C16        -0.3390   -0.0270    0.7560 ca        1 9PQ     -0.140600
     13 C15         0.0950    0.3680   -0.5130 ca        1 9PQ     -0.095000
     14 C14         1.4550    0.5430   -0.7610 ca        1 9PQ     -0.127500
     15 C17         0.5950   -0.2400    1.7760 ca        1 9PQ     -0.095000
     16 C18         1.9550   -0.0740    1.5240 ca        1 9PQ     -0.127500
     17 C13         2.3950    0.3190    0.2530 cp        1 9PQ     -0.020000
     18 C19         3.8280    0.5010   -0.0150 cp        1 9PQ     -0.046000
     19 C2          4.6420   -0.6460   -0.2680 ca        1 9PQ     -0.022000
     20 C20         4.3910    1.7670   -0.0260 ca        1 9PQ     -0.061300
     21 C28         3.5430    2.9630    0.2680 c3        1 9PQ      0.170700
     22 O29         4.2480    4.1450   -0.0840 oh        1 9PQ     -0.600800
     23 C21         5.7740    1.9300   -0.2930 ca        1 9PQ     -0.105000
     24 C22         6.5700    0.8420   -0.5440 ca        1 9PQ     -0.117000
     25 C1          6.0240   -0.4700   -0.5360 ca        1 9PQ     -0.037000
     26 C6          6.8360   -1.6090   -0.7920 ca        1 9PQ     -0.118000
     27 C5          6.2940   -2.8700   -0.7820 ca        1 9PQ     -0.127000
     28 C4          4.9160   -3.0490   -0.5140 ca        1 9PQ     -0.127000
     29 C3          4.1110   -1.9660   -0.2630 ca        1 9PQ     -0.119000
     30 H1         -2.1780   -1.0420   -0.7580 hn        1 9PQ      0.309500
     31 H2         -4.2580   -2.0390   -0.0560 h1        1 9PQ      0.070200
     32 H3         -4.2430   -0.8980    1.3770 h1        1 9PQ      0.070200
     33 H4         -4.6260    1.0600   -0.0930 h1        1 9PQ      0.036200
     34 H5         -4.4350    0.0440   -1.5920 h1        1 9PQ      0.036200
     35 H7         -6.7640    1.6070   -1.4110 h1        1 9PQ      0.042700
     36 H8         -6.5120    0.2300   -2.5800 h1        1 9PQ      0.042700
     37 H9         -8.9600    1.0010   -2.2080 h1        1 9PQ      0.054200
     38 H10        -8.6540   -0.7970   -1.9680 h1        1 9PQ      0.054200
     39 H11        -8.8510   -0.1640    1.6510 h1        1 9PQ      0.054200
     40 H12        -8.5960   -1.5250    0.4410 h1        1 9PQ      0.054200
     41 H13        -6.4070   -1.0010    1.3960 h1        1 9PQ      0.042700
     42 H14        -6.6810    0.7940    1.2240 h1        1 9PQ      0.042700
     43 H15        -0.6280    0.5610   -1.3200 ha        1 9PQ      0.145000
     44 H16         1.7950    0.8570   -1.7600 ha        1 9PQ      0.146500
     45 H17         0.2430   -0.5280    2.7800 ha        1 9PQ      0.145000
     46 H18         2.6880   -0.2500    2.3270 ha        1 9PQ      0.146500
     47 H19         2.5840    2.9070   -0.3210 h1        1 9PQ      0.039200
     48 H20         3.2930    2.9830    1.3660 h1        1 9PQ      0.039200
     49 H21         3.6710    4.8800    0.1500 ho        1 9PQ      0.405000
     50 H22         6.1900    2.9500   -0.3000 ha        1 9PQ      0.158000
     51 H23         7.6430    0.9670   -0.7540 ha        1 9PQ      0.136000
     52 H24         7.9060   -1.4550   -0.9990 ha        1 9PQ      0.134000
     53 H25         6.9200   -3.7530   -0.9800 ha        1 9PQ      0.133000
     54 H26         4.5000   -4.0680   -0.5090 ha        1 9PQ      0.133000
     55 H27         3.0380   -2.1010   -0.0520 ha        1 9PQ      0.139000
@<TRIPOS>BOND
     1    1    2 2   
     2    2    3 1   
     3    2   12 1   
     4    3    4 1   
     5    3   30 1   
     6    4    5 1   
     7    4   31 1   
     8    4   32 1   
     9    5    6 1   
    10    5   33 1   
    11    5   34 1   
    12    6    7 1   
    13    6   11 1   
    14    7    8 1   
    15    7   35 1   
    16    7   36 1   
    17    8    9 1   
    18    8   37 1   
    19    8   38 1   
    20    9   10 1   
    21   10   11 1   
    22   10   39 1   
    23   10   40 1   
    24   11   41 1   
    25   11   42 1   
    26   12   13 ar  
    27   12   15 ar  
    28   13   14 ar  
    29   13   43 1   
    30   14   17 ar  
    31   14   44 1   
    32   15   16 ar  
    33   15   45 1   
    34   16   17 ar  
    35   16   46 1   
    36   17   18 1   
    37   18   19 ar  
    38   18   20 ar  
    39   19   25 ar  
    40   19   29 ar  
    41   20   21 1   
    42   20   23 ar  
    43   21   22 1   
    44   21   47 1   
    45   21   48 1   
    46   22   49 1   
    47   23   24 ar  
    48   23   50 1   
    49   24   25 ar  
    50   24   51 1   
    51   25   26 ar  
    52   26   27 ar  
    53   26   52 1   
    54   27   28 ar  
    55   27   53 1   
    56   28   29 ar  
    57   28   54 1   
    58   29   55 1   
@<TRIPOS>SUBSTRUCTURE
     1 9PQ         1 TEMP              0 ****  ****    0 ROOT
