@<TRIPOS>MOLECULE
9PQ
   56    59     1     0     0
SMALL
bcc


@<TRIPOS>ATOM
      1 O24         0.4300    1.1780    0.2740 o         1 9PQ     -0.425100
      2 C23         1.5370    0.7000    0.0710 c         1 9PQ      0.575700
      3 N25         2.2920    0.2370    1.3140 n4        1 9PQ     -0.676800
      4 C26         1.4370    0.1650    2.5310 c3        1 9PQ      0.089800
      5 C27         2.2380   -0.3230    3.7650 c3        1 9PQ      0.168800
      6 N7          1.3790   -0.3170    4.9300 n3        1 9PQ     -0.742600
      7 C12         2.0370    0.1850    6.1310 c3        1 9PQ      0.135300
      8 C11         1.1130    0.1470    7.3570 c3        1 9PQ      0.125900
      9 O10         0.5460   -1.1430    7.5380 os        1 9PQ     -0.397600
     10 C9         -0.1910   -1.5650    6.4000 c3        1 9PQ      0.125900
     11 C8          0.6910   -1.5850    5.1440 c3        1 9PQ      0.135300
     12 C16         2.2230    0.4950   -1.1980 ca        1 9PQ     -0.222600
     13 C15         3.5990    0.2280   -1.3100 ca        1 9PQ     -0.067500
     14 C14         4.1720    0.0500   -2.5610 ca        1 9PQ     -0.120000
     15 C17         1.4390    0.5910   -2.3630 ca        1 9PQ     -0.067500
     16 C18         2.0210    0.4140   -3.6140 ca        1 9PQ     -0.120000
     17 C13         3.3920    0.1430   -3.7300 cp        1 9PQ      0.062000
     18 C19         4.0100   -0.0540   -5.0450 cp        1 9PQ     -0.059000
     19 C2          3.9300    0.9890   -6.0220 ca        1 9PQ     -0.016000
     20 C20         4.6640   -1.2390   -5.3440 ca        1 9PQ     -0.090300
     21 C28         4.7860   -2.3640   -4.3590 c3        1 9PQ      0.164700
     22 O29         5.9120   -2.2120   -3.5120 oh        1 9PQ     -0.606800
     23 C21         5.2290   -1.4330   -6.6300 ca        1 9PQ     -0.138000
     24 C22         5.1450   -0.4560   -7.5890 ca        1 9PQ     -0.079000
     25 C1          4.5000    0.7770   -7.3050 ca        1 9PQ     -0.037000
     26 C6          4.4220    1.8020   -8.2870 ca        1 9PQ     -0.106000
     27 C5          3.8150    3.0000   -8.0010 ca        1 9PQ     -0.117000
     28 C4          3.2650    3.2240   -6.7170 ca        1 9PQ     -0.102000
     29 C3          3.3220    2.2480   -5.7530 ca        1 9PQ     -0.143000
     30 H1          2.6950   -0.6860    1.1200 hn        1 9PQ      0.453800
     31 H2          0.5810   -0.5350    2.3120 hx        1 9PQ      0.120700
     32 H3          1.0070    1.1910    2.7200 hx        1 9PQ      0.120700
     33 H4          2.6520   -1.3500    3.5420 h1        1 9PQ      0.048700
     34 H5          3.1100    0.3720    3.9280 h1        1 9PQ      0.048700
     35 H7          2.9670   -0.4090    6.3670 h1        1 9PQ      0.045700
     36 H8          2.3370    1.2530    5.9440 h1        1 9PQ      0.045700
     37 H9          1.7100    0.3270    8.2900 h1        1 9PQ      0.068700
     38 H10         0.2990    0.9130    7.2630 h1        1 9PQ      0.068700
     39 H11        -0.5250   -2.6070    6.6490 h1        1 9PQ      0.068700
     40 H12        -1.0790   -0.8960    6.2500 h1        1 9PQ      0.068700
     41 H13         0.0370   -1.7790    4.2490 h1        1 9PQ      0.045700
     42 H14         1.4240   -2.4390    5.2360 h1        1 9PQ      0.045700
     43 H15         4.2550    0.1700   -0.4290 ha        1 9PQ      0.146000
     44 H16         5.2490   -0.1880   -2.6500 ha        1 9PQ      0.182500
     45 H17         0.3590    0.8070   -2.2800 ha        1 9PQ      0.146000
     46 H18         1.4000    0.4870   -4.5230 ha        1 9PQ      0.182500
     47 H19         3.9090   -2.3850   -3.6550 h1        1 9PQ      0.058200
     48 H20         4.8430   -3.3470   -4.9010 h1        1 9PQ      0.058200
     49 H21         6.6990   -2.2400   -4.0700 ho        1 9PQ      0.414000
     50 H22         5.7330   -2.3880   -6.8490 ha        1 9PQ      0.145000
     51 H23         5.5780   -0.6100   -8.5900 ha        1 9PQ      0.150000
     52 H24         4.8620    1.6150   -9.2800 ha        1 9PQ      0.147000
     53 H25         3.7530    3.7960   -8.7590 ha        1 9PQ      0.149000
     54 H26         2.7930    4.1960   -6.5010 ha        1 9PQ      0.143000
     55 H27         2.9030    2.4380   -4.7540 ha        1 9PQ      0.128000
     56 H252        3.0650    0.8910    1.4800 hn        1 9PQ      0.453800
@<TRIPOS>BOND
     1    1    2 2   
     2    2    3 1   
     3    2   12 1   
     4    3    4 1   
     5    3   30 1   
     6    3   56 1   
     7    4    5 1   
     8    4   31 1   
     9    4   32 1   
    10    5    6 1   
    11    5   33 1   
    12    5   34 1   
    13    6    7 1   
    14    6   11 1   
    15    7    8 1   
    16    7   35 1   
    17    7   36 1   
    18    8    9 1   
    19    8   37 1   
    20    8   38 1   
    21    9   10 1   
    22   10   11 1   
    23   10   39 1   
    24   10   40 1   
    25   11   41 1   
    26   11   42 1   
    27   12   13 ar  
    28   12   15 ar  
    29   13   14 ar  
    30   13   43 1   
    31   14   17 ar  
    32   14   44 1   
    33   15   16 ar  
    34   15   45 1   
    35   16   17 ar  
    36   16   46 1   
    37   17   18 1   
    38   18   19 ar  
    39   18   20 ar  
    40   19   25 ar  
    41   19   29 ar  
    42   20   21 1   
    43   20   23 ar  
    44   21   22 1   
    45   21   47 1   
    46   21   48 1   
    47   22   49 1   
    48   23   24 ar  
    49   23   50 1   
    50   24   25 ar  
    51   24   51 1   
    52   25   26 ar  
    53   26   27 ar  
    54   26   52 1   
    55   27   28 ar  
    56   27   53 1   
    57   28   29 ar  
    58   28   54 1   
    59   29   55 1   
@<TRIPOS>SUBSTRUCTURE
     1 9PQ         1 TEMP              0 ****  ****    0 ROOT
