@<TRIPOS>MOLECULE
9PQ
   55    48     1     0     0
SMALL
bcc


@<TRIPOS>ATOM
      1 O24         0.6680    0.2370    3.1180 o         1 9PQ     -0.363000
      2 C23         0.1110    0.2380    2.0340 c1        1 9PQ      0.341000
      3 N25        -1.2880   -0.0260    1.9530 n3        1 9PQ     -0.375000
      4 C26        -2.1170    0.0290    3.1640 c3        1 9PQ     -0.028000
      5 C27        -3.1740   -1.1330    3.1260 c3        1 9PQ     -0.103000
      6 N7         -4.4770   -0.6240    3.5760 n3        1 9PQ     -0.241000
      7 C12        -4.5760   -0.7450    5.0070 c3        1 9PQ     -0.110000
      8 C11        -4.7140   -2.1950    5.4600 c3        1 9PQ     -0.058000
      9 O10        -5.7570   -2.8780    4.7800 os        1 9PQ     -0.269000
     10 C9         -5.6590   -2.7600    3.3530 c3        1 9PQ     -0.058000
     11 C8         -5.5240   -1.3110    2.8950 c3        1 9PQ     -0.110000
     12 C16         0.8910    0.6050    0.7800 c1        1 9PQ     -0.059667
     13 C15         1.1370    1.9490    0.4770 c1        1 9PQ     -0.113500
     14 C14         1.8530    2.2840   -0.6700 c1        1 9PQ     -0.113500
     15 C17         1.3620   -0.4000   -0.0670 c1        1 9PQ     -0.116000
     16 C18         2.0790   -0.0680   -1.2160 c1        1 9PQ     -0.128000
     17 C13         2.3260    1.2680   -1.5220 c1        1 9PQ     -0.019000
     18 C19         2.9980    1.6270   -2.8200 c1        1 9PQ     -0.045000
     19 C2          4.1480    0.8750   -3.1640 c1        1 9PQ     -0.059667
     20 C20         1.8140    1.4880   -3.5720 c1        1 9PQ     -0.055000
     21 C28         1.1200    2.7350   -4.0760 c3        1 9PQ      0.014000
     22 O29        -0.2380    2.4700   -4.2590 oh        1 9PQ     -0.327000
     23 C21         1.7740    0.6120   -4.6530 c1        1 9PQ     -0.113500
     24 C22         2.9130   -0.1350   -4.9960 c1        1 9PQ     -0.113500
     25 C1          4.1080    0.0030   -4.2400 c1        1 9PQ     -0.059667
     26 C6          5.2620   -0.7560   -4.5860 c1        1 9PQ     -0.116000
     27 C5          6.4420   -0.6200   -3.8380 c1        1 9PQ     -0.113500
     28 C4          6.4850    0.2600   -2.7530 c1        1 9PQ     -0.113500
     29 C3          5.3400    1.0120   -2.4090 c1        1 9PQ     -0.116000
     30 H1         -1.6770   -0.1660    1.1410 hn        1 9PQ      0.221000
     31 H2         -2.5940    0.9160    3.2070 h1        1 9PQ      0.109500
     32 H3         -1.5320   -0.0770    3.9740 h1        1 9PQ      0.109500
     33 H4         -2.8850   -1.8600    3.7200 h1        1 9PQ      0.075000
     34 H5         -3.2530   -1.4720    2.2110 h1        1 9PQ      0.075000
     35 H7         -3.7830   -0.3700    5.4080 h1        1 9PQ      0.102500
     36 H8         -5.3460   -0.2450    5.3130 h1        1 9PQ      0.102500
     37 H9         -3.8870   -2.6530    5.2950 h1        1 9PQ      0.091750
     38 H10        -4.8990   -2.2100    6.4260 h1        1 9PQ      0.091750
     39 H11        -4.8530   -3.2770    3.0420 h1        1 9PQ      0.091750
     40 H12        -6.4670   -3.1510    2.9430 h1        1 9PQ      0.091750
     41 H13        -6.3600   -0.8500    3.0590 h1        1 9PQ      0.102500
     42 H14        -5.3380   -1.2990    1.9330 h1        1 9PQ      0.102500
     43 H15         0.8030    2.6580    1.0770 ha        1 9PQ      0.144500
     44 H16         2.0280    3.2360   -0.8870 ha        1 9PQ      0.144500
     45 H17         1.1900   -1.3310    0.1430 ha        1 9PQ      0.135333
     46 H18         2.4160   -0.7920   -1.8240 ha        1 9PQ      0.145000
     47 H19         1.5210    3.0090   -4.9360 h1        1 9PQ      0.077000
     48 H20         1.2300    3.4750   -3.4040 h1        1 9PQ      0.077000
     49 H21        -0.6470    3.2030   -4.4930 ho        1 9PQ      0.203000
     50 H22         0.9280    0.5130   -5.1900 ha        1 9PQ      0.144500
     51 H23         2.8840   -0.7430   -5.7450 ha        1 9PQ      0.144500
     52 H24         5.2330   -1.3750   -5.3490 ha        1 9PQ      0.135333
     53 H25         7.2620   -1.1610   -4.0850 ha        1 9PQ      0.144500
     54 H26         7.3490    0.3590   -2.2050 ha        1 9PQ      0.144500
     55 H27         5.3690    1.6200   -1.6550 ha        1 9PQ      0.135333
@<TRIPOS>BOND
     1    1    2 1   
     2    2    3 1   
     3    3    4 1   
     4    3   30 1   
     5    4    5 1   
     6    4   31 1   
     7    4   32 1   
     8    5    6 1   
     9    5   33 1   
    10    5   34 1   
    11    6    7 1   
    12    6   11 1   
    13    7    8 1   
    14    7   35 1   
    15    7   36 1   
    16    8    9 1   
    17    8   37 1   
    18    8   38 1   
    19    9   10 1   
    20   10   11 1   
    21   10   39 1   
    22   10   40 1   
    23   11   41 1   
    24   11   42 1   
    25   12   15 1   
    26   13   14 1   
    27   13   43 1   
    28   14   44 1   
    29   15   45 1   
    30   16   17 1   
    31   16   46 1   
    32   17   18 1   
    33   18   20 1   
    34   19   29 1   
    35   20   21 1   
    36   21   22 1   
    37   21   47 1   
    38   21   48 1   
    39   22   49 1   
    40   23   24 1   
    41   23   50 1   
    42   24   51 1   
    43   25   26 1   
    44   26   52 1   
    45   27   28 1   
    46   27   53 1   
    47   28   54 1   
    48   29   55 1   
@<TRIPOS>SUBSTRUCTURE
     1 9PQ         1 TEMP              0 ****  ****    0 ROOT
