@<TRIPOS>MOLECULE
9PR
   21    21     1     0     0
SMALL
bcc


@<TRIPOS>ATOM
      1 C          -1.0070    0.7920    0.0720 c         1 9PR      0.659100
      2 N           0.9120   -0.4720    1.1140 n3        1 9PR     -0.812200
      3 O          -1.3840    1.7560   -0.6290 o         1 9PR     -0.627100
      4 CA          0.3850    0.8430    0.7350 c3        1 9PR      0.094500
      5 CB          1.3940    1.5250   -0.2200 c3        1 9PR     -0.092400
      6 CD          2.0420   -0.7840    0.2440 c3        1 9PR      0.147800
      7 CG          2.4540    0.4770   -0.5330 c3        1 9PR     -0.104400
      8 C1         -3.1270   -0.3960   -0.2740 c3        1 9PR      0.074300
      9 N1         -1.8440   -0.2650    0.3420 n         1 9PR     -0.554900
     10 HN          1.1980   -0.4580    2.0750 hn        1 9PR      0.359800
     11 HA          0.2330    1.4870    1.6510 h1        1 9PR      0.069700
     12 HB          0.8830    1.8850   -1.1470 hc        1 9PR      0.068700
     13 HBA         1.8450    2.4140    0.2850 hc        1 9PR      0.068700
     14 HD          2.9060   -1.1940    0.8310 h1        1 9PR      0.049200
     15 HDA         1.7030   -1.5830   -0.4710 h1        1 9PR      0.049200
     16 HG          2.4980    0.2630   -1.6290 hc        1 9PR      0.050700
     17 HGA         3.4670    0.8240   -0.2140 hc        1 9PR      0.050700
     18 H1         -3.4600    0.5930   -0.6910 h1        1 9PR      0.042367
     19 H1A        -3.0980   -1.1470   -1.1100 h1        1 9PR      0.042367
     20 H1B        -3.8710   -0.7420    0.4920 h1        1 9PR      0.042367
     21 HN1        -1.4780   -1.0700    0.7940 hn        1 9PR      0.323500
@<TRIPOS>BOND
     1    1    3 2   
     2    1    4 1   
     3    1    9 1   
     4    2    4 1   
     5    2    6 1   
     6    2   10 1   
     7    4    5 1   
     8    4   11 1   
     9    5    7 1   
    10    5   12 1   
    11    5   13 1   
    12    6    7 1   
    13    6   14 1   
    14    6   15 1   
    15    7   16 1   
    16    7   17 1   
    17    8    9 1   
    18    8   18 1   
    19    8   19 1   
    20    8   20 1   
    21    9   21 1   
@<TRIPOS>SUBSTRUCTURE
     1 9PR         1 TEMP              0 ****  ****    0 ROOT
