@<TRIPOS>MOLECULE
9PR
   21    20     1     0     0
SMALL
bcc


@<TRIPOS>ATOM
      1 C          -0.9980   -0.1100   -0.4950 c1        1 9PR      0.537500
      2 N           0.9690    1.0270   -0.6950 nh        1 9PR     -0.379100
      3 O          -1.6270    0.9260   -0.2700 o         1 9PR     -0.613500
      4 CA          0.4760   -0.1270   -0.3380 c2        1 9PR      0.204200
      5 CB          0.8530   -0.1660    1.2170 c3        1 9PR     -0.165700
      6 CD          2.1870    1.3460    0.2960 c3        1 9PR     -0.028700
      7 CG          1.8380    0.9570    1.4460 c3        1 9PR     -0.103400
      8 C1         -3.1120   -1.2680   -1.0650 c3        1 9PR      0.015600
      9 N1         -1.6940   -1.3060   -0.8270 n3        1 9PR     -0.391400
     10 HN          1.2850    0.9710   -1.5610 hn        1 9PR      0.211700
     11 HA          0.7090   -0.8880   -0.8680 h4        1 9PR     -0.013200
     12 HB          1.2610   -1.0190    1.4430 hc        1 9PR      0.060700
     13 HBA         0.0120   -0.0160    1.7850 hc        1 9PR      0.060700
     14 HD          2.9790    0.8690    0.0110 h1        1 9PR      0.046200
     15 HDA         2.3650    2.3170    0.3110 h1        1 9PR      0.046200
     16 HG          2.6240    0.6240    1.9460 hc        1 9PR      0.051200
     17 HGA         1.4050    1.6960    1.9410 hc        1 9PR      0.051200
     18 H1         -3.3940   -2.0960   -1.4360 h1        1 9PR      0.042700
     19 H1A        -3.3200   -0.5330   -1.6990 h1        1 9PR      0.042700
     20 H1B        -3.5880   -1.1100   -0.2070 h1        1 9PR      0.042700
     21 HN1        -1.2300   -2.0940   -0.9370 hn        1 9PR      0.280700
@<TRIPOS>BOND
     1    1    3 2   
     2    1    9 2   
     3    2    4 2   
     4    2    6 1   
     5    2   10 1   
     6    4    5 1   
     7    4   11 1   
     8    5    7 1   
     9    5   12 1   
    10    5   13 1   
    11    6    7 1   
    12    6   14 1   
    13    6   15 1   
    14    7   16 1   
    15    7   17 1   
    16    8    9 1   
    17    8   18 1   
    18    8   19 1   
    19    8   20 1   
    20    9   21 1   
@<TRIPOS>SUBSTRUCTURE
     1 9PR         1 TEMP              0 ****  ****    0 ROOT
