@<TRIPOS>MOLECULE
9PY
   25    25     1     0     0
SMALL
bcc


@<TRIPOS>ATOM
      1 OAB         0.0840    0.7320    0.0140 o         1 9PY     -0.818300
      2 CAI         1.1390    0.0490   -0.0160 c         1 9PY      0.905600
      3 OAD         1.5580   -0.6300   -0.9940 o         1 9PY     -0.818300
      4 CAN         2.0290    0.0110    1.2790 c3        1 9PY      0.024800
      5 OAG         3.2060   -0.7540    1.0770 oh        1 9PY     -0.636800
      6 CAH         2.4400    1.4400    1.6280 c3        1 9PY     -0.071400
      7 CAL         3.1570    1.5060    2.9670 c3        1 9PY      0.131100
      8 OAE         3.4990    2.8610    3.2240 oh        1 9PY     -0.606800
      9 CAM         2.2380    0.9700    4.0800 c3        1 9PY     -0.006900
     10 OAF         2.8890    1.0830    5.3350 oh        1 9PY     -0.617800
     11 CAJ         1.8270   -0.4530    3.7480 c         1 9PY      0.569100
     12 OAC         2.0310   -1.3560    4.5690 o         1 9PY     -0.572100
     13 CAK         1.1870   -0.6290    2.4040 c3        1 9PY     -0.156700
     14 CAA         0.9140   -2.0870    2.1030 c3        1 9PY     -0.078100
     15 HAG         3.1220   -1.1750    0.2040 ho        1 9PY      0.433000
     16 HAH1        1.5230    2.0840    1.6430 hc        1 9PY      0.069700
     17 HAH2        3.1240    1.8270    0.8300 hc        1 9PY      0.069700
     18 HAK         0.2090   -0.0610    2.4140 hc        1 9PY      0.097700
     19 HAL         4.1000    0.8890    2.9360 h1        1 9PY      0.047700
     20 HAE         3.7740    2.8990    4.1490 ho        1 9PY      0.401000
     21 HAM         1.3230    1.6220    4.1630 h1        1 9PY      0.093700
     22 HAF         3.3100    0.2330    5.5240 ho        1 9PY      0.415000
     23 HAA1        0.2330   -2.5220    2.8720 hc        1 9PY      0.041367
     24 HAA2        0.4460   -2.1730    1.0920 hc        1 9PY      0.041367
     25 HAA3        1.8710   -2.6620    2.1050 hc        1 9PY      0.041367
@<TRIPOS>BOND
     1    1    2 1   
     2    2    3 1   
     3    2    4 1   
     4    4    5 1   
     5    4    6 1   
     6    4   13 1   
     7    5   15 1   
     8    6    7 1   
     9    6   16 1   
    10    6   17 1   
    11    7    8 1   
    12    7    9 1   
    13    7   19 1   
    14    8   20 1   
    15    9   10 1   
    16    9   11 1   
    17    9   21 1   
    18   10   22 1   
    19   11   12 2   
    20   11   13 1   
    21   13   14 1   
    22   13   18 1   
    23   14   23 1   
    24   14   24 1   
    25   14   25 1   
@<TRIPOS>SUBSTRUCTURE
     1 9PY         1 TEMP              0 ****  ****    0 ROOT
