@<TRIPOS>MOLECULE
9PY
   25    25     1     0     0
SMALL
bcc


@<TRIPOS>ATOM
      1 OAB         0.0700    0.7290    0.0270 o         1 9PY     -0.818300
      2 CAI         1.1230    0.0430   -0.0080 c         1 9PY      0.905600
      3 OAD         1.5300   -0.6460   -0.9840 o         1 9PY     -0.818300
      4 CAN         2.0240    0.0110    1.2800 c3        1 9PY      0.024800
      5 OAG         3.1970   -0.7600    1.0720 oh        1 9PY     -0.636800
      6 CAH         2.4430    1.4420    1.6130 c3        1 9PY     -0.071400
      7 CAL         3.1730    1.5140    2.9450 c3        1 9PY      0.131100
      8 OAE         3.5220    2.8700    3.1890 oh        1 9PY     -0.606800
      9 CAM         2.2620    0.9900    4.0710 c3        1 9PY     -0.006900
     10 OAF         2.9250    1.1120    5.3190 oh        1 9PY     -0.617800
     11 CAJ         1.8430   -0.4330    3.7530 c         1 9PY      0.569100
     12 OAC         2.0520   -1.3310    4.5790 o         1 9PY     -0.572100
     13 CAK         1.1900   -0.6180    2.4170 c3        1 9PY     -0.156700
     14 CAA         0.9100   -2.0760    2.1300 c3        1 9PY     -0.078100
     15 HAG         3.1030   -1.1870    0.2030 ho        1 9PY      0.433000
     16 HAH1        3.1220    1.8190    0.8060 hc        1 9PY      0.069700
     17 HAH2        1.5280    2.0880    1.6320 hc        1 9PY      0.069700
     18 HAK         0.2150   -0.0460    2.4320 hc        1 9PY      0.097700
     19 HAL         4.1130    0.8950    2.9100 h1        1 9PY      0.047700
     20 HAE         3.8060    2.9140    4.1110 ho        1 9PY      0.401000
     21 HAM         1.3500    1.6460    4.1570 h1        1 9PY      0.093700
     22 HAF         3.3450    0.2610    5.5100 ho        1 9PY      0.415000
     23 HAA1        0.2350   -2.5030    2.9090 hc        1 9PY      0.041367
     24 HAA2        0.4320   -2.1690    1.1240 hc        1 9PY      0.041367
     25 HAA3        1.8650   -2.6550    2.1280 hc        1 9PY      0.041367
@<TRIPOS>BOND
     1    1    2 1   
     2    2    3 1   
     3    2    4 1   
     4    4    5 1   
     5    4    6 1   
     6    4   13 1   
     7    5   15 1   
     8    6    7 1   
     9    6   16 1   
    10    6   17 1   
    11    7    8 1   
    12    7    9 1   
    13    7   19 1   
    14    8   20 1   
    15    9   10 1   
    16    9   11 1   
    17    9   21 1   
    18   10   22 1   
    19   11   12 2   
    20   11   13 1   
    21   13   14 1   
    22   13   18 1   
    23   14   23 1   
    24   14   24 1   
    25   14   25 1   
@<TRIPOS>SUBSTRUCTURE
     1 9PY         1 TEMP              0 ****  ****    0 ROOT
