@<TRIPOS>MOLECULE
9RA
   53    55     1     0     0
SMALL
bcc


@<TRIPOS>ATOM
      1 O53         1.1340    1.1110    0.7570 o         1 9RA     -0.829800
      2 C51         2.0910    0.3290    0.4940 c         1 9RA      0.906200
      3 O52         2.7020   -0.3620    1.3580 o         1 9RA     -0.829800
      4 C11         2.5380    0.2110   -0.9560 ca        1 9RA     -0.111600
      5 C10         1.9120    0.9620   -1.9560 ca        1 9RA     -0.115500
      6 C12         3.5830   -0.6490   -1.3080 ca        1 9RA     -0.115500
      7 C13         3.9930   -0.7610   -2.6330 ca        1 9RA     -0.141000
      8 C14         3.3650   -0.0080   -3.6370 ca        1 9RA     -0.103800
      9 C9          2.3210    0.8590   -3.2830 ca        1 9RA     -0.141000
     10 C47         3.7840   -0.1420   -5.0340 ce        1 9RA      0.019600
     11 C48         4.1760   -1.3150   -5.5560 c2        1 9RA     -0.240000
     12 C4          3.7400    1.0660   -5.8750 ca        1 9RA     -0.040800
     13 C3          4.6650    2.1130   -5.7120 ca        1 9RA     -0.051300
     14 C43         5.7160    2.0500   -4.6710 c3        1 9RA     -0.059800
     15 C2          4.5860    3.2200   -6.5580 ca        1 9RA     -0.138000
     16 C5          2.7610    1.1720   -6.8660 ca        1 9RA     -0.119000
     17 C6          2.6700    2.2940   -7.7020 ca        1 9RA     -0.073300
     18 C19         1.5580    2.3350   -8.7160 c3        1 9RA     -0.001700
     19 C27         0.2280    1.9620   -8.0620 c3        1 9RA     -0.084100
     20 C31         1.8520    1.3310   -9.8280 c3        1 9RA     -0.084100
     21 C20         1.4000    3.7350   -9.3100 c3        1 9RA     -0.068400
     22 C21         2.7250    4.3620   -9.6620 c3        1 9RA     -0.067400
     23 C22         3.6230    4.5480   -8.4380 c3        1 9RA     -0.001700
     24 C1          3.6140    3.3230   -7.5620 ca        1 9RA     -0.065300
     25 C39         5.0370    4.8290   -8.9460 c3        1 9RA     -0.083600
     26 C35         3.1490    5.7500   -7.6260 c3        1 9RA     -0.083600
     27 H10         1.0890    1.6350   -1.6650 ha        1 9RA      0.152500
     28 H12         4.0680   -1.2330   -0.5090 ha        1 9RA      0.152500
     29 H13         4.8180   -1.4390   -2.8980 ha        1 9RA      0.111500
     30 H9          1.8260    1.4550   -4.0630 ha        1 9RA      0.111500
     31 H48         4.2050   -2.2350   -4.9600 ha        1 9RA      0.109000
     32 H48A        4.4870   -1.4150   -6.6020 ha        1 9RA      0.109000
     33 H43         5.2980    1.6260   -3.7210 hc        1 9RA      0.050033
     34 H43A        6.1350    3.0630   -4.4570 hc        1 9RA      0.050033
     35 H43B        6.5510    1.3870   -5.0100 hc        1 9RA      0.050033
     36 H2          5.3100    4.0390   -6.4220 ha        1 9RA      0.125000
     37 H5          2.0400    0.3480   -6.9820 ha        1 9RA      0.135000
     38 H27        -0.6140    2.1860   -8.7610 hc        1 9RA      0.034867
     39 H27A        0.1960    0.8750   -7.8140 hc        1 9RA      0.034867
     40 H27B        0.0810    2.5460   -7.1220 hc        1 9RA      0.034867
     41 H31         1.9750    0.3080   -9.3970 hc        1 9RA      0.034867
     42 H31A        2.7910    1.6030  -10.3650 hc        1 9RA      0.034867
     43 H31B        1.0100    1.3130  -10.5600 hc        1 9RA      0.034867
     44 H20         0.8620    4.3860   -8.5710 hc        1 9RA      0.039200
     45 H20A        0.7600    3.6710  -10.2290 hc        1 9RA      0.039200
     46 H21         3.2570    3.7180  -10.4120 hc        1 9RA      0.036700
     47 H21A        2.5510    5.3610  -10.1420 hc        1 9RA      0.036700
     48 H39         5.6910    5.1960   -8.1210 hc        1 9RA      0.034200
     49 H39A        5.4870    3.9010   -9.3730 hc        1 9RA      0.034200
     50 H39B        5.0040    5.6120   -9.7420 hc        1 9RA      0.034200
     51 H35         3.8000    5.8880   -6.7290 hc        1 9RA      0.034200
     52 H35A        2.0990    5.6010   -7.2800 hc        1 9RA      0.034200
     53 H35B        3.1950    6.6760   -8.2480 hc        1 9RA      0.034200
@<TRIPOS>BOND
     1    1    2 1   
     2    2    3 1   
     3    2    4 1   
     4    4    5 ar  
     5    4    6 ar  
     6    5    9 ar  
     7    5   27 1   
     8    6    7 ar  
     9    6   28 1   
    10    7    8 ar  
    11    7   29 1   
    12    8    9 ar  
    13    8   10 1   
    14    9   30 1   
    15   10   11 2   
    16   10   12 1   
    17   11   31 1   
    18   11   32 1   
    19   12   13 ar  
    20   12   16 ar  
    21   13   14 1   
    22   13   15 ar  
    23   14   33 1   
    24   14   34 1   
    25   14   35 1   
    26   15   24 ar  
    27   15   36 1   
    28   16   17 ar  
    29   16   37 1   
    30   17   18 1   
    31   17   24 ar  
    32   18   19 1   
    33   18   20 1   
    34   18   21 1   
    35   19   38 1   
    36   19   39 1   
    37   19   40 1   
    38   20   41 1   
    39   20   42 1   
    40   20   43 1   
    41   21   22 1   
    42   21   44 1   
    43   21   45 1   
    44   22   23 1   
    45   22   46 1   
    46   22   47 1   
    47   23   24 1   
    48   23   25 1   
    49   23   26 1   
    50   25   48 1   
    51   25   49 1   
    52   25   50 1   
    53   26   51 1   
    54   26   52 1   
    55   26   53 1   
@<TRIPOS>SUBSTRUCTURE
     1 9RA         1 TEMP              0 ****  ****    0 ROOT
