@<TRIPOS>MOLECULE
9RA
   53    49     1     0     0
SMALL
bcc


@<TRIPOS>ATOM
      1 O53        -2.3310   -1.0470    6.8820 o         1 9RA     -0.564500
      2 C51        -1.6470   -2.0770    6.6110 c1        1 9RA      0.355000
      3 O52        -1.4170   -2.9320    7.5060 o         1 9RA     -0.564500
      4 C11        -0.9950   -2.2190    5.2380 c1        1 9RA     -0.091500
      5 C10         0.2660   -1.6810    5.0100 c2        1 9RA     -0.130500
      6 C12        -1.7130   -2.7770    4.1840 c1        1 9RA     -0.126000
      7 C13        -1.1690   -2.7960    2.9050 c1        1 9RA     -0.126000
      8 C14         0.0970   -2.2560    2.6770 c1        1 9RA     -0.091500
      9 C9          0.8120   -1.7000    3.7250 c2        1 9RA     -0.130500
     10 C47         0.7020   -2.2550    1.2140 c1        1 9RA     -0.004000
     11 C48         1.2480   -3.3930    0.7040 c1        1 9RA     -0.240000
     12 C4          0.6700   -0.9820    0.3740 c2        1 9RA     -0.029000
     13 C3          1.7800   -0.0670    0.4140 c2        1 9RA     -0.044000
     14 C43         3.0470   -0.4250    1.2350 c3        1 9RA     -0.185000
     15 C2          1.7830    1.0830   -0.4160 c1        1 9RA     -0.138000
     16 C5         -0.4340   -0.7340   -0.5040 c1        1 9RA     -0.119000
     17 C6         -0.4330    0.3880   -1.3160 c1        1 9RA     -0.062000
     18 C19        -1.5850    0.6670   -2.3830 c3        1 9RA     -0.009000
     19 C27        -2.9320    0.6530   -1.6380 c3        1 9RA     -0.201750
     20 C31        -1.5850   -0.4710   -3.3820 c3        1 9RA     -0.201750
     21 C20        -1.4990    1.8890   -3.1110 c3        1 9RA     -0.146500
     22 C21        -0.1630    2.3520   -3.4780 c3        1 9RA     -0.146500
     23 C22         0.7990    2.4490   -2.4190 c3        1 9RA     -0.009000
     24 C1          0.7110    1.3300   -1.2740 c1        1 9RA     -0.062000
     25 C39         2.2240    2.3480   -3.0650 c3        1 9RA     -0.201750
     26 C35         0.6050    3.8410   -1.7360 c3        1 9RA     -0.201750
     27 H10         0.7690   -1.2910    5.7460 ha        1 9RA      0.130000
     28 H12        -2.6060   -3.1400    4.3400 ha        1 9RA      0.134000
     29 H13        -1.6720   -3.1870    2.1670 ha        1 9RA      0.134000
     30 H9          1.6860   -1.3270    3.5680 ha        1 9RA      0.130000
     31 H48         1.2670   -4.2180    1.2470 DU        1 9RA      0.117000
     32 H48A        1.6240   -3.3940   -0.2070 ha        1 9RA      0.101000
     33 H43         3.7430    0.2400    1.0650 hc        1 9RA      0.089667
     34 H43A        2.8280   -0.4320    2.1910 hc        1 9RA      0.089667
     35 H43B        3.3750   -1.3250    0.9630 hc        1 9RA      0.089667
     36 H2          2.5360    1.7010   -0.3880 ha        1 9RA      0.125000
     37 H5         -1.2070   -1.3480   -0.5110 ha        1 9RA      0.135000
     38 H27        -3.5930    1.1910   -2.1400 hc        1 9RA      0.073833
     39 H27A       -2.8120    1.0350   -0.7420 hc        1 9RA      0.073833
     40 H27B       -3.2530   -0.2710   -1.5580 hc        1 9RA      0.073833
     41 H31        -1.8460   -1.2940   -2.9350 hc        1 9RA      0.073833
     42 H31A       -0.6880   -0.5750   -3.7590 hc        1 9RA      0.073833
     43 H31B       -2.2280   -0.2720   -4.1090 hc        1 9RA      0.073833
     44 H20        -1.9250    2.5920   -2.5710 hc        1 9RA      0.077250
     45 H20A       -2.0180    1.7830   -3.9370 hc        1 9RA      0.077250
     46 H21        -0.2620    3.2480   -3.8670 hc        1 9RA      0.077250
     47 H21A        0.1920    1.7280   -4.1400 hc        1 9RA      0.077250
     48 H39         2.5860    1.4360   -2.9260 hc        1 9RA      0.073833
     49 H39A        2.1610    2.5330   -4.0340 hc        1 9RA      0.073833
     50 H39B        2.8190    3.0010   -2.6460 hc        1 9RA      0.073833
     51 H35         0.7360    4.5520   -2.4000 hc        1 9RA      0.073833
     52 H35A       -0.3120    3.9020   -1.3630 hc        1 9RA      0.073833
     53 H35B        1.2620    3.9450   -1.0100 hc        1 9RA      0.073833
@<TRIPOS>BOND
     1    1    2 1   
     2    2    3 1   
     3    4    5 1   
     4    4    6 1   
     5    5    9 1   
     6    5   27 1   
     7    6   28 1   
     8    7    8 1   
     9    7   29 1   
    10    8    9 1   
    11    9   30 1   
    12   10   11 1   
    13   10   12 1   
    14   11   32 1   
    15   12   13 1   
    16   12   16 1   
    17   13   14 1   
    18   13   15 1   
    19   14   33 1   
    20   14   34 1   
    21   14   35 1   
    22   15   36 1   
    23   16   37 1   
    24   17   18 1   
    25   17   24 1   
    26   18   19 1   
    27   18   20 1   
    28   18   21 1   
    29   19   38 1   
    30   19   39 1   
    31   19   40 1   
    32   20   41 1   
    33   20   42 1   
    34   20   43 1   
    35   21   22 1   
    36   21   44 1   
    37   21   45 1   
    38   22   23 1   
    39   22   46 1   
    40   22   47 1   
    41   23   24 1   
    42   23   25 1   
    43   23   26 1   
    44   25   48 1   
    45   25   49 1   
    46   25   50 1   
    47   26   51 1   
    48   26   52 1   
    49   26   53 1   
@<TRIPOS>SUBSTRUCTURE
     1 9RA         1 TEMP              0 ****  ****    0 ROOT
