@<TRIPOS>MOLECULE
9RA
   53    55     1     0     0
SMALL
bcc


@<TRIPOS>ATOM
      1 O53         1.1340    1.0910    0.7540 o         1 9RA     -0.829800
      2 C51         2.0870    0.3060    0.4880 c         1 9RA      0.906200
      3 O52         2.6960   -0.3910    1.3490 o         1 9RA     -0.829800
      4 C11         2.5320    0.1920   -0.9630 ca        1 9RA     -0.111600
      5 C10         1.9090    0.9500   -1.9600 ca        1 9RA     -0.115500
      6 C12         3.5720   -0.6720   -1.3200 ca        1 9RA     -0.115500
      7 C13         3.9810   -0.7810   -2.6460 ca        1 9RA     -0.141000
      8 C14         3.3570   -0.0200   -3.6460 ca        1 9RA     -0.103800
      9 C9          2.3170    0.8500   -3.2870 ca        1 9RA     -0.141000
     10 C47         3.7730   -0.1500   -5.0430 ce        1 9RA      0.019600
     11 C48         4.1590   -1.3220   -5.5700 c2        1 9RA     -0.240000
     12 C4          3.7340    1.0620   -5.8800 ca        1 9RA     -0.040800
     13 C3          4.6640    2.1040   -5.7120 ca        1 9RA     -0.051300
     14 C43         5.7150    2.0320   -4.6710 c3        1 9RA     -0.059800
     15 C2          4.5900    3.2150   -6.5530 ca        1 9RA     -0.138000
     16 C5          2.7560    1.1770   -6.8700 ca        1 9RA     -0.119000
     17 C6          2.6700    2.3020   -7.7010 ca        1 9RA     -0.073300
     18 C19         1.5590    2.3520   -8.7150 c3        1 9RA     -0.001700
     19 C27         0.2270    1.9820   -8.0620 c3        1 9RA     -0.084100
     20 C31         1.8490    1.3520   -9.8310 c3        1 9RA     -0.084100
     21 C20         1.4070    3.7560   -9.3030 c3        1 9RA     -0.068400
     22 C21         2.7350    4.3780   -9.6520 c3        1 9RA     -0.067400
     23 C22         3.6330    4.5550   -8.4280 c3        1 9RA     -0.001700
     24 C1          3.6190    3.3260   -7.5570 ca        1 9RA     -0.065300
     25 C39         5.0480    4.8320   -8.9350 c3        1 9RA     -0.083600
     26 C35         3.1650    5.7560   -7.6110 c3        1 9RA     -0.083600
     27 H10         1.0900    1.6260   -1.6640 ha        1 9RA      0.152500
     28 H12         4.0560   -1.2610   -0.5230 ha        1 9RA      0.152500
     29 H13         4.8030   -1.4610   -2.9140 ha        1 9RA      0.111500
     30 H9          1.8240    1.4520   -4.0640 ha        1 9RA      0.111500
     31 H48         4.1840   -2.2460   -4.9790 ha        1 9RA      0.109000
     32 H48A        4.4690   -1.4200   -6.6170 ha        1 9RA      0.109000
     33 H43         5.2960    1.6070   -3.7230 hc        1 9RA      0.050367
     34 H43A        6.1390    3.0420   -4.4530 hc        1 9RA      0.050367
     35 H43B        6.5470    1.3660   -5.0130 hc        1 9RA      0.050367
     36 H2          5.3180    4.0300   -6.4140 ha        1 9RA      0.125000
     37 H5          2.0320    0.3550   -6.9890 ha        1 9RA      0.135000
     38 H27        -0.6140    2.2130   -8.7610 hc        1 9RA      0.034867
     39 H27A        0.1900    0.8940   -7.8190 hc        1 9RA      0.034867
     40 H27B        0.0830    2.5630   -7.1200 hc        1 9RA      0.034867
     41 H31         1.9670    0.3260   -9.4040 hc        1 9RA      0.034867
     42 H31A        2.7890    1.6220  -10.3670 hc        1 9RA      0.034867
     43 H31B        1.0070    1.3400  -10.5640 hc        1 9RA      0.034867
     44 H20         0.7660    3.6990  -10.2230 hc        1 9RA      0.039200
     45 H20A        0.8710    4.4060   -8.5620 hc        1 9RA      0.039200
     46 H21         2.5650    5.3800  -10.1280 hc        1 9RA      0.036700
     47 H21A        3.2640    3.7350  -10.4050 hc        1 9RA      0.036700
     48 H39         5.4940    3.9040   -9.3660 hc        1 9RA      0.034200
     49 H39A        5.7050    5.1930   -8.1080 hc        1 9RA      0.034200
     50 H39B        5.0190    5.6190   -9.7270 hc        1 9RA      0.034200
     51 H35         3.2150    6.6840   -8.2290 hc        1 9RA      0.034200
     52 H35A        2.1140    5.6090   -7.2650 hc        1 9RA      0.034200
     53 H35B        3.8160    5.8860   -6.7130 hc        1 9RA      0.034200
@<TRIPOS>BOND
     1    1    2 1   
     2    2    3 1   
     3    2    4 1   
     4    4    5 ar  
     5    4    6 ar  
     6    5    9 ar  
     7    5   27 1   
     8    6    7 ar  
     9    6   28 1   
    10    7    8 ar  
    11    7   29 1   
    12    8    9 ar  
    13    8   10 1   
    14    9   30 1   
    15   10   11 2   
    16   10   12 1   
    17   11   31 1   
    18   11   32 1   
    19   12   13 ar  
    20   12   16 ar  
    21   13   14 1   
    22   13   15 ar  
    23   14   33 1   
    24   14   34 1   
    25   14   35 1   
    26   15   24 ar  
    27   15   36 1   
    28   16   17 ar  
    29   16   37 1   
    30   17   18 1   
    31   17   24 ar  
    32   18   19 1   
    33   18   20 1   
    34   18   21 1   
    35   19   38 1   
    36   19   39 1   
    37   19   40 1   
    38   20   41 1   
    39   20   42 1   
    40   20   43 1   
    41   21   22 1   
    42   21   44 1   
    43   21   45 1   
    44   22   23 1   
    45   22   46 1   
    46   22   47 1   
    47   23   24 1   
    48   23   25 1   
    49   23   26 1   
    50   25   48 1   
    51   25   49 1   
    52   25   50 1   
    53   26   51 1   
    54   26   52 1   
    55   26   53 1   
@<TRIPOS>SUBSTRUCTURE
     1 9RA         1 TEMP              0 ****  ****    0 ROOT
