@<TRIPOS>MOLECULE
9RA
   53    55     1     0     0
SMALL
bcc


@<TRIPOS>ATOM
      1 O53         5.8920   -1.0950    2.0930 o         1 9RA     -0.829800
      2 C51         5.8710   -0.1010    1.3140 c         1 9RA      0.906200
      3 O52         6.8590    0.6580    1.1030 o         1 9RA     -0.829800
      4 C11         4.5710    0.2040    0.5830 ca        1 9RA     -0.111600
      5 C10         3.4380   -0.5890    0.7870 ca        1 9RA     -0.115500
      6 C12         4.4930    1.2840   -0.3030 ca        1 9RA     -0.115500
      7 C13         3.3070    1.5650   -0.9750 ca        1 9RA     -0.141000
      8 C14         2.1690    0.7700   -0.7710 ca        1 9RA     -0.103800
      9 C9          2.2470   -0.3100    0.1210 ca        1 9RA     -0.141000
     10 C47         0.9280    1.0540   -1.4940 ce        1 9RA      0.019600
     11 C48         0.9220    1.4990   -2.7600 c2        1 9RA     -0.240000
     12 C4         -0.3410    0.8100   -0.7870 ca        1 9RA     -0.040800
     13 C3         -0.7740    1.6440    0.2590 ca        1 9RA     -0.051300
     14 C43         0.0410    2.7970    0.7070 c3        1 9RA     -0.059800
     15 C2         -1.9990    1.3760    0.8720 ca        1 9RA     -0.138000
     16 C5         -1.1400   -0.2690   -1.1710 ca        1 9RA     -0.119000
     17 C6         -2.3600   -0.5500   -0.5420 ca        1 9RA     -0.073300
     18 C19        -3.1330   -1.7580   -1.0000 c3        1 9RA     -0.001700
     19 C27        -2.2120   -2.9740   -1.0960 c3        1 9RA     -0.084100
     20 C31        -3.7250   -1.4840   -2.3800 c3        1 9RA     -0.084100
     21 C20        -4.2510   -2.1070   -0.0160 c3        1 9RA     -0.068400
     22 C21        -5.0130   -0.8900    0.4420 c3        1 9RA     -0.067400
     23 C22        -4.1230    0.1060    1.1880 c3        1 9RA     -0.001700
     24 C1         -2.8090    0.3010    0.4790 ca        1 9RA     -0.065300
     25 C39        -4.8860    1.4280    1.2700 c3        1 9RA     -0.083600
     26 C35        -3.8610   -0.3950    2.6060 c3        1 9RA     -0.083600
     27 H10         3.5140   -1.4370    1.4870 ha        1 9RA      0.152500
     28 H12         5.3940    1.9020   -0.4510 ha        1 9RA      0.152500
     29 H13         3.2560    2.4190   -1.6670 ha        1 9RA      0.111500
     30 H9          1.3590   -0.9360    0.2900 ha        1 9RA      0.111500
     31 H48        -0.0070    1.7090   -3.3020 ha        1 9RA      0.109000
     32 H48A        1.8490    1.6750   -3.3190 ha        1 9RA      0.109000
     33 H43        -0.0830    3.6520   -0.0040 hc        1 9RA      0.050367
     34 H43A       -0.2660    3.1380    1.7260 hc        1 9RA      0.050367
     35 H43B        1.1270    2.5190    0.7340 hc        1 9RA      0.050367
     36 H2         -2.3310    2.0290    1.6940 ha        1 9RA      0.125000
     37 H5         -0.7880   -0.9170   -1.9900 ha        1 9RA      0.135000
     38 H27        -1.6100   -3.0790   -0.1630 hc        1 9RA      0.034867
     39 H27A       -2.8200   -3.8990   -1.2400 hc        1 9RA      0.034867
     40 H27B       -1.5140   -2.8770   -1.9610 hc        1 9RA      0.034867
     41 H31        -2.9120   -1.2220   -3.0990 hc        1 9RA      0.034867
     42 H31A       -4.2580   -2.3900   -2.7550 hc        1 9RA      0.034867
     43 H31B       -4.4470   -0.6350   -2.3370 hc        1 9RA      0.034867
     44 H20        -4.9570   -2.8280   -0.5060 hc        1 9RA      0.039200
     45 H20A       -3.8050   -2.6270    0.8740 hc        1 9RA      0.039200
     46 H21        -5.4710   -0.3780   -0.4460 hc        1 9RA      0.036700
     47 H21A       -5.8520   -1.2050    1.1170 hc        1 9RA      0.036700
     48 H39        -5.9310    1.2410    1.6180 hc        1 9RA      0.034200
     49 H39A       -4.3980    2.1250    1.9920 hc        1 9RA      0.034200
     50 H39B       -4.9220    1.9180    0.2690 hc        1 9RA      0.034200
     51 H35        -3.3480   -1.3850    2.5830 hc        1 9RA      0.034200
     52 H35A       -3.2080    0.3280    3.1530 hc        1 9RA      0.034200
     53 H35B       -4.8240   -0.5000    3.1600 hc        1 9RA      0.034200
@<TRIPOS>BOND
     1    1    2 1   
     2    2    3 1   
     3    2    4 1   
     4    4    5 ar  
     5    4    6 ar  
     6    5    9 ar  
     7    5   27 1   
     8    6    7 ar  
     9    6   28 1   
    10    7    8 ar  
    11    7   29 1   
    12    8    9 ar  
    13    8   10 1   
    14    9   30 1   
    15   10   11 2   
    16   10   12 1   
    17   11   31 1   
    18   11   32 1   
    19   12   13 ar  
    20   12   16 ar  
    21   13   14 1   
    22   13   15 ar  
    23   14   33 1   
    24   14   34 1   
    25   14   35 1   
    26   15   24 ar  
    27   15   36 1   
    28   16   17 ar  
    29   16   37 1   
    30   17   18 1   
    31   17   24 ar  
    32   18   19 1   
    33   18   20 1   
    34   18   21 1   
    35   19   38 1   
    36   19   39 1   
    37   19   40 1   
    38   20   41 1   
    39   20   42 1   
    40   20   43 1   
    41   21   22 1   
    42   21   44 1   
    43   21   45 1   
    44   22   23 1   
    45   22   46 1   
    46   22   47 1   
    47   23   24 1   
    48   23   25 1   
    49   23   26 1   
    50   25   48 1   
    51   25   49 1   
    52   25   50 1   
    53   26   51 1   
    54   26   52 1   
    55   26   53 1   
@<TRIPOS>SUBSTRUCTURE
     1 9RA         1 TEMP              0 ****  ****    0 ROOT
