@<TRIPOS>MOLECULE
9RM
   28    29     1     0     0
SMALL
bcc


@<TRIPOS>ATOM
      1 CAA        -0.0040    0.0580    0.0070 c3        1 9RM     -0.017900
      2 OAB         4.9860    0.1900    2.2780 o         1 9RM     -0.573500
      3 FAC        -0.8620    1.6900    8.5020 f         1 9RM     -0.231633
      4 FAD        -2.5960    0.9280    7.4450 f         1 9RM     -0.231633
      5 FAE        -1.5240    2.6450    6.6690 f         1 9RM     -0.231633
      6 CAF         1.1500   -1.3340    6.3360 ca        1 9RM     -0.112000
      7 CAG         1.1610   -1.2650    4.9460 ca        1 9RM     -0.121000
      8 CAH         0.3570   -0.4680    7.0870 ca        1 9RM     -0.085000
      9 CAI        -0.4270    0.5770    5.0400 ca        1 9RM     -0.111000
     10 NAJ         2.4670    0.2630   -0.1310 nc        1 9RM     -0.068600
     11 NAK         2.7360    0.0150    2.6180 ns        1 9RM     -0.483100
     12 NAL         0.3310   -0.2510    2.8670 nu        1 9RM     -0.637400
     13 NAM         3.6110    0.2980    0.3230 nd        1 9RM     -0.228400
     14 CAN         1.3280    0.0980    0.6600 cc        1 9RM     -0.156600
     15 CAO         0.3770   -0.2990    4.2780 ca        1 9RM      0.106600
     16 CAP        -0.4310    0.4770    6.4290 ca        1 9RM     -0.144300
     17 CAQ         1.4590   -0.0350    2.0730 cd        1 9RM      0.306600
     18 CAR         3.8650    0.1710    1.7490 c         1 9RM      0.761900
     19 CAS        -1.3260    1.4120    7.2400 c3        1 9RM      0.687200
     20 HAA         0.0820    0.1520   -1.1050 hc        1 9RM      0.047700
     21 HAAA       -0.5190   -0.9100    0.2320 hc        1 9RM      0.047700
     22 HAAB       -0.6430    0.9010    0.3740 hc        1 9RM      0.047700
     23 HAF         1.7700   -2.0880    6.8470 ha        1 9RM      0.154000
     24 HAG         1.7690   -1.9850    4.3740 ha        1 9RM      0.157000
     25 HAH         0.3500   -0.5240    8.1880 ha        1 9RM      0.162000
     26 HAI        -1.0560    1.3400    4.5510 ha        1 9RM      0.158000
     27 HNAK        2.8900   -0.0530    3.6010 hn        1 9RM      0.341500
     28 HNAL       -0.5310    0.0640    2.4700 hn        1 9RM      0.457800
@<TRIPOS>BOND
     1    1   14 1   
     2    1   20 1   
     3    1   21 1   
     4    1   22 1   
     5    2   18 2   
     6    3   19 1   
     7    4   19 1   
     8    5   19 1   
     9    6    7 ar  
    10    6    8 ar  
    11    6   23 1   
    12    7   15 ar  
    13    7   24 1   
    14    8   16 ar  
    15    8   25 1   
    16    9   15 ar  
    17    9   16 ar  
    18    9   26 1   
    19   10   13 2   
    20   10   14 1   
    21   11   17 1   
    22   11   18 1   
    23   11   27 1   
    24   12   15 1   
    25   12   17 1   
    26   12   28 1   
    27   13   18 1   
    28   14   17 2   
    29   16   19 1   
@<TRIPOS>SUBSTRUCTURE
     1 9RM         1 TEMP              0 ****  ****    0 ROOT
