@<TRIPOS>MOLECULE
9RM
   28    29     1     0     0
SMALL
bcc


@<TRIPOS>ATOM
      1 CAA        -0.0040    0.0660    0.0070 c3        1 9RM     -0.017900
      2 OAB         4.9860    0.1890    2.2780 o         1 9RM     -0.573500
      3 FAC        -0.8650    1.6780    8.5070 f         1 9RM     -0.231633
      4 FAD        -2.5980    0.9280    7.4390 f         1 9RM     -0.231633
      5 FAE        -1.5150    2.6450    6.6770 f         1 9RM     -0.231633
      6 CAF         1.1480   -1.3390    6.3330 ca        1 9RM     -0.112000
      7 CAG         1.1590   -1.2670    4.9440 ca        1 9RM     -0.121000
      8 CAH         0.3560   -0.4730    7.0860 ca        1 9RM     -0.085000
      9 CAI        -0.4270    0.5760    5.0410 ca        1 9RM     -0.111000
     10 NAJ         2.4680    0.2690   -0.1300 nc        1 9RM     -0.068600
     11 NAK         2.7360    0.0160    2.6180 n         1 9RM     -0.483100
     12 NAL         0.3310   -0.2480    2.8670 nh        1 9RM     -0.637400
     13 NAM         3.6110    0.3020    0.3240 nd        1 9RM     -0.228400
     14 CAN         1.3280    0.1040    0.6600 cc        1 9RM     -0.156600
     15 CAO         0.3760   -0.2990    4.2770 ca        1 9RM      0.106600
     16 CAP        -0.4310    0.4730    6.4300 ca        1 9RM     -0.144300
     17 CAQ         1.4590   -0.0320    2.0730 cd        1 9RM      0.306600
     18 CAR         3.8660    0.1720    1.7500 c         1 9RM      0.761900
     19 CAS        -1.3250    1.4070    7.2420 c3        1 9RM      0.687200
     20 HAA         0.0830    0.1620   -1.1040 hc        1 9RM      0.047700
     21 HAAA       -0.5200   -0.9020    0.2300 hc        1 9RM      0.047700
     22 HAAB       -0.6430    0.9090    0.3750 hc        1 9RM      0.047700
     23 HAF         1.7680   -2.0940    6.8430 ha        1 9RM      0.154000
     24 HAG         1.7670   -1.9860    4.3700 ha        1 9RM      0.157000
     25 HAH         0.3490   -0.5320    8.1870 ha        1 9RM      0.162000
     26 HAI        -1.0540    1.3400    4.5530 ha        1 9RM      0.158000
     27 HNAK        2.8900   -0.0540    3.6010 hn        1 9RM      0.341500
     28 HNAL       -0.5310    0.0680    2.4700 hn        1 9RM      0.457800
@<TRIPOS>BOND
     1    1   14 1   
     2    1   20 1   
     3    1   21 1   
     4    1   22 1   
     5    2   18 2   
     6    3   19 1   
     7    4   19 1   
     8    5   19 1   
     9    6    7 ar  
    10    6    8 ar  
    11    6   23 1   
    12    7   15 ar  
    13    7   24 1   
    14    8   16 ar  
    15    8   25 1   
    16    9   15 ar  
    17    9   16 ar  
    18    9   26 1   
    19   10   13 2   
    20   10   14 1   
    21   11   17 1   
    22   11   18 1   
    23   11   27 1   
    24   12   15 1   
    25   12   17 1   
    26   12   28 1   
    27   13   18 1   
    28   14   17 2   
    29   16   19 1   
@<TRIPOS>SUBSTRUCTURE
     1 9RM         1 TEMP              0 ****  ****    0 ROOT
