@<TRIPOS>MOLECULE
9S3
   69    73     1     0     0
SMALL
bcc


@<TRIPOS>ATOM
      1 O           0.1400   -1.1710   -0.0240 o         1 9S3     -0.558100
      2 C17         1.1320   -0.4290    0.0610 c         1 9S3      0.666100
      3 C18         1.5150    0.1690    1.3930 c3        1 9S3     -0.167100
      4 N2          1.8680   -0.0400   -1.0920 n         1 9S3     -0.392000
      5 C2          3.3060   -0.2790   -1.1730 c3        1 9S3      0.107700
      6 C1          3.9680   -0.7760    0.1090 c3        1 9S3     -0.110100
      7 C16         1.1790    0.0670   -2.3250 ca        1 9S3      0.087600
      8 C11         1.8060   -0.1810   -3.5700 ca        1 9S3     -0.162300
      9 C4          3.2310   -0.6820   -3.6500 c3        1 9S3      0.245800
     10 N1          3.4750   -1.6670   -4.6980 nh        1 9S3     -0.714600
     11 C5          3.9200   -1.2130   -5.9580 ca        1 9S3      0.127600
     12 C10         3.3450   -1.7260   -7.1450 ca        1 9S3     -0.176000
     13 C9          3.8570   -1.3720   -8.3890 ca        1 9S3     -0.101000
     14 C8          4.9350   -0.4940   -8.4880 ca        1 9S3     -0.161000
     15 C7          5.5060    0.0240   -7.3270 ca        1 9S3     -0.101000
     16 C6          5.0150   -0.3270   -6.0740 ca        1 9S3     -0.176000
     17 C3          3.6610   -1.2640   -2.2960 c3        1 9S3     -0.100400
     18 C15        -0.1600    0.5280   -2.3290 ca        1 9S3     -0.151000
     19 C14        -0.8340    0.7610   -3.5180 ca        1 9S3     -0.090000
     20 C13        -0.2020    0.5510   -4.7520 cp        1 9S3     -0.061000
     21 C12         1.1140    0.0820   -4.7560 ca        1 9S3     -0.097000
     22 C19        -0.9050    0.8180   -6.0030 cp        1 9S3     -0.030000
     23 C30        -1.7550    1.9280   -6.1190 ca        1 9S3     -0.123500
     24 C29        -2.4290    2.1820   -7.3110 ca        1 9S3     -0.118000
     25 C22        -2.2650    1.3330   -8.4100 ca        1 9S3     -0.085300
     26 C21        -1.4170    0.2260   -8.3000 ca        1 9S3     -0.118000
     27 C20        -0.7440   -0.0300   -7.1080 ca        1 9S3     -0.123500
     28 C23        -3.0290    1.5610   -9.6810 c3        1 9S3      0.215100
     29 N3         -2.9700    2.9320  -10.1770 n3        1 9S3     -0.728600
     30 C28        -3.9130    3.1430  -11.2690 c3        1 9S3      0.168300
     31 C27        -3.8850    4.5670  -11.8200 c3        1 9S3     -0.076900
     32 C26        -2.4810    4.9780  -12.2060 c3        1 9S3     -0.078400
     33 C25        -1.5330    4.7750  -11.0440 c3        1 9S3     -0.076900
     34 C24        -1.6130    3.3450  -10.5150 c3        1 9S3      0.168300
     35 H181        2.1430    1.0840    1.2880 hc        1 9S3      0.069367
     36 H182        0.5710    0.4360    1.9310 hc        1 9S3      0.069367
     37 H183        2.0610   -0.5950    1.9990 hc        1 9S3      0.069367
     38 H2          3.7650    0.7260   -1.4310 h1        1 9S3      0.058700
     39 H11C        3.9840    0.0220    0.8890 hc        1 9S3      0.048033
     40 H12C        3.4500   -1.6780    0.5140 hc        1 9S3      0.048033
     41 H13C        5.0270   -1.0510   -0.1180 hc        1 9S3      0.048033
     42 H31C        4.7690   -1.4290   -2.3010 hc        1 9S3      0.064200
     43 H32C        3.1690   -2.2530   -2.1110 hc        1 9S3      0.064200
     44 H15        -0.6890    0.6930   -1.3760 ha        1 9S3      0.145000
     45 H4          3.8790    0.2270   -3.8520 h1        1 9S3      0.068700
     46 H12         1.6180   -0.0700   -5.7260 ha        1 9S3      0.143000
     47 H1          2.7110   -2.3110   -4.7760 hn        1 9S3      0.391800
     48 H10         2.4910   -2.4180   -7.0920 ha        1 9S3      0.132000
     49 H6          5.4990    0.0820   -5.1750 ha        1 9S3      0.132000
     50 H9          3.4010   -1.7870   -9.3000 ha        1 9S3      0.130000
     51 H8          5.3310   -0.2130   -9.4740 ha        1 9S3      0.132000
     52 H7          6.3590    0.7160   -7.3980 ha        1 9S3      0.130000
     53 H14        -1.8780    1.1100   -3.4900 ha        1 9S3      0.139000
     54 H30        -1.8850    2.6070   -5.2630 ha        1 9S3      0.133000
     55 H20        -0.0840   -0.9070   -7.0320 ha        1 9S3      0.133000
     56 H29        -3.0910    3.0580   -7.3920 ha        1 9S3      0.139000
     57 H21        -1.2790   -0.4500   -9.1570 ha        1 9S3      0.139000
     58 H231       -2.6710    0.8260  -10.4630 h1        1 9S3      0.037700
     59 H232       -4.1140    1.3270   -9.4720 h1        1 9S3      0.037700
     60 H281       -3.7220    2.4260  -12.1230 h1        1 9S3      0.031200
     61 H282       -4.9450    2.9300  -10.8710 h1        1 9S3      0.031200
     62 H241       -0.9980    3.2660   -9.5740 h1        1 9S3      0.031200
     63 H242       -1.1530    2.6550  -11.2830 h1        1 9S3      0.031200
     64 H271       -4.5610    4.6130  -12.7120 hc        1 9S3      0.046200
     65 H272       -4.2850    5.2770  -11.0490 hc        1 9S3      0.046200
     66 H261       -2.1380    4.3680  -13.0830 hc        1 9S3      0.039200
     67 H262       -2.4730    6.0530  -12.5210 hc        1 9S3      0.039200
     68 H251       -0.4790    4.9730  -11.3660 hc        1 9S3      0.046200
     69 H252       -1.7830    5.4960  -10.2240 hc        1 9S3      0.046200
@<TRIPOS>BOND
     1    1    2 2   
     2    2    3 1   
     3    2    4 1   
     4    3   35 1   
     5    3   36 1   
     6    3   37 1   
     7    4    5 1   
     8    4    7 1   
     9    5    6 1   
    10    5   17 1   
    11    5   38 1   
    12    6   39 1   
    13    6   40 1   
    14    6   41 1   
    15    7    8 ar  
    16    7   18 ar  
    17    8    9 1   
    18    8   21 ar  
    19    9   10 1   
    20    9   17 1   
    21    9   45 1   
    22   10   11 1   
    23   10   47 1   
    24   11   12 ar  
    25   11   16 ar  
    26   12   13 ar  
    27   12   48 1   
    28   13   14 ar  
    29   13   50 1   
    30   14   15 ar  
    31   14   51 1   
    32   15   16 ar  
    33   15   52 1   
    34   16   49 1   
    35   17   42 1   
    36   17   43 1   
    37   18   19 ar  
    38   18   44 1   
    39   19   20 ar  
    40   19   53 1   
    41   20   21 ar  
    42   20   22 1   
    43   21   46 1   
    44   22   23 ar  
    45   22   27 ar  
    46   23   24 ar  
    47   23   54 1   
    48   24   25 ar  
    49   24   56 1   
    50   25   26 ar  
    51   25   28 1   
    52   26   27 ar  
    53   26   57 1   
    54   27   55 1   
    55   28   29 1   
    56   28   58 1   
    57   28   59 1   
    58   29   30 1   
    59   29   34 1   
    60   30   31 1   
    61   30   60 1   
    62   30   61 1   
    63   31   32 1   
    64   31   64 1   
    65   31   65 1   
    66   32   33 1   
    67   32   66 1   
    68   32   67 1   
    69   33   34 1   
    70   33   68 1   
    71   33   69 1   
    72   34   62 1   
    73   34   63 1   
@<TRIPOS>SUBSTRUCTURE
     1 9S3         1 TEMP              0 ****  ****    0 ROOT
