@<TRIPOS>MOLECULE
9S3
   69    73     1     0     0
SMALL
bcc


@<TRIPOS>ATOM
      1 O           0.1410   -1.1840   -0.0250 o         1 9S3     -0.558100
      2 C17         1.1320   -0.4400    0.0590 c         1 9S3      0.666100
      3 C18         1.5140    0.1580    1.3910 c3        1 9S3     -0.167100
      4 N2          1.8670   -0.0500   -1.0940 n         1 9S3     -0.392000
      5 C2          3.3050   -0.2880   -1.1740 c3        1 9S3      0.107700
      6 C1          3.9660   -0.7910    0.1070 c3        1 9S3     -0.111100
      7 C16         1.1790    0.0580   -2.3270 ca        1 9S3      0.087600
      8 C11         1.8060   -0.1850   -3.5730 ca        1 9S3     -0.162300
      9 C4          3.2320   -0.6810   -3.6530 c3        1 9S3      0.245800
     10 N1          3.4810   -1.6610   -4.7050 nu        1 9S3     -0.714600
     11 C5          3.9260   -1.2000   -5.9620 ca        1 9S3      0.127600
     12 C10         3.3540   -1.7080   -7.1530 ca        1 9S3     -0.176000
     13 C9          3.8660   -1.3470   -8.3940 ca        1 9S3     -0.101500
     14 C8          4.9410   -0.4660   -8.4880 ca        1 9S3     -0.161000
     15 C7          5.5100    0.0480   -7.3240 ca        1 9S3     -0.101500
     16 C6          5.0190   -0.3100   -6.0730 ca        1 9S3     -0.176000
     17 C3          3.6630   -1.2690   -2.3010 c3        1 9S3     -0.100400
     18 C15        -0.1620    0.5160   -2.3300 ca        1 9S3     -0.152000
     19 C14        -0.8360    0.7500   -3.5180 ca        1 9S3     -0.090000
     20 C13        -0.2030    0.5450   -4.7520 cp        1 9S3     -0.062000
     21 C12         1.1140    0.0800   -4.7570 ca        1 9S3     -0.097000
     22 C19        -0.9070    0.8130   -6.0030 cp        1 9S3     -0.030000
     23 C30        -1.7590    1.9210   -6.1170 ca        1 9S3     -0.123500
     24 C29        -2.4330    2.1770   -7.3080 ca        1 9S3     -0.118000
     25 C22        -2.2680    1.3310   -8.4090 ca        1 9S3     -0.085300
     26 C21        -1.4180    0.2250   -8.3010 ca        1 9S3     -0.118000
     27 C20        -0.7450   -0.0330   -7.1100 ca        1 9S3     -0.123500
     28 C23        -3.0320    1.5610   -9.6800 c3        1 9S3      0.215100
     29 N3         -2.9720    2.9320  -10.1740 n3        1 9S3     -0.728600
     30 C28        -3.9150    3.1440  -11.2660 c3        1 9S3      0.168300
     31 C27        -3.8870    4.5700  -11.8140 c3        1 9S3     -0.076900
     32 C26        -2.4830    4.9810  -12.2000 c3        1 9S3     -0.078400
     33 C25        -1.5350    4.7750  -11.0390 c3        1 9S3     -0.076900
     34 C24        -1.6160    3.3450  -10.5110 c3        1 9S3      0.168300
     35 H181        2.1440    1.0730    1.2860 hc        1 9S3      0.069367
     36 H182        0.5700    0.4270    1.9280 hc        1 9S3      0.069367
     37 H183        2.0600   -0.6060    1.9980 hc        1 9S3      0.069367
     38 H2          3.7650    0.7180   -1.4280 h1        1 9S3      0.058700
     39 H11C        3.4470   -1.6930    0.5090 hc        1 9S3      0.048033
     40 H12C        5.0250   -1.0680   -0.1210 hc        1 9S3      0.048033
     41 H13C        3.9840    0.0050    0.8890 hc        1 9S3      0.048033
     42 H31C        4.7710   -1.4320   -2.3060 hc        1 9S3      0.064200
     43 H32C        3.1720   -2.2590   -2.1210 hc        1 9S3      0.064200
     44 H15        -0.6910    0.6770   -1.3770 ha        1 9S3      0.145000
     45 H4          3.8790    0.2300   -3.8500 h1        1 9S3      0.068700
     46 H12         1.6190   -0.0690   -5.7280 ha        1 9S3      0.143000
     47 H1          2.7190   -2.3070   -4.7870 hn        1 9S3      0.391800
     48 H10         2.5010   -2.4030   -7.1040 ha        1 9S3      0.132000
     49 H6          5.5010    0.0960   -5.1710 ha        1 9S3      0.132000
     50 H9          3.4120   -1.7580   -9.3080 ha        1 9S3      0.130000
     51 H8          5.3380   -0.1780   -9.4720 ha        1 9S3      0.132000
     52 H7          6.3610    0.7420   -7.3900 ha        1 9S3      0.130000
     53 H14        -1.8810    1.0960   -3.4900 ha        1 9S3      0.139000
     54 H30        -1.8900    2.5990   -5.2590 ha        1 9S3      0.133000
     55 H20        -0.0830   -0.9090   -7.0350 ha        1 9S3      0.133000
     56 H29        -3.0970    3.0520   -7.3870 ha        1 9S3      0.139000
     57 H21        -1.2790   -0.4490   -9.1600 ha        1 9S3      0.139000
     58 H231       -2.6740    0.8260  -10.4620 h1        1 9S3      0.037700
     59 H232       -4.1170    1.3260   -9.4710 h1        1 9S3      0.037700
     60 H281       -4.9480    2.9310  -10.8680 h1        1 9S3      0.031200
     61 H282       -3.7250    2.4290  -12.1200 h1        1 9S3      0.031200
     62 H241       -1.0010    3.2650   -9.5700 h1        1 9S3      0.031200
     63 H242       -1.1550    2.6560  -11.2800 h1        1 9S3      0.031200
     64 H271       -4.2870    5.2780  -11.0430 hc        1 9S3      0.046450
     65 H272       -4.5630    4.6170  -12.7060 hc        1 9S3      0.046450
     66 H261       -2.4740    6.0560  -12.5140 hc        1 9S3      0.039200
     67 H262       -2.1400    4.3710  -13.0780 hc        1 9S3      0.039200
     68 H251       -1.7840    5.4960  -10.2170 hc        1 9S3      0.046450
     69 H252       -0.4810    4.9740  -11.3600 hc        1 9S3      0.046450
@<TRIPOS>BOND
     1    1    2 2   
     2    2    3 1   
     3    2    4 1   
     4    3   35 1   
     5    3   36 1   
     6    3   37 1   
     7    4    5 1   
     8    4    7 1   
     9    5    6 1   
    10    5   17 1   
    11    5   38 1   
    12    6   39 1   
    13    6   40 1   
    14    6   41 1   
    15    7    8 ar  
    16    7   18 ar  
    17    8    9 1   
    18    8   21 ar  
    19    9   10 1   
    20    9   17 1   
    21    9   45 1   
    22   10   11 1   
    23   10   47 1   
    24   11   12 ar  
    25   11   16 ar  
    26   12   13 ar  
    27   12   48 1   
    28   13   14 ar  
    29   13   50 1   
    30   14   15 ar  
    31   14   51 1   
    32   15   16 ar  
    33   15   52 1   
    34   16   49 1   
    35   17   42 1   
    36   17   43 1   
    37   18   19 ar  
    38   18   44 1   
    39   19   20 ar  
    40   19   53 1   
    41   20   21 ar  
    42   20   22 1   
    43   21   46 1   
    44   22   23 ar  
    45   22   27 ar  
    46   23   24 ar  
    47   23   54 1   
    48   24   25 ar  
    49   24   56 1   
    50   25   26 ar  
    51   25   28 1   
    52   26   27 ar  
    53   26   57 1   
    54   27   55 1   
    55   28   29 1   
    56   28   58 1   
    57   28   59 1   
    58   29   30 1   
    59   29   34 1   
    60   30   31 1   
    61   30   60 1   
    62   30   61 1   
    63   31   32 1   
    64   31   64 1   
    65   31   65 1   
    66   32   33 1   
    67   32   66 1   
    68   32   67 1   
    69   33   34 1   
    70   33   68 1   
    71   33   69 1   
    72   34   62 1   
    73   34   63 1   
@<TRIPOS>SUBSTRUCTURE
     1 9S3         1 TEMP              0 ****  ****    0 ROOT
