@<TRIPOS>MOLECULE
9S3
   69    73     1     0     0
SMALL
bcc


@<TRIPOS>ATOM
      1 O           0.1400   -1.1680   -0.0180 o         1 9S3     -0.558100
      2 C17         1.1360   -0.4300    0.0620 c         1 9S3      0.666100
      3 C18         1.5250    0.1700    1.3900 c3        1 9S3     -0.167100
      4 N2          1.8710   -0.0490   -1.0940 n         1 9S3     -0.392000
      5 C2          3.3080   -0.2970   -1.1760 c3        1 9S3      0.107700
      6 C1          3.9660   -0.8040    0.1040 c3        1 9S3     -0.111100
      7 C16         1.1810    0.0610   -2.3260 ca        1 9S3      0.087600
      8 C11         1.8050   -0.1870   -3.5730 ca        1 9S3     -0.162300
      9 C4          3.2290   -0.6900   -3.6550 c3        1 9S3      0.245800
     10 N1          3.4720   -1.6710   -4.7070 nh        1 9S3     -0.714600
     11 C5          3.9180   -1.2120   -5.9650 ca        1 9S3      0.127600
     12 C10         3.3420   -1.7180   -7.1550 ca        1 9S3     -0.176000
     13 C9          3.8540   -1.3580   -8.3960 ca        1 9S3     -0.101500
     14 C8          4.9330   -0.4810   -8.4920 ca        1 9S3     -0.161000
     15 C7          5.5050    0.0300   -7.3280 ca        1 9S3     -0.101500
     16 C6          5.0140   -0.3270   -6.0770 ca        1 9S3     -0.176000
     17 C3          3.6570   -1.2800   -2.3030 c3        1 9S3     -0.100400
     18 C15        -0.1580    0.5250   -2.3280 ca        1 9S3     -0.152000
     19 C14        -0.8320    0.7600   -3.5150 ca        1 9S3     -0.090000
     20 C13        -0.2030    0.5510   -4.7500 cp        1 9S3     -0.062000
     21 C12         1.1120    0.0790   -4.7570 ca        1 9S3     -0.097000
     22 C19        -0.9080    0.8200   -6.0000 cp        1 9S3     -0.030000
     23 C30        -1.7540    1.9320   -6.1140 ca        1 9S3     -0.123500
     24 C29        -2.4300    2.1880   -7.3050 ca        1 9S3     -0.118000
     25 C22        -2.2710    1.3390   -8.4050 ca        1 9S3     -0.085300
     26 C21        -1.4260    0.2300   -8.2960 ca        1 9S3     -0.118000
     27 C20        -0.7510   -0.0290   -7.1060 ca        1 9S3     -0.123500
     28 C23        -3.0360    1.5710   -9.6740 c3        1 9S3      0.215100
     29 N3         -2.9700    2.9400  -10.1720 n3        1 9S3     -0.728600
     30 C28        -3.9140    3.1550  -11.2620 c3        1 9S3      0.168300
     31 C27        -3.8800    4.5790  -11.8140 c3        1 9S3     -0.076900
     32 C26        -2.4740    4.9810  -12.2040 c3        1 9S3     -0.078400
     33 C25        -1.5250    4.7740  -11.0440 c3        1 9S3     -0.076900
     34 C24        -1.6120    3.3450  -10.5130 c3        1 9S3      0.168300
     35 H181        2.1620    1.0790    1.2810 hc        1 9S3      0.069367
     36 H182        2.0640   -0.5950    2.0000 hc        1 9S3      0.069367
     37 H183        0.5830    0.4500    1.9270 hc        1 9S3      0.069367
     38 H2          3.7740    0.7060   -1.4300 h1        1 9S3      0.058700
     39 H11C        5.0220   -1.0900   -0.1240 hc        1 9S3      0.048033
     40 H12C        3.9910   -0.0080    0.8860 hc        1 9S3      0.048033
     41 H13C        3.4390   -1.7010    0.5080 hc        1 9S3      0.048033
     42 H31C        4.7650   -1.4500   -2.3090 hc        1 9S3      0.064200
     43 H32C        3.1610   -2.2670   -2.1220 hc        1 9S3      0.064200
     44 H15        -0.6840    0.6910   -1.3740 ha        1 9S3      0.145000
     45 H4          3.8800    0.2180   -3.8520 h1        1 9S3      0.068700
     46 H12         1.6140   -0.0730   -5.7280 ha        1 9S3      0.143000
     47 H1          2.7070   -2.3130   -4.7880 hn        1 9S3      0.391800
     48 H10         2.4860   -2.4090   -7.1050 ha        1 9S3      0.132000
     49 H6          5.4990    0.0770   -5.1750 ha        1 9S3      0.132000
     50 H9          3.3970   -1.7680   -9.3100 ha        1 9S3      0.130000
     51 H8          5.3300   -0.1960   -9.4760 ha        1 9S3      0.132000
     52 H7          6.3600    0.7200   -7.3960 ha        1 9S3      0.130000
     53 H14        -1.8750    1.1120   -3.4860 ha        1 9S3      0.139000
     54 H30        -1.8800    2.6110   -5.2580 ha        1 9S3      0.133000
     55 H20        -0.0940   -0.9080   -7.0300 ha        1 9S3      0.133000
     56 H29        -3.0890    3.0670   -7.3850 ha        1 9S3      0.139000
     57 H21        -1.2920   -0.4470   -9.1540 ha        1 9S3      0.139000
     58 H231       -2.6830    0.8320  -10.4560 h1        1 9S3      0.037700
     59 H232       -4.1220    1.3420   -9.4630 h1        1 9S3      0.037700
     60 H281       -3.7300    2.4370  -12.1150 h1        1 9S3      0.031200
     61 H282       -4.9470    2.9490  -10.8610 h1        1 9S3      0.031200
     62 H241       -1.1570    2.6510  -11.2820 h1        1 9S3      0.031200
     63 H242       -0.9950    3.2640   -9.5730 h1        1 9S3      0.031200
     64 H271       -4.5570    4.6280  -12.7040 hc        1 9S3      0.046450
     65 H272       -4.2740    5.2920  -11.0430 hc        1 9S3      0.046450
     66 H261       -2.4600    6.0560  -12.5200 hc        1 9S3      0.039200
     67 H262       -2.1370    4.3680  -13.0810 hc        1 9S3      0.039200
     68 H251       -0.4700    4.9660  -11.3680 hc        1 9S3      0.046450
     69 H252       -1.7680    5.4980  -10.2230 hc        1 9S3      0.046450
@<TRIPOS>BOND
     1    1    2 2   
     2    2    3 1   
     3    2    4 1   
     4    3   35 1   
     5    3   36 1   
     6    3   37 1   
     7    4    5 1   
     8    4    7 1   
     9    5    6 1   
    10    5   17 1   
    11    5   38 1   
    12    6   39 1   
    13    6   40 1   
    14    6   41 1   
    15    7    8 ar  
    16    7   18 ar  
    17    8    9 1   
    18    8   21 ar  
    19    9   10 1   
    20    9   17 1   
    21    9   45 1   
    22   10   11 1   
    23   10   47 1   
    24   11   12 ar  
    25   11   16 ar  
    26   12   13 ar  
    27   12   48 1   
    28   13   14 ar  
    29   13   50 1   
    30   14   15 ar  
    31   14   51 1   
    32   15   16 ar  
    33   15   52 1   
    34   16   49 1   
    35   17   42 1   
    36   17   43 1   
    37   18   19 ar  
    38   18   44 1   
    39   19   20 ar  
    40   19   53 1   
    41   20   21 ar  
    42   20   22 1   
    43   21   46 1   
    44   22   23 ar  
    45   22   27 ar  
    46   23   24 ar  
    47   23   54 1   
    48   24   25 ar  
    49   24   56 1   
    50   25   26 ar  
    51   25   28 1   
    52   26   27 ar  
    53   26   57 1   
    54   27   55 1   
    55   28   29 1   
    56   28   58 1   
    57   28   59 1   
    58   29   30 1   
    59   29   34 1   
    60   30   31 1   
    61   30   60 1   
    62   30   61 1   
    63   31   32 1   
    64   31   64 1   
    65   31   65 1   
    66   32   33 1   
    67   32   66 1   
    68   32   67 1   
    69   33   34 1   
    70   33   68 1   
    71   33   69 1   
    72   34   62 1   
    73   34   63 1   
@<TRIPOS>SUBSTRUCTURE
     1 9S3         1 TEMP              0 ****  ****    0 ROOT
