@<TRIPOS>MOLECULE
9TA
   24    26     1     0     0
SMALL
bcc


@<TRIPOS>ATOM
      1 C1         -0.0020   -0.0330   -0.0010 ca        1 9TA     -0.087000
      2 C2          1.3850   -0.1810   -0.0080 ca        1 9TA     -0.117000
      3 C3          2.0920   -0.1800    1.1920 ca        1 9TA     -0.117000
      4 C4          1.4130   -0.0300    2.4020 ca        1 9TA     -0.087000
      5 C5         -2.8240    0.5800    4.8970 ca        1 9TA     -0.087000
      6 C6         -4.2120    0.7280    4.9040 ca        1 9TA     -0.117000
      7 C7         -4.9190    0.7270    3.7030 ca        1 9TA     -0.117000
      8 C8         -4.2390    0.5780    2.4940 ca        1 9TA     -0.087000
      9 C9         -2.1610    0.2730    1.1780 c         1 9TA      0.585300
     10 O9         -2.7900    0.2730    0.1100 o         1 9TA     -0.525100
     11 C10        -0.6650    0.2760    3.7180 c         1 9TA      0.585300
     12 O10        -0.0360    0.2770    4.7860 o         1 9TA     -0.525100
     13 C11        -0.6910    0.1180    1.2080 ca        1 9TA     -0.128600
     14 C12         0.0220    0.1190    2.4180 ca        1 9TA     -0.128600
     15 C13        -2.8480    0.4290    2.4780 ca        1 9TA     -0.128600
     16 C14        -2.1350    0.4300    3.6880 ca        1 9TA     -0.128600
     17 H1         -0.5710   -0.0320   -0.9460 ha        1 9TA      0.160000
     18 H2          1.9180   -0.2990   -0.9640 ha        1 9TA      0.142000
     19 H3          3.1870   -0.2970    1.1900 ha        1 9TA      0.142000
     20 H4          1.9630   -0.0280    3.3580 ha        1 9TA      0.160000
     21 H5         -2.2550    0.5800    5.8410 ha        1 9TA      0.160000
     22 H6         -4.7440    0.8460    5.8600 ha        1 9TA      0.142000
     23 H7         -6.0130    0.8440    3.7050 ha        1 9TA      0.142000
     24 H8         -4.7900    0.5760    1.5380 ha        1 9TA      0.160000
@<TRIPOS>BOND
     1    1    2 ar  
     2    1   13 ar  
     3    1   17 1   
     4    2    3 ar  
     5    2   18 1   
     6    3    4 ar  
     7    3   19 1   
     8    4   14 ar  
     9    4   20 1   
    10    5    6 ar  
    11    5   16 ar  
    12    5   21 1   
    13    6    7 ar  
    14    6   22 1   
    15    7    8 ar  
    16    7   23 1   
    17    8   15 ar  
    18    8   24 1   
    19    9   10 2   
    20    9   13 1   
    21    9   15 1   
    22   11   12 2   
    23   11   14 1   
    24   11   16 1   
    25   13   14 ar  
    26   15   16 ar  
@<TRIPOS>SUBSTRUCTURE
     1 9TA         1 TEMP              0 ****  ****    0 ROOT
