@<TRIPOS>MOLECULE
9TA
   24    26     1     0     0
SMALL
bcc


@<TRIPOS>ATOM
      1 C1         -0.0000   -0.0270   -0.0010 ca        1 9TA     -0.087000
      2 C2          1.3870   -0.1730   -0.0080 ca        1 9TA     -0.117000
      3 C3          2.0940   -0.1720    1.1930 ca        1 9TA     -0.117000
      4 C4          1.4140   -0.0260    2.4020 ca        1 9TA     -0.087000
      5 C5         -2.8260    0.5750    4.8970 ca        1 9TA     -0.087000
      6 C6         -4.2130    0.7210    4.9040 ca        1 9TA     -0.117000
      7 C7         -4.9200    0.7200    3.7030 ca        1 9TA     -0.117000
      8 C8         -4.2400    0.5740    2.4930 ca        1 9TA     -0.087000
      9 C9         -2.1600    0.2730    1.1780 c         1 9TA      0.585300
     10 O9         -2.7890    0.2730    0.1090 o         1 9TA     -0.525100
     11 C10        -0.6660    0.2750    3.7180 c         1 9TA      0.585300
     12 O10        -0.0370    0.2750    4.7860 o         1 9TA     -0.525100
     13 C11        -0.6900    0.1210    1.2080 ca        1 9TA     -0.128600
     14 C12         0.0220    0.1210    2.4180 ca        1 9TA     -0.128600
     15 C13        -2.8480    0.4260    2.4770 ca        1 9TA     -0.128600
     16 C14        -2.1360    0.4270    3.6880 ca        1 9TA     -0.128600
     17 H1         -0.5690   -0.0260   -0.9460 ha        1 9TA      0.160000
     18 H2          1.9200   -0.2880   -0.9640 ha        1 9TA      0.142000
     19 H3          3.1880   -0.2870    1.1910 ha        1 9TA      0.142000
     20 H4          1.9640   -0.0240    3.3590 ha        1 9TA      0.160000
     21 H5         -2.2570    0.5740    5.8420 ha        1 9TA      0.160000
     22 H6         -4.7460    0.8370    5.8590 ha        1 9TA      0.142000
     23 H7         -6.0140    0.8350    3.7040 ha        1 9TA      0.142000
     24 H8         -4.7900    0.5720    1.5370 ha        1 9TA      0.160000
@<TRIPOS>BOND
     1    1    2 ar  
     2    1   13 ar  
     3    1   17 1   
     4    2    3 ar  
     5    2   18 1   
     6    3    4 ar  
     7    3   19 1   
     8    4   14 ar  
     9    4   20 1   
    10    5    6 ar  
    11    5   16 ar  
    12    5   21 1   
    13    6    7 ar  
    14    6   22 1   
    15    7    8 ar  
    16    7   23 1   
    17    8   15 ar  
    18    8   24 1   
    19    9   10 2   
    20    9   13 1   
    21    9   15 1   
    22   11   12 2   
    23   11   14 1   
    24   11   16 1   
    25   13   14 ar  
    26   15   16 ar  
@<TRIPOS>SUBSTRUCTURE
     1 9TA         1 TEMP              0 ****  ****    0 ROOT
