@<TRIPOS>MOLECULE
9TA
   24    19     1     0     0
SMALL
bcc


@<TRIPOS>ATOM
      1 C1          1.5060    0.0080   -2.5070 c1        1 9TA     -0.049500
      2 C2          2.8950    0.0080   -2.5070 c1        1 9TA     -0.049500
      3 C3          3.5910    0.0080   -1.3020 c1        1 9TA     -0.049500
      4 C4          2.8970    0.0080   -0.0980 c1        1 9TA     -0.049500
      5 C5         -1.5060    0.0080    2.4460 c1        1 9TA     -0.029500
      6 C6         -2.8950    0.0080    2.4460 c1        1 9TA     -0.049500
      7 C7         -3.5910    0.0080    1.2410 c1        1 9TA     -0.049500
      8 C8         -2.8980    0.0080    0.0370 c1        1 9TA     -0.029500
      9 C9         -0.7290    0.0080   -1.2910 c1        1 9TA      0.538500
     10 O9         -1.3360    0.0110   -2.3430 o         1 9TA     -0.519500
     11 C10         0.7280    0.0080    1.2310 c1        1 9TA      0.538500
     12 O10         1.3380    0.0290    2.2820 o         1 9TA     -0.519500
     13 C11         0.8040    0.0080   -1.2920 c1        1 9TA     -0.108000
     14 C12         1.4950    0.0080   -0.0970 c1        1 9TA     -0.108000
     15 C13        -1.4950    0.0080    0.0360 cg        1 9TA     -0.108000
     16 C14        -0.8050    0.0080    1.2310 cg        1 9TA     -0.108000
     17 H1          0.8640    0.2970   -3.1830 ha        1 9TA      0.090500
     18 H2          3.3850    0.1960   -3.3300 ha        1 9TA      0.090500
     19 H3          4.4460   -0.3400   -0.9840 ha        1 9TA      0.090500
     20 H4          3.4510   -0.0010    0.7060 ha        1 9TA      0.090500
     21 H5         -1.0370    0.0220    3.3020 ha        1 9TA      0.102500
     22 H6         -3.1970   -0.2310    3.3430 ha        1 9TA      0.090500
     23 H7         -4.4480   -0.4540    1.3140 ha        1 9TA      0.090500
     24 H8         -3.4610    0.3540   -0.6810 ha        1 9TA      0.102500
@<TRIPOS>BOND
     1    1    2 3   
     2    1   17 1   
     3    2   18 1   
     4    3    4 3   
     5    3   19 1   
     6    4   20 1   
     7    5   16 3   
     8    5   21 1   
     9    6    7 3   
    10    6   22 1   
    11    7   23 1   
    12    8   15 3   
    13    8   24 1   
    14    9   10 2   
    15    9   13 2   
    16   11   12 2   
    17   11   14 2   
    18   13   14 2   
    19   15   16 1   
@<TRIPOS>SUBSTRUCTURE
     1 9TA         1 TEMP              0 ****  ****    0 ROOT
