@<TRIPOS>MOLECULE
9TA
   24    26     1     0     0
SMALL
bcc


@<TRIPOS>ATOM
      1 C1         -2.4770    1.3950   -0.0870 ca        1 9TA     -0.087000
      2 C2         -3.6860    0.6980   -0.0880 ca        1 9TA     -0.117000
      3 C3         -3.6860   -0.6950   -0.0880 ca        1 9TA     -0.117000
      4 C4         -2.4780   -1.3930   -0.0880 ca        1 9TA     -0.087000
      5 C5          2.4770   -1.3950   -0.0850 ca        1 9TA     -0.087000
      6 C6          3.6860   -0.6980   -0.0840 ca        1 9TA     -0.117000
      7 C7          3.6860    0.6960   -0.0840 ca        1 9TA     -0.117000
      8 C8          2.4780    1.3940   -0.0850 ca        1 9TA     -0.087000
      9 C9          0.0010    1.4740   -0.0860 c         1 9TA      0.585300
     10 O9          0.0010    2.7130   -0.0860 o         1 9TA     -0.525100
     11 C10        -0.0000   -1.4730   -0.0870 c         1 9TA      0.585300
     12 O10        -0.0010   -2.7130   -0.0870 o         1 9TA     -0.525100
     13 C11        -1.2610    0.7030   -0.0870 ca        1 9TA     -0.128600
     14 C12        -1.2610   -0.7020   -0.0870 ca        1 9TA     -0.128600
     15 C13         1.2610    0.7020   -0.0860 ca        1 9TA     -0.128600
     16 C14         1.2610   -0.7020   -0.0860 ca        1 9TA     -0.128600
     17 H1         -2.4660    2.4980   -0.0870 ha        1 9TA      0.160000
     18 H2         -4.6370    1.2520   -0.0880 ha        1 9TA      0.142000
     19 H3         -4.6370   -1.2490   -0.0890 ha        1 9TA      0.142000
     20 H4         -2.4670   -2.4960   -0.0880 ha        1 9TA      0.160000
     21 H5          2.4660   -2.4980   -0.0860 ha        1 9TA      0.160000
     22 H6          4.6370   -1.2510   -0.0840 ha        1 9TA      0.142000
     23 H7          4.6380    1.2490   -0.0830 ha        1 9TA      0.142000
     24 H8          2.4670    2.4970   -0.0840 ha        1 9TA      0.160000
@<TRIPOS>BOND
     1    1    2 ar  
     2    1   13 ar  
     3    1   17 1   
     4    2    3 ar  
     5    2   18 1   
     6    3    4 ar  
     7    3   19 1   
     8    4   14 ar  
     9    4   20 1   
    10    5    6 ar  
    11    5   16 ar  
    12    5   21 1   
    13    6    7 ar  
    14    6   22 1   
    15    7    8 ar  
    16    7   23 1   
    17    8   15 ar  
    18    8   24 1   
    19    9   10 2   
    20    9   13 1   
    21    9   15 1   
    22   11   12 2   
    23   11   14 1   
    24   11   16 1   
    25   13   14 ar  
    26   15   16 ar  
@<TRIPOS>SUBSTRUCTURE
     1 9TA         1 TEMP              0 ****  ****    0 ROOT
