@<TRIPOS>MOLECULE
9UN
   56    59     1     0     0
SMALL
bcc


@<TRIPOS>ATOM
      1 C1         -0.2420    0.5040   -0.1320 ca        1 9UN     -0.338000
      2 C2          1.1490    0.6520   -0.0980 ca        1 9UN      0.247100
      3 C3          1.8960    0.4230    1.0840 ca        1 9UN     -0.279500
      4 C4          1.1700    0.0260    2.2400 ca        1 9UN      0.232100
      5 C5         -0.2120   -0.1300    2.2320 ca        1 9UN     -0.263000
      6 C6         -0.9120    0.1130    1.0360 ca        1 9UN      0.250100
      7 O7         -2.2640   -0.0570    1.0890 oh        1 9UN     -0.464100
      8 O8          1.8540    1.0320   -1.2090 oh        1 9UN     -0.497100
      9 O9          1.9560   -0.2330    3.3490 os        1 9UN     -0.240200
     10 C10         1.3110   -0.3480    4.5830 ca        1 9UN      0.114100
     11 C11         1.6080   -1.4950    5.3320 ca        1 9UN     -0.148000
     12 C12         1.1170   -1.6000    6.6300 ca        1 9UN     -0.050500
     13 C13         0.3310   -0.5620    7.1570 ca        1 9UN     -0.177200
     14 C14         0.0300    0.5810    6.3980 ca        1 9UN     -0.050500
     15 C15         0.5240    0.6880    5.1010 ca        1 9UN     -0.148000
     16 N16        -0.1930   -0.6740    8.5480 no        1 9UN      0.314200
     17 O17         0.0830   -1.6500    9.1890 o         1 9UN     -0.193000
     18 O18        -0.8700    0.2170    8.9810 o         1 9UN     -0.193000
     19 C19         3.3140    0.5820    1.0950 cc        1 9UN      0.404200
     20 O20         4.0120    0.2850    2.3070 os        1 9UN     -0.034100
     21 N21         5.2830    0.4790    2.1600 nc        1 9UN     -0.343300
     22 C22         5.5230    0.9040    0.8850 cd        1 9UN      0.195800
     23 C23         4.2690    0.9840    0.1620 cd        1 9UN     -0.300600
     24 C24         6.8260    1.2350    0.3240 c         1 9UN      0.497600
     25 O25         7.0690    1.6330   -0.8050 o         1 9UN     -0.402100
     26 N26         7.9860    1.0580    1.2810 ny        1 9UN     -0.673800
     27 C27         9.3420    1.3450    0.6840 c3        1 9UN      0.124500
     28 C28        10.3630    1.6380    1.7890 c3        1 9UN     -0.102900
     29 C29        11.7290    1.9120    1.1540 c3        1 9UN      0.171800
     30 N30        12.1740    0.8190    0.3050 n3        1 9UN     -0.740600
     31 C31        11.2150    0.5120   -0.7450 c3        1 9UN      0.171800
     32 C32         9.8270    0.1850   -0.1900 c3        1 9UN     -0.102900
     33 C33        13.5200    1.0010   -0.1930 c3        1 9UN      0.155100
     34 H1         -0.7990    0.6900   -1.0610 ha        1 9UN      0.159000
     35 H5         -0.7640   -0.4440    3.1310 ha        1 9UN      0.185000
     36 HO7        -2.6410    0.1250    0.2130 ho        1 9UN      0.442000
     37 HO8         1.2330    1.1500   -1.9470 ho        1 9UN      0.447000
     38 H11         2.2290   -2.2930    4.8990 ha        1 9UN      0.165000
     39 H12         1.3410   -2.4940    7.2400 ha        1 9UN      0.184000
     40 H14        -0.5910    1.3890    6.8270 ha        1 9UN      0.184000
     41 H15         0.3000    1.5750    4.4900 ha        1 9UN      0.165000
     42 H23         4.1210    1.2890   -0.8730 ha        1 9UN      0.218000
     43 HN26        7.8370    1.6830    2.0830 hn        1 9UN      0.466300
     44 H27         9.2200    2.2670    0.0360 hx        1 9UN      0.117700
     45 H28        10.0620    2.5420    2.3790 hc        1 9UN      0.071700
     46 H28A       10.4440    0.7650    2.4890 hc        1 9UN      0.071700
     47 H29        11.6720    2.8920    0.5930 h1        1 9UN      0.057450
     48 H29A       12.4810    2.0340    1.9850 h1        1 9UN      0.057450
     49 H31        11.5900   -0.3930   -1.3020 h1        1 9UN      0.057450
     50 H31A       11.1140    1.3570   -1.4880 h1        1 9UN      0.057450
     51 H32         9.1280    0.0310   -1.0530 hc        1 9UN      0.071700
     52 H32A        9.8760   -0.7630    0.4070 hc        1 9UN      0.071700
     53 H33        14.2110    1.1350    0.6810 h1        1 9UN      0.049033
     54 H33A       13.8230    0.0770   -0.7530 h1        1 9UN      0.049033
     55 H33B       13.6220    1.8890   -0.8750 h1        1 9UN      0.049033
     56 H262        7.9740    0.0900    1.6280 hn        1 9UN      0.466300
@<TRIPOS>BOND
     1    1    2 ar  
     2    1    6 ar  
     3    1   34 1   
     4    2    3 ar  
     5    2    8 1   
     6    3    4 ar  
     7    3   19 1   
     8    4    5 ar  
     9    4    9 1   
    10    5    6 ar  
    11    5   35 1   
    12    6    7 1   
    13    7   36 1   
    14    8   37 1   
    15    9   10 1   
    16   10   11 ar  
    17   10   15 ar  
    18   11   12 ar  
    19   11   38 1   
    20   12   13 ar  
    21   12   39 1   
    22   13   14 ar  
    23   13   16 1   
    24   14   15 ar  
    25   14   40 1   
    26   15   41 1   
    27   16   17 1   
    28   16   18 1   
    29   19   20 1   
    30   19   23 2   
    31   20   21 1   
    32   21   22 2   
    33   22   23 1   
    34   22   24 1   
    35   23   42 1   
    36   24   25 2   
    37   24   26 1   
    38   26   27 1   
    39   26   43 1   
    40   26   56 1   
    41   27   28 1   
    42   27   32 1   
    43   27   44 1   
    44   28   29 1   
    45   28   45 1   
    46   28   46 1   
    47   29   30 1   
    48   29   47 1   
    49   29   48 1   
    50   30   31 1   
    51   30   33 1   
    52   31   32 1   
    53   31   49 1   
    54   31   50 1   
    55   32   51 1   
    56   32   52 1   
    57   33   53 1   
    58   33   54 1   
    59   33   55 1   
@<TRIPOS>SUBSTRUCTURE
     1 9UN         1 TEMP              0 ****  ****    0 ROOT
