@<TRIPOS>MOLECULE
9UN
   55    58     1     0     0
SMALL
bcc


@<TRIPOS>ATOM
      1 C1          2.7220   -4.3010    1.0010 ca        1 9UN     -0.211000
      2 C2          1.4560   -3.7240    0.8230 ca        1 9UN      0.216100
      3 C3          1.2990   -2.4380    0.2530 ca        1 9UN     -0.273500
      4 C4          2.4700   -1.7660   -0.1630 ca        1 9UN      0.207100
      5 C5          3.7410   -2.3160   -0.0000 ca        1 9UN     -0.302000
      6 C6          3.8520   -3.5870    0.5870 ca        1 9UN      0.203100
      7 O7          5.0630   -4.1970    0.7840 oh        1 9UN     -0.480100
      8 O8          0.4060   -4.4900    1.2520 oh        1 9UN     -0.481100
      9 O9          2.2700   -0.5620   -0.8300 os        1 9UN     -0.226200
     10 C10         3.1870    0.4550   -0.6070 ca        1 9UN      0.149100
     11 C11         3.3200    1.3740   -1.6630 ca        1 9UN     -0.172000
     12 C12         4.1440    2.4790   -1.5000 ca        1 9UN     -0.042500
     13 C13         4.8360    2.6570   -0.2880 ca        1 9UN     -0.202200
     14 C14         4.6980    1.7380    0.7650 ca        1 9UN     -0.042500
     15 C15         3.8700    0.6320    0.6040 ca        1 9UN     -0.172000
     16 N16         5.7240    3.8340   -0.1190 no        1 9UN      0.317200
     17 O17         5.8260    4.6210   -1.0220 o         1 9UN     -0.208000
     18 O18         6.3210    3.9690    0.9160 o         1 9UN     -0.208000
     19 C19         0.0040   -1.8380    0.1000 cc        1 9UN      0.316200
     20 O20        -0.2570   -1.1380   -1.1140 os        1 9UN     -0.082100
     21 N21        -1.4680   -0.6420   -1.0970 nc        1 9UN     -0.333300
     22 C22        -2.0660   -0.9680    0.0700 cd        1 9UN      0.266800
     23 C23        -1.1350   -1.7460    0.8810 cd        1 9UN     -0.322600
     24 C24        -3.4440   -0.6290    0.5190 c         1 9UN      0.596600
     25 O25        -3.8840   -1.1240    1.5780 o         1 9UN     -0.601100
     26 N26        -4.1780    0.2310   -0.2600 n         1 9UN     -0.551900
     27 C27        -5.5290    0.6250    0.0790 c3        1 9UN      0.096700
     28 C28        -5.6590    2.1450    0.2680 c3        1 9UN     -0.092900
     29 C29        -7.0900    2.5030    0.6580 c3        1 9UN      0.170300
     30 N30        -8.0840    2.0200   -0.2900 n3        1 9UN     -0.734600
     31 C31        -7.9560    0.5940   -0.5610 c3        1 9UN      0.170300
     32 C32        -6.5490    0.1840   -0.9840 c3        1 9UN     -0.092900
     33 C33        -9.4300    2.3900    0.0860 c3        1 9UN      0.158100
     34 H1          2.8190   -5.2980    1.4540 ha        1 9UN      0.181000
     35 H5          4.6320   -1.7680   -0.3360 ha        1 9UN      0.157000
     36 HO7         5.7570   -3.6190    0.4310 ho        1 9UN      0.430000
     37 HO8        -0.4270   -4.0690    0.9830 ho        1 9UN      0.439000
     38 H11         2.7610    1.2150   -2.5980 ha        1 9UN      0.168000
     39 H12         4.2580    3.2130   -2.3180 ha        1 9UN      0.176500
     40 H14         5.2380    1.8940    1.7150 ha        1 9UN      0.176500
     41 H15         3.7460   -0.0930    1.4230 ha        1 9UN      0.168000
     42 H23        -1.3400   -2.1220    1.8810 ha        1 9UN      0.199000
     43 HN26       -3.7990    0.5970   -1.1000 hn        1 9UN      0.326500
     44 H27        -5.7990    0.1220    1.0580 h1        1 9UN      0.089700
     45 H28        -4.9740    2.4960    1.0820 hc        1 9UN      0.054200
     46 H28A       -5.3760    2.6770   -0.6770 hc        1 9UN      0.054200
     47 H29        -7.2860    2.1100    1.7000 h1        1 9UN      0.034700
     48 H29A       -7.1800    3.6260    0.6970 h1        1 9UN      0.034700
     49 H31        -8.2550   -0.0260    0.3360 h1        1 9UN      0.034700
     50 H31A       -8.6680    0.3450   -1.3980 h1        1 9UN      0.034700
     51 H32        -6.2970    0.6450   -1.9740 hc        1 9UN      0.054200
     52 H32A       -6.5280   -0.9290   -1.1040 hc        1 9UN      0.054200
     53 H33        -9.4820    3.5050    0.1900 h1        1 9UN      0.032700
     54 H33A      -10.1330    2.0700   -0.7270 h1        1 9UN      0.032700
     55 H33B       -9.7660    1.9250    1.0540 h1        1 9UN      0.032700
@<TRIPOS>BOND
     1    1    2 ar  
     2    1    6 ar  
     3    1   34 1   
     4    2    3 ar  
     5    2    8 1   
     6    3    4 ar  
     7    3   19 1   
     8    4    5 ar  
     9    4    9 1   
    10    5    6 ar  
    11    5   35 1   
    12    6    7 1   
    13    7   36 1   
    14    8   37 1   
    15    9   10 1   
    16   10   11 ar  
    17   10   15 ar  
    18   11   12 ar  
    19   11   38 1   
    20   12   13 ar  
    21   12   39 1   
    22   13   14 ar  
    23   13   16 1   
    24   14   15 ar  
    25   14   40 1   
    26   15   41 1   
    27   16   17 1   
    28   16   18 1   
    29   19   20 1   
    30   19   23 2   
    31   20   21 1   
    32   21   22 2   
    33   22   23 1   
    34   22   24 1   
    35   23   42 1   
    36   24   25 2   
    37   24   26 1   
    38   26   27 1   
    39   26   43 1   
    40   27   28 1   
    41   27   32 1   
    42   27   44 1   
    43   28   29 1   
    44   28   45 1   
    45   28   46 1   
    46   29   30 1   
    47   29   47 1   
    48   29   48 1   
    49   30   31 1   
    50   30   33 1   
    51   31   32 1   
    52   31   49 1   
    53   31   50 1   
    54   32   51 1   
    55   32   52 1   
    56   33   53 1   
    57   33   54 1   
    58   33   55 1   
@<TRIPOS>SUBSTRUCTURE
     1 9UN         1 TEMP              0 ****  ****    0 ROOT
