@<TRIPOS>MOLECULE
9UN
   55    58     1     0     0
SMALL
bcc


@<TRIPOS>ATOM
      1 C1         -0.3620    1.1810    0.0070 ca        1 9UN     -0.323000
      2 C2          1.0390    1.1830    0.0170 ca        1 9UN      0.213100
      3 C3          1.7800    0.6020    1.0740 ca        1 9UN     -0.205500
      4 C4          1.0380    0.0030    2.1190 ca        1 9UN      0.192100
      5 C5         -0.3560   -0.0160    2.1360 ca        1 9UN     -0.244000
      6 C6         -1.0480    0.5800    1.0690 ca        1 9UN      0.206100
      7 O7         -2.4160    0.5360    1.1340 oh        1 9UN     -0.481100
      8 O8          1.7560    1.7590   -1.0010 oh        1 9UN     -0.482100
      9 O9          1.7870   -0.6610    3.0830 os        1 9UN     -0.219200
     10 C10         1.3270   -0.6280    4.3920 ca        1 9UN      0.153100
     11 C11         1.7240   -1.7220    5.1830 ca        1 9UN     -0.169500
     12 C12         1.3940   -1.7380    6.5320 ca        1 9UN     -0.042500
     13 C13         0.6660   -0.6670    7.0820 ca        1 9UN     -0.202200
     14 C14         0.2740    0.4240    6.2880 ca        1 9UN     -0.042500
     15 C15         0.6080    0.4430    4.9380 ca        1 9UN     -0.169500
     16 N16         0.3070   -0.6890    8.5220 no        1 9UN      0.317200
     17 O17         0.6490   -1.6260    9.1930 o         1 9UN     -0.209000
     18 O18        -0.3180    0.2300    8.9800 o         1 9UN     -0.209000
     19 C19         3.2130    0.6210    1.0640 cc        1 9UN      0.319200
     20 O20         3.8960   -0.0450    2.1260 os        1 9UN     -0.089100
     21 N21         5.1900    0.0700    1.9690 nc        1 9UN     -0.341300
     22 C22         5.4430    0.7810    0.8480 cd        1 9UN      0.260800
     23 C23         4.1780    1.1590    0.2280 cd        1 9UN     -0.284600
     24 C24         6.7680    1.1530    0.2840 c         1 9UN      0.598600
     25 O25         6.8280    1.8310   -0.7620 o         1 9UN     -0.602100
     26 N26         7.8910    0.7260    0.9520 n         1 9UN     -0.555900
     27 C27         9.2290    1.0300    0.4950 c3        1 9UN      0.097700
     28 C28        10.0250    1.8470    1.5260 c3        1 9UN     -0.093400
     29 C29        11.4130    2.1710    0.9790 c3        1 9UN      0.170800
     30 N30        12.1640    0.9890    0.5750 n3        1 9UN     -0.734600
     31 C31        11.4210    0.1390   -0.3460 c3        1 9UN      0.170800
     32 C32        10.0340   -0.2380    0.1650 c3        1 9UN     -0.093400
     33 C33        13.4800    1.3180    0.0790 c3        1 9UN      0.158100
     34 H1         -0.9110    1.6430   -0.8240 ha        1 9UN      0.147000
     35 H5         -0.9120   -0.4940    2.9550 ha        1 9UN      0.174000
     36 HO7        -2.7730    0.9590    0.3390 ho        1 9UN      0.429000
     37 HO8         1.1310    2.1060   -1.6570 ho        1 9UN      0.432000
     38 H11         2.3010   -2.5420    4.7310 ha        1 9UN      0.167000
     39 H12         1.6990   -2.5870    7.1690 ha        1 9UN      0.175500
     40 H14        -0.2890    1.2630    6.7330 ha        1 9UN      0.175500
     41 H15         0.3120    1.2940    4.3060 ha        1 9UN      0.167000
     42 H23         4.0630    1.7350   -0.6870 ha        1 9UN      0.205000
     43 HN26        7.8090    0.1890    1.7820 hn        1 9UN      0.325500
     44 H27         9.1380    1.6470   -0.4520 h1        1 9UN      0.088700
     45 H28         9.5000    2.8120    1.7460 hc        1 9UN      0.053700
     46 H28A       10.1160    1.2750    2.4850 hc        1 9UN      0.053700
     47 H29        11.2990    2.9010    0.1240 h1        1 9UN      0.033700
     48 H29A       12.0050    2.6840    1.7880 h1        1 9UN      0.033700
     49 H31        12.0190   -0.8050   -0.4880 h1        1 9UN      0.033700
     50 H31A       11.3080    0.6270   -1.3600 h1        1 9UN      0.033700
     51 H32        10.1240   -0.8850    1.0760 hc        1 9UN      0.053700
     52 H32A        9.5150   -0.8310   -0.6310 hc        1 9UN      0.053700
     53 H33        14.0370    0.3670   -0.1270 h1        1 9UN      0.032700
     54 H33A       13.4630    1.9330   -0.8630 h1        1 9UN      0.032700
     55 H33B       14.0310    1.8930    0.8690 h1        1 9UN      0.032700
@<TRIPOS>BOND
     1    1    2 ar  
     2    1    6 ar  
     3    1   34 1   
     4    2    3 ar  
     5    2    8 1   
     6    3    4 ar  
     7    3   19 1   
     8    4    5 ar  
     9    4    9 1   
    10    5    6 ar  
    11    5   35 1   
    12    6    7 1   
    13    7   36 1   
    14    8   37 1   
    15    9   10 1   
    16   10   11 ar  
    17   10   15 ar  
    18   11   12 ar  
    19   11   38 1   
    20   12   13 ar  
    21   12   39 1   
    22   13   14 ar  
    23   13   16 1   
    24   14   15 ar  
    25   14   40 1   
    26   15   41 1   
    27   16   17 1   
    28   16   18 1   
    29   19   20 1   
    30   19   23 2   
    31   20   21 1   
    32   21   22 2   
    33   22   23 1   
    34   22   24 1   
    35   23   42 1   
    36   24   25 2   
    37   24   26 1   
    38   26   27 1   
    39   26   43 1   
    40   27   28 1   
    41   27   32 1   
    42   27   44 1   
    43   28   29 1   
    44   28   45 1   
    45   28   46 1   
    46   29   30 1   
    47   29   47 1   
    48   29   48 1   
    49   30   31 1   
    50   30   33 1   
    51   31   32 1   
    52   31   49 1   
    53   31   50 1   
    54   32   51 1   
    55   32   52 1   
    56   33   53 1   
    57   33   54 1   
    58   33   55 1   
@<TRIPOS>SUBSTRUCTURE
     1 9UN         1 TEMP              0 ****  ****    0 ROOT
