@<TRIPOS>MOLECULE
9UN
   55    51     1     0     0
SMALL
bcc


@<TRIPOS>ATOM
      1 C1         -5.0640   -1.6560   -1.4170 c1        1 9UN     -0.266000
      2 C2         -3.6760   -1.6050   -1.4230 c1        1 9UN      0.162000
      3 C3         -2.9990   -0.9920   -0.3750 c1        1 9UN     -0.096000
      4 C4         -3.7120   -0.4280    0.6810 c1        1 9UN      0.150000
      5 C5         -5.0970   -0.4790    0.6870 c1        1 9UN     -0.299000
      6 C6         -5.7770   -1.0930   -0.3630 c1        1 9UN      0.160000
      7 O7         -7.1740   -1.0190   -0.4270 oh        1 9UN     -0.237000
      8 O8         -2.9540   -2.1730   -2.4930 oh        1 9UN     -0.237000
      9 O9         -3.0110    0.2030    1.7670 os        1 9UN     -0.129000
     10 C10        -3.8900    0.3290    2.8990 c2        1 9UN      0.109000
     11 C11        -4.5900    1.5100    3.1050 c2        1 9UN     -0.151000
     12 C12        -5.3850    1.6600    4.2400 c1        1 9UN     -0.044000
     13 C13        -5.4780    0.6260    5.1670 c1        1 9UN     -0.158000
     14 C14        -4.7770   -0.5560    4.9600 c1        1 9UN     -0.040000
     15 C15        -3.9830   -0.7060    3.8250 c1        1 9UN     -0.195000
     16 N16        -6.3810    0.7370    6.2670 no        1 9UN      0.572000
     17 O17        -7.1360    1.6940    6.3440 o         1 9UN     -0.358500
     18 O18        -6.4020   -0.2320    7.2370 o         1 9UN     -0.358500
     19 C19        -1.4600   -0.9380   -0.3800 c2        1 9UN      0.016000
     20 O20        -0.6390   -1.5860    0.4790 os        1 9UN     -0.033000
     21 N21         0.6830   -1.3220    0.0990 n2        1 9UN     -0.007000
     22 C22         0.6530   -0.5180   -0.9830 c1        1 9UN     -0.157000
     23 C23        -0.6750   -0.2690   -1.2950 c1        1 9UN     -0.152000
     24 C24         1.8800    0.0750   -1.7040 c1        1 9UN      0.381000
     25 O25         1.7270    0.7890   -2.6740 o         1 9UN     -0.363000
     26 N26         3.2040   -0.2330   -1.2420 n3        1 9UN     -0.365000
     27 C27         4.3900    0.3250   -1.9540 c3        1 9UN      0.021000
     28 C28         5.1080    1.2450   -1.0410 c3        1 9UN     -0.171500
     29 C29         6.4320    1.7160   -1.6190 c3        1 9UN     -0.066000
     30 N30         7.2740    0.6030   -2.0750 n3        1 9UN     -0.260000
     31 C31         6.5690   -0.3110   -2.9810 c3        1 9UN     -0.066000
     32 C32         5.2430   -0.7910   -2.4080 c3        1 9UN     -0.171500
     33 C33         8.4460    1.1210   -2.7350 c3        1 9UN     -0.118000
     34 H1         -5.5440   -2.0900   -2.1600 ha        1 9UN      0.164000
     35 H5         -5.5970   -0.0830    1.4280 ha        1 9UN      0.158000
     36 HO7        -7.4130   -0.2430   -0.7850 ho        1 9UN      0.230000
     37 HO8        -3.3200   -2.9570   -2.7160 ho        1 9UN      0.234000
     38 H11        -4.5250    2.2370    2.4550 ha        1 9UN      0.171000
     39 H12        -5.8770    2.4910    4.3850 ha        1 9UN      0.177000
     40 H14        -4.8420   -1.2830    5.6110 ha        1 9UN      0.175000
     41 H15        -3.4920   -1.5350    3.6810 ha        1 9UN      0.163000
     42 H23        -0.9970    0.2820   -2.0330 DU        1 9UN      0.206000
     43 HN26        3.3210   -0.8040   -0.5420 hn        1 9UN      0.239000
     44 H27         4.0840    0.8270   -2.7350 h1        1 9UN      0.128000
     45 H28         4.5410    2.0270   -0.8680 hc        1 9UN      0.093000
     46 H28A        5.2770    0.7850   -0.1980 hc        1 9UN      0.093000
     47 H29         6.2530    2.3070   -2.3770 h1        1 9UN      0.073000
     48 H29A        6.9150    2.2170   -0.9340 h1        1 9UN      0.073000
     49 H31         6.3990    0.1500   -3.8240 h1        1 9UN      0.073000
     50 H31A        7.1400   -1.0890   -3.1550 h1        1 9UN      0.073000
     51 H32         5.4210   -1.3810   -1.6500 hc        1 9UN      0.093000
     52 H32A        4.7660   -1.2930   -3.0930 hc        1 9UN      0.093000
     53 H33         8.9590    1.6710   -2.1060 h1        1 9UN      0.072000
     54 H33A        8.1740    1.6710   -3.5040 h1        1 9UN      0.072000
     55 H33B        9.0060    0.3700   -3.0480 h1        1 9UN      0.072000
@<TRIPOS>BOND
     1    1    6 1   
     2    1   34 1   
     3    2    3 1   
     4    2    8 1   
     5    3   19 1   
     6    4    5 1   
     7    4    9 1   
     8    5   35 1   
     9    6    7 1   
    10    7   36 1   
    11    8   37 1   
    12    9   10 1   
    13   10   11 1   
    14   10   15 1   
    15   11   12 1   
    16   11   38 1   
    17   12   39 1   
    18   13   14 1   
    19   13   16 1   
    20   14   40 1   
    21   15   41 1   
    22   16   17 1   
    23   16   18 1   
    24   19   20 1   
    25   19   23 1   
    26   20   21 1   
    27   21   22 1   
    28   22   23 1   
    29   24   25 1   
    30   24   26 1   
    31   26   27 1   
    32   26   43 1   
    33   27   28 1   
    34   27   32 1   
    35   27   44 1   
    36   28   29 1   
    37   28   45 1   
    38   28   46 1   
    39   29   30 1   
    40   29   47 1   
    41   29   48 1   
    42   30   31 1   
    43   30   33 1   
    44   31   32 1   
    45   31   49 1   
    46   31   50 1   
    47   32   51 1   
    48   32   52 1   
    49   33   53 1   
    50   33   54 1   
    51   33   55 1   
@<TRIPOS>SUBSTRUCTURE
     1 9UN         1 TEMP              0 ****  ****    0 ROOT
