@<TRIPOS>MOLECULE
9UP
   33    34     1     0     0
SMALL
bcc


@<TRIPOS>ATOM
      1 CAA         0.5360   -0.6800    0.3430 c3        1 9UP      0.131700
      2 OAL         1.5030    0.2990    0.8160 os        1 9UP     -0.379900
      3 CAN         2.7950    0.0020    0.6130 c         1 9UP      0.625100
      4 OAD         3.2480   -0.9950    0.0660 o         1 9UP     -0.443000
      5 N1          3.6910    1.1000    1.1220 n4        1 9UP     -0.505200
      6 CAP         4.1990    0.8330    2.4740 ca        1 9UP     -0.063400
      7 CAR         5.2860   -0.0850    2.6770 ca        1 9UP     -0.015000
      8 CAJ         5.9020   -0.8350    1.6390 ca        1 9UP     -0.099000
      9 CAF         3.6150    1.5050    3.5410 ca        1 9UP     -0.032000
     10 CAE         4.1010    1.3120    4.8520 ca        1 9UP     -0.107000
     11 CAH         5.1490    0.4560    5.0840 ca        1 9UP     -0.038000
     12 CAQ         5.7540   -0.2570    4.0090 ca        1 9UP     -0.017000
     13 CAI         6.8200   -1.1620    4.2680 ca        1 9UP     -0.053000
     14 CAG         7.4000   -1.8790    3.2490 ca        1 9UP     -0.125000
     15 CAO         6.9330   -1.7120    1.9230 ca        1 9UP     -0.194900
     16 CAM         7.4980   -2.5470    0.8350 ce        1 9UP      0.568800
     17 N2          8.9870   -2.3890    0.6860 n4        1 9UP     -0.819600
     18 N3          6.9340   -3.3660    0.0350 n2        1 9UP     -0.680100
     19 H1          0.6870   -1.6390    0.8920 h1        1 9UP      0.098700
     20 H2         -0.4330   -0.1820    0.6110 h1        1 9UP      0.098700
     21 H3          0.6550   -0.8130   -0.7590 h1        1 9UP      0.098700
     22 H4          4.4840    1.1930    0.4730 hn        1 9UP      0.482300
     23 H5          5.5400   -0.7530    0.6010 ha        1 9UP      0.147000
     24 H6          2.7680    2.2030    3.4000 ha        1 9UP      0.178000
     25 H7          3.6230    1.8630    5.6820 ha        1 9UP      0.196000
     26 H8          5.5360    0.3040    6.1090 ha        1 9UP      0.188000
     27 H9          7.1670   -1.2890    5.3100 ha        1 9UP      0.186000
     28 H10         8.1960   -2.6070    3.4770 ha        1 9UP      0.158000
     29 H11         9.3680   -3.0260   -0.0310 hn        1 9UP      0.479133
     30 H12         9.1920   -1.4200    0.4180 hn        1 9UP      0.479133
     31 H13         5.9480   -3.5210    0.1010 hn        1 9UP      0.496400
     32 H121        3.1550    1.9840    1.1320 hn        1 9UP      0.482300
     33 H23         9.4310   -2.5930    1.5880 hn        1 9UP      0.479133
@<TRIPOS>BOND
     1    1    2 1   
     2    1   19 1   
     3    1   20 1   
     4    1   21 1   
     5    2    3 1   
     6    3    4 2   
     7    3    5 1   
     8    5    6 1   
     9    5   22 1   
    10    5   32 1   
    11    6    7 ar  
    12    6    9 ar  
    13    7    8 ar  
    14    7   12 ar  
    15    8   15 ar  
    16    8   23 1   
    17    9   10 ar  
    18    9   24 1   
    19   10   11 ar  
    20   10   25 1   
    21   11   12 ar  
    22   11   26 1   
    23   12   13 ar  
    24   13   14 ar  
    25   13   27 1   
    26   14   15 ar  
    27   14   28 1   
    28   15   16 1   
    29   16   17 1   
    30   16   18 2   
    31   17   29 1   
    32   17   30 1   
    33   17   33 1   
    34   18   31 1   
@<TRIPOS>SUBSTRUCTURE
     1 9UP         1 TEMP              0 ****  ****    0 ROOT
