@<TRIPOS>MOLECULE
9UP
   31    25     1     0     0
SMALL
bcc


@<TRIPOS>ATOM
      1 CAA        -3.5060    2.1660   -3.4170 c3        1 9UP     -0.050000
      2 OAL        -2.7750    1.0630   -2.9670 os        1 9UP     -0.287000
      3 CAN        -2.4190    1.1300   -1.5890 c1        1 9UP      0.400000
      4 OAD        -3.0730    1.8170   -0.8270 o         1 9UP     -0.381000
      5 N1         -1.4340    0.2820   -1.0870 n2        1 9UP     -0.306000
      6 CAP        -1.2200    0.1850    0.3620 c1        1 9UP      0.090000
      7 CAR         0.0730   -0.1930    0.8300 c1        1 9UP     -0.058000
      8 CAJ         1.1210   -0.4580   -0.0980 c1        1 9UP     -0.103000
      9 CAF        -2.2480    0.3840    1.2610 c1        1 9UP     -0.118500
     10 CAE        -2.0200    0.2160    2.6300 c1        1 9UP     -0.118500
     11 CAH        -0.7480   -0.1560    3.0880 c1        1 9UP     -0.145000
     12 CAQ         0.2930   -0.3580    2.1740 c1        1 9UP     -0.011000
     13 CAI         1.5770   -0.7960    2.6370 c1        1 9UP     -0.118500
     14 CAG         2.5880   -1.0510    1.7300 c1        1 9UP     -0.118500
     15 CAO         2.3620   -0.8830    0.3580 c1        1 9UP     -0.102000
     16 CAM         3.4810   -1.3990   -0.5870 c2        1 9UP      0.117000
     17 N2          4.2950   -0.4910   -1.2640 n3        1 9UP     -0.337000
     18 N3          3.6690   -2.7550   -0.7590 n1        1 9UP     -0.303000
     19 H1         -4.4970    2.0680   -3.1220 h1        1 9UP      0.094333
     20 H2         -3.4570    2.2120   -4.4190 h1        1 9UP      0.094333
     21 H3         -3.1310    2.9830   -3.0340 h1        1 9UP      0.094333
     22 H4         -1.0040   -0.3050   -1.6550 hn        1 9UP      0.253000
     23 H5          0.9760   -0.3470   -1.0090 ha        1 9UP      0.125000
     24 H6         -3.1000    0.6320    0.9550 ha        1 9UP      0.150500
     25 H7         -2.7870    0.3670    3.3040 ha        1 9UP      0.150500
     26 H8         -0.5940   -0.2700    4.0100 ha        1 9UP      0.138000
     27 H9          1.7450   -0.9200    3.6350 ha        1 9UP      0.150500
     28 H10         3.4910   -1.3600    2.0560 ha        1 9UP      0.150500
     29 H11         4.0740    0.3910   -1.2770 hn        1 9UP      0.197500
     30 H12         5.1540   -0.7810   -1.6210 hn        1 9UP      0.197500
     31 H13         3.1130   -3.3750   -0.2970 DU        1 9UP      0.151000
@<TRIPOS>BOND
     1    1    2 1   
     2    1   19 1   
     3    1   20 1   
     4    1   21 1   
     5    2    3 1   
     6    3    4 1   
     7    5    6 1   
     8    5   22 1   
     9    6    7 1   
    10    7   12 1   
    11    8   15 1   
    12    8   23 1   
    13    9   10 1   
    14    9   24 1   
    15   10   25 1   
    16   11   12 1   
    17   11   26 1   
    18   13   14 1   
    19   13   27 1   
    20   14   28 1   
    21   15   16 1   
    22   16   17 1   
    23   16   18 1   
    24   17   29 1   
    25   17   30 1   
@<TRIPOS>SUBSTRUCTURE
     1 9UP         1 TEMP              0 ****  ****    0 ROOT
