@<TRIPOS>MOLECULE
9UP
   32    33     1     0     0
SMALL
bcc


@<TRIPOS>ATOM
      1 CAA         0.0620   -0.2620   -0.1190 c3        1 9UP      0.135700
      2 OAL         1.4830   -0.2100    0.0730 os        1 9UP     -0.442900
      3 CAN         1.8930   -0.1430    1.3860 c         1 9UP      0.744100
      4 OAD         1.0480   -0.1320    2.2910 o         1 9UP     -0.546000
      5 N1          3.2810   -0.1320    1.4770 ns        1 9UP     -0.460100
      6 CAP         3.9900    0.0750    2.6670 ca        1 9UP      0.099600
      7 CAR         5.3890   -0.2870    2.7230 ca        1 9UP     -0.078000
      8 CAJ         6.0700   -0.9090    1.6450 ca        1 9UP     -0.034000
      9 CAF         3.3860    0.6180    3.8030 ca        1 9UP     -0.148000
     10 CAE         4.1230    0.8420    4.9780 ca        1 9UP     -0.054000
     11 CAH         5.4640    0.5410    5.0410 ca        1 9UP     -0.152000
     12 CAQ         6.1140   -0.0260    3.9210 ca        1 9UP      0.010000
     13 CAI         7.5020   -0.3510    3.9860 ca        1 9UP     -0.080000
     14 CAG         8.1400   -0.9450    2.9310 ca        1 9UP     -0.139000
     15 CAO         7.4070   -1.2360    1.7500 ca        1 9UP     -0.282900
     16 CAM         8.1030   -1.8750    0.6180 ce        1 9UP      0.598800
     17 N2          8.5150   -3.2880    0.9590 nz        1 9UP     -0.826600
     18 N3          8.4090   -1.4610   -0.5500 n2        1 9UP     -0.717100
     19 H1         -0.0370   -0.3050   -1.2330 h1        1 9UP      0.064367
     20 H2         -0.4110    0.6560    0.3040 h1        1 9UP      0.064367
     21 H3         -0.3530   -1.1750    0.3700 h1        1 9UP      0.064367
     22 H4          3.7800   -0.0810    0.6180 hn        1 9UP      0.333500
     23 H5          5.5350   -1.1570    0.7130 ha        1 9UP      0.139000
     24 H6          2.3100    0.8750    3.8000 ha        1 9UP      0.191000
     25 H7          3.6050    1.2740    5.8510 ha        1 9UP      0.162000
     26 H8          6.0440    0.7330    5.9580 ha        1 9UP      0.156000
     27 H9          8.0510   -0.1110    4.9120 ha        1 9UP      0.162000
     28 H10         9.2170   -1.1670    2.9810 ha        1 9UP      0.136000
     29 H11         7.6660   -3.8460    1.0910 hn        1 9UP      0.469467
     30 H12         9.0960   -3.7130    0.2260 hn        1 9UP      0.469467
     31 H13         8.1640   -0.5250   -0.8020 hn        1 9UP      0.489400
     32 H23         9.0370   -3.2590    1.8420 hn        1 9UP      0.469467
@<TRIPOS>BOND
     1    1    2 1   
     2    1   19 1   
     3    1   20 1   
     4    1   21 1   
     5    2    3 1   
     6    3    4 2   
     7    3    5 1   
     8    5    6 1   
     9    5   22 1   
    10    6    7 ar  
    11    6    9 ar  
    12    7    8 ar  
    13    7   12 ar  
    14    8   15 ar  
    15    8   23 1   
    16    9   10 ar  
    17    9   24 1   
    18   10   11 ar  
    19   10   25 1   
    20   11   12 ar  
    21   11   26 1   
    22   12   13 ar  
    23   13   14 ar  
    24   13   27 1   
    25   14   15 ar  
    26   14   28 1   
    27   15   16 1   
    28   16   17 1   
    29   16   18 2   
    30   17   29 1   
    31   17   30 1   
    32   17   32 1   
    33   18   31 1   
@<TRIPOS>SUBSTRUCTURE
     1 9UP         1 TEMP              0 ****  ****    0 ROOT
