@<TRIPOS>MOLECULE
9UP
   31    32     1     0     0
SMALL
bcc


@<TRIPOS>ATOM
      1 CAA         4.8370   -2.2070   -0.3180 c3        1 9UP      0.139700
      2 OAL         3.4700   -1.9460    0.0100 os        1 9UP     -0.446900
      3 CAN         3.0660   -0.6330   -0.1590 c         1 9UP      0.746100
      4 OAD         3.8970    0.1900   -0.5740 o         1 9UP     -0.574000
      5 N1          1.7380   -0.4720    0.1790 n         1 9UP     -0.451100
      6 CAP         1.0360    0.7440    0.1210 ca        1 9UP      0.087600
      7 CAR        -0.4100    0.7180    0.1400 ca        1 9UP     -0.064000
      8 CAJ        -1.1690   -0.4860    0.1380 ca        1 9UP     -0.077000
      9 CAF         1.6980    1.9670    0.0670 ca        1 9UP     -0.166000
     10 CAE         0.9770    3.1770    0.0570 ca        1 9UP     -0.093000
     11 CAH        -0.3930    3.1800    0.1120 ca        1 9UP     -0.148000
     12 CAQ        -1.1070    1.9540    0.1570 ca        1 9UP     -0.009000
     13 CAI        -2.5290    1.9550    0.2120 ca        1 9UP     -0.124000
     14 CAG        -3.2380    0.7810    0.2240 ca        1 9UP     -0.108000
     15 CAO        -2.5460   -0.4550    0.1710 ca        1 9UP     -0.142900
     16 CAM        -3.3250   -1.7350    0.1620 ce        1 9UP      0.652800
     17 N2         -4.4120   -1.7470   -0.7400 nh        1 9UP     -0.958800
     18 N3         -2.9880   -2.6700    0.9990 n2        1 9UP     -0.830100
     19 H1          5.0230   -1.9700   -1.3930 h1        1 9UP      0.054367
     20 H2          5.5090   -1.5970    0.3320 h1        1 9UP      0.054367
     21 H3          4.9440   -3.3010   -0.1110 h1        1 9UP      0.054367
     22 H4          1.2550   -1.2800    0.5060 hn        1 9UP      0.345500
     23 H5         -0.6710   -1.4670    0.1020 ha        1 9UP      0.142000
     24 H6          2.8010    2.0140    0.0270 ha        1 9UP      0.173000
     25 H7          1.5400    4.1220    0.0130 ha        1 9UP      0.139000
     26 H8         -0.9590    4.1230    0.1200 ha        1 9UP      0.137000
     27 H9         -3.0490    2.9250    0.2500 ha        1 9UP      0.138000
     28 H10        -4.3370    0.7890    0.2870 ha        1 9UP      0.147000
     29 H11        -4.3650   -1.0810   -1.4750 hn        1 9UP      0.400300
     30 H12        -4.7590   -2.6370   -1.0120 hn        1 9UP      0.400300
     31 H13        -3.5260   -3.5100    0.9710 hn        1 9UP      0.384400
@<TRIPOS>BOND
     1    1    2 1   
     2    1   19 1   
     3    1   20 1   
     4    1   21 1   
     5    2    3 1   
     6    3    4 2   
     7    3    5 1   
     8    5    6 1   
     9    5   22 1   
    10    6    7 ar  
    11    6    9 ar  
    12    7    8 ar  
    13    7   12 ar  
    14    8   15 ar  
    15    8   23 1   
    16    9   10 ar  
    17    9   24 1   
    18   10   11 ar  
    19   10   25 1   
    20   11   12 ar  
    21   11   26 1   
    22   12   13 ar  
    23   13   14 ar  
    24   13   27 1   
    25   14   15 ar  
    26   14   28 1   
    27   15   16 1   
    28   16   17 1   
    29   16   18 2   
    30   17   29 1   
    31   17   30 1   
    32   18   31 1   
@<TRIPOS>SUBSTRUCTURE
     1 9UP         1 TEMP              0 ****  ****    0 ROOT
