@<TRIPOS>MOLECULE
9UP
   32    33     1     0     0
SMALL
bcc


@<TRIPOS>ATOM
      1 CAA         0.0400   -0.3260   -0.0780 c3        1 9UP      0.135700
      2 OAL         1.4620   -0.2640    0.1010 os        1 9UP     -0.442900
      3 CAN         1.8830   -0.1710    1.4080 c         1 9UP      0.744100
      4 OAD         1.0470   -0.1470    2.3200 o         1 9UP     -0.546000
      5 N1          3.2720   -0.1530    1.4860 n         1 9UP     -0.460100
      6 CAP         3.9920    0.0800    2.6650 ca        1 9UP      0.100600
      7 CAR         5.3930   -0.2740    2.7130 ca        1 9UP     -0.078000
      8 CAJ         6.0670   -0.9120    1.6400 ca        1 9UP     -0.034000
      9 CAF         3.3960    0.6390    3.7960 ca        1 9UP     -0.148000
     10 CAE         4.1430    0.8890    4.9600 ca        1 9UP     -0.054000
     11 CAH         5.4870    0.5960    5.0150 ca        1 9UP     -0.152000
     12 CAQ         6.1290    0.0120    3.8990 ca        1 9UP      0.010000
     13 CAI         7.5180   -0.3050    3.9570 ca        1 9UP     -0.080000
     14 CAG         8.1500   -0.9130    2.9060 ca        1 9UP     -0.139000
     15 CAO         7.4070   -1.2300    1.7380 ca        1 9UP     -0.282900
     16 CAM         8.0950   -1.8860    0.6100 ce        1 9UP      0.598800
     17 N2          8.5200   -3.2890    0.9730 n4        1 9UP     -0.826600
     18 N3          8.3860   -1.4910   -0.5680 n2        1 9UP     -0.717100
     19 H1         -0.4340    0.5990    0.3320 h1        1 9UP      0.064367
     20 H2         -0.0700   -0.3910   -1.1890 h1        1 9UP      0.064367
     21 H3         -0.3670   -1.2300    0.4330 h1        1 9UP      0.064367
     22 H4          3.7630   -0.1160    0.6210 hn        1 9UP      0.333500
     23 H5          5.5250   -1.1790    0.7180 ha        1 9UP      0.139000
     24 H6          2.3180    0.8920    3.7990 ha        1 9UP      0.191000
     25 H7          3.6310    1.3340    5.8300 ha        1 9UP      0.162000
     26 H8          6.0740    0.8080    5.9220 ha        1 9UP      0.156000
     27 H9          8.0750   -0.0440    4.8730 ha        1 9UP      0.162000
     28 H10         9.2280   -1.1290    2.9490 ha        1 9UP      0.136000
     29 H11         9.0950   -3.7250    0.2420 hn        1 9UP      0.469467
     30 H12         7.6750   -3.8500    1.1240 hn        1 9UP      0.469467
     31 H13         8.1330   -0.5620   -0.8350 hn        1 9UP      0.489400
     32 H23         9.0510   -3.2410    1.8500 hn        1 9UP      0.469467
@<TRIPOS>BOND
     1    1    2 1   
     2    1   19 1   
     3    1   20 1   
     4    1   21 1   
     5    2    3 1   
     6    3    4 2   
     7    3    5 1   
     8    5    6 1   
     9    5   22 1   
    10    6    7 ar  
    11    6    9 ar  
    12    7    8 ar  
    13    7   12 ar  
    14    8   15 ar  
    15    8   23 1   
    16    9   10 ar  
    17    9   24 1   
    18   10   11 ar  
    19   10   25 1   
    20   11   12 ar  
    21   11   26 1   
    22   12   13 ar  
    23   13   14 ar  
    24   13   27 1   
    25   14   15 ar  
    26   14   28 1   
    27   15   16 1   
    28   16   17 1   
    29   16   18 2   
    30   17   29 1   
    31   17   30 1   
    32   17   32 1   
    33   18   31 1   
@<TRIPOS>SUBSTRUCTURE
     1 9UP         1 TEMP              0 ****  ****    0 ROOT
