@<TRIPOS>MOLECULE
9VU
   39    42     1     0     0
SMALL
bcc


@<TRIPOS>ATOM
      1 OAN        -0.1160    0.0010   -0.3130 o         1 9VU     -0.559500
      2 CAH         1.1130   -0.0580   -0.2780 c         1 9VU      0.658500
      3 NAG         1.8420   -0.3540    0.8860 n         1 9VU     -0.486100
      4 CAC         3.2180   -0.3080    0.6270 ca        1 9VU      0.069600
      5 CAB         4.2690   -0.5200    1.5180 ca        1 9VU     -0.161000
      6 CAA         5.5710   -0.4060    1.0290 ca        1 9VU     -0.085000
      7 CAF         5.8400   -0.0850   -0.3040 ca        1 9VU     -0.088300
      8 CAJ         7.2520    0.0270   -0.7440 c3        1 9VU     -0.057800
      9 CAE         4.7720    0.1280   -1.2040 ca        1 9VU      0.042100
     10 BRA         5.1280    0.5760   -2.9910 br        1 9VU     -0.065100
     11 CAD         3.4690    0.0090   -0.7480 ca        1 9VU     -0.179300
     12 CAI         2.1280    0.1650   -1.4590 c3        1 9VU      0.175100
     13 OAL         1.9480    1.4300   -2.0450 oh        1 9VU     -0.530800
     14 CAM         1.9260   -0.9020   -2.5310 c3        1 9VU     -0.165400
     15 CAO         0.5970   -0.8510   -3.2390 c         1 9VU      0.581700
     16 OAP        -0.0180    0.1930   -3.4580 o         1 9VU     -0.479100
     17 CAQ         0.0820   -2.1670   -3.6920 ca        1 9VU     -0.170600
     18 CAV        -1.3190   -2.3590   -3.6830 ca        1 9VU     -0.060000
     19 CAU        -1.7690   -3.5900   -4.1080 ca        1 9VU      0.043100
     20 OAY        -3.0780   -4.0560   -4.1970 os        1 9VU     -0.328900
     21 CAX        -3.0070   -5.4060   -4.7100 c3        1 9VU      0.320200
     22 OAW        -1.6100   -5.7290   -4.9170 os        1 9VU     -0.332900
     23 CAT        -0.8800   -4.6080   -4.5460 ca        1 9VU      0.077100
     24 CAS         0.4880   -4.4200   -4.5690 ca        1 9VU     -0.126000
     25 CAR         0.9520   -3.1690   -4.1260 ca        1 9VU     -0.100000
     26 HAG         1.4530   -0.5180    1.7790 hn        1 9VU      0.343500
     27 HAB         4.0860   -0.7680    2.5720 ha        1 9VU      0.147000
     28 HAA         6.4130   -0.5730    1.7220 ha        1 9VU      0.142000
     29 HAJ1        7.4680   -0.7040   -1.5620 hc        1 9VU      0.053367
     30 HAJ2        7.4630    1.0580   -1.1270 hc        1 9VU      0.053367
     31 HAJ3        7.9530   -0.1800    0.1020 hc        1 9VU      0.053367
     32 HAL         2.0930    2.0920   -1.3550 ho        1 9VU      0.413000
     33 HAM1        2.7210   -0.7680   -3.3160 hc        1 9VU      0.088700
     34 HAM2        2.0660   -1.9050   -2.0480 hc        1 9VU      0.088700
     35 HAV        -1.9960   -1.5560   -3.3560 ha        1 9VU      0.179000
     36 HAR         2.0380   -2.9830   -4.1370 ha        1 9VU      0.139000
     37 HAX1       -3.5300   -5.4420   -5.6970 h2        1 9VU      0.074700
     38 HAX2       -3.4220   -6.1030   -3.9410 h2        1 9VU      0.074700
     39 HAS         1.1770   -5.2000   -4.9140 ha        1 9VU      0.158000
@<TRIPOS>BOND
     1    1    2 2   
     2    2    3 1   
     3    2   12 1   
     4    3    4 1   
     5    3   26 1   
     6    4    5 ar  
     7    4   11 ar  
     8    5    6 ar  
     9    5   27 1   
    10    6    7 ar  
    11    6   28 1   
    12    7    8 1   
    13    7    9 ar  
    14    8   29 1   
    15    8   30 1   
    16    8   31 1   
    17    9   10 1   
    18    9   11 ar  
    19   11   12 1   
    20   12   13 1   
    21   12   14 1   
    22   13   32 1   
    23   14   15 1   
    24   14   33 1   
    25   14   34 1   
    26   15   16 2   
    27   15   17 1   
    28   17   18 ar  
    29   17   25 ar  
    30   18   19 ar  
    31   18   35 1   
    32   19   20 1   
    33   19   23 ar  
    34   20   21 1   
    35   21   22 1   
    36   21   37 1   
    37   21   38 1   
    38   22   23 1   
    39   23   24 ar  
    40   24   25 ar  
    41   24   39 1   
    42   25   36 1   
@<TRIPOS>SUBSTRUCTURE
     1 9VU         1 TEMP              0 ****  ****    0 ROOT
