@<TRIPOS>MOLECULE
9VU
   39    42     1     0     0
SMALL
bcc


@<TRIPOS>ATOM
      1 OAN        -0.0570    3.2280   -0.5520 o         1 9VU     -0.579500
      2 CAH         0.8270    2.4620   -0.1630 c         1 9VU      0.661500
      3 NAG         1.7520    2.7660    0.8500 n         1 9VU     -0.470100
      4 CAC         2.6990    1.7330    0.9600 ca        1 9VU      0.061600
      5 CAB         3.8130    1.6760    1.7940 ca        1 9VU     -0.156000
      6 CAA         4.6120    0.5330    1.7400 ca        1 9VU     -0.090000
      7 CAF         4.3290   -0.5330    0.8820 ca        1 9VU     -0.084300
      8 CAJ         5.2330   -1.7080    0.8750 c3        1 9VU     -0.057800
      9 CAE         3.1980   -0.4730    0.0360 ca        1 9VU      0.043100
     10 BRA         2.8190   -1.8990   -1.1250 br        1 9VU     -0.068100
     11 CAD         2.3840    0.6460    0.0790 ca        1 9VU     -0.117300
     12 CAI         1.1160    1.0080   -0.6860 c3        1 9VU      0.174100
     13 OAL         1.4000    1.0440   -2.0620 oh        1 9VU     -0.564800
     14 CAM        -0.0370    0.0820   -0.3100 c3        1 9VU     -0.207400
     15 CAO        -1.3340    0.3480   -1.0250 c         1 9VU      0.592700
     16 OAP        -1.3780    0.8480   -2.1560 o         1 9VU     -0.526100
     17 CAQ        -2.5640   -0.0490   -0.3050 ca        1 9VU     -0.174600
     18 CAV        -3.7470    0.6760   -0.5860 ca        1 9VU     -0.056000
     19 CAU        -4.8770    0.2870    0.1000 ca        1 9VU      0.042100
     20 OAY        -6.1620    0.8170    0.0310 os        1 9VU     -0.327900
     21 CAX        -6.9810    0.0490    0.9430 c3        1 9VU      0.320200
     22 OAW        -6.1360   -0.9550    1.5580 os        1 9VU     -0.330900
     23 CAT        -4.8640   -0.7890    1.0270 ca        1 9VU      0.084100
     24 CAS        -3.7150   -1.5070    1.2940 ca        1 9VU     -0.128000
     25 CAR        -2.5570   -1.1090    0.6050 ca        1 9VU     -0.093000
     26 HAG         1.8910    3.6680    1.2280 hn        1 9VU      0.339500
     27 HAB         4.0630    2.5020    2.4740 ha        1 9VU      0.146000
     28 HAA         5.4970    0.4750    2.3940 ha        1 9VU      0.141000
     29 HAJ1        4.6730   -2.6380    1.1460 hc        1 9VU      0.052700
     30 HAJ2        5.6830   -1.8510   -0.1410 hc        1 9VU      0.052700
     31 HAJ3        6.0670   -1.5770    1.6090 hc        1 9VU      0.052700
     32 HAL         0.6060    1.3750   -2.5150 ho        1 9VU      0.447000
     33 HAM1        0.2630   -0.9740   -0.5600 hc        1 9VU      0.093200
     34 HAM2       -0.1960    0.1490    0.7980 hc        1 9VU      0.093200
     35 HAV        -3.7450    1.4980   -1.3160 ha        1 9VU      0.180000
     36 HAR        -1.6250   -1.6660    0.7910 ha        1 9VU      0.141000
     37 HAX1       -7.3620    0.7300    1.7420 h2        1 9VU      0.076700
     38 HAX2       -7.7790   -0.4690    0.3570 h2        1 9VU      0.076700
     39 HAS        -3.7030   -2.3440    2.0040 ha        1 9VU      0.160000
@<TRIPOS>BOND
     1    1    2 2   
     2    2    3 1   
     3    2   12 1   
     4    3    4 1   
     5    3   26 1   
     6    4    5 ar  
     7    4   11 ar  
     8    5    6 ar  
     9    5   27 1   
    10    6    7 ar  
    11    6   28 1   
    12    7    8 1   
    13    7    9 ar  
    14    8   29 1   
    15    8   30 1   
    16    8   31 1   
    17    9   10 1   
    18    9   11 ar  
    19   11   12 1   
    20   12   13 1   
    21   12   14 1   
    22   13   32 1   
    23   14   15 1   
    24   14   33 1   
    25   14   34 1   
    26   15   16 2   
    27   15   17 1   
    28   17   18 ar  
    29   17   25 ar  
    30   18   19 ar  
    31   18   35 1   
    32   19   20 1   
    33   19   23 ar  
    34   20   21 1   
    35   21   22 1   
    36   21   37 1   
    37   21   38 1   
    38   22   23 1   
    39   23   24 ar  
    40   24   25 ar  
    41   24   39 1   
    42   25   36 1   
@<TRIPOS>SUBSTRUCTURE
     1 9VU         1 TEMP              0 ****  ****    0 ROOT
