@<TRIPOS>MOLECULE
9VU
   39    42     1     0     0
SMALL
bcc


@<TRIPOS>ATOM
      1 OAN        -0.1170   -0.0170   -0.3010 o         1 9VU     -0.559500
      2 CAH         1.1130   -0.0730   -0.2690 c         1 9VU      0.658500
      3 NAG         1.8450   -0.3760    0.8920 n         1 9VU     -0.486100
      4 CAC         3.2200   -0.3240    0.6310 ca        1 9VU      0.069600
      5 CAB         4.2740   -0.5390    1.5180 ca        1 9VU     -0.161000
      6 CAA         5.5740   -0.4180    1.0290 ca        1 9VU     -0.085000
      7 CAF         5.8400   -0.0860   -0.3030 ca        1 9VU     -0.088300
      8 CAJ         7.2500    0.0340   -0.7440 c3        1 9VU     -0.057800
      9 CAE         4.7690    0.1300   -1.1990 ca        1 9VU      0.042100
     10 BRA         5.1220    0.5930   -2.9840 br        1 9VU     -0.065100
     11 CAD         3.4680    0.0040   -0.7420 ca        1 9VU     -0.179300
     12 CAI         2.1250    0.1610   -1.4500 c3        1 9VU      0.175100
     13 OAL         1.9400    1.4300   -2.0260 oh        1 9VU     -0.530800
     14 CAM         1.9250   -0.8980   -2.5290 c3        1 9VU     -0.165400
     15 CAO         0.5940   -0.8460   -3.2340 c         1 9VU      0.581700
     16 OAP        -0.0230    0.1980   -3.4460 o         1 9VU     -0.479100
     17 CAQ         0.0800   -2.1610   -3.6930 ca        1 9VU     -0.170600
     18 CAV        -1.3210   -2.3550   -3.6800 ca        1 9VU     -0.060000
     19 CAU        -1.7690   -3.5850   -4.1120 ca        1 9VU      0.043100
     20 OAY        -3.0770   -4.0530   -4.2000 os        1 9VU     -0.328900
     21 CAX        -3.0040   -5.4000   -4.7200 c3        1 9VU      0.320200
     22 OAW        -1.6070   -5.7190   -4.9330 os        1 9VU     -0.332900
     23 CAT        -0.8780   -4.5980   -4.5580 ca        1 9VU      0.077100
     24 CAS         0.4880   -4.4070   -4.5840 ca        1 9VU     -0.126000
     25 CAR         0.9510   -3.1580   -4.1350 ca        1 9VU     -0.101000
     26 HAG         1.4580   -0.5470    1.7840 hn        1 9VU      0.343500
     27 HAB         4.0930   -0.7960    2.5710 ha        1 9VU      0.147000
     28 HAA         6.4180   -0.5880    1.7180 ha        1 9VU      0.142000
     29 HAJ1        7.9540   -0.1780    0.0990 hc        1 9VU      0.053367
     30 HAJ2        7.4680   -0.6910   -1.5690 hc        1 9VU      0.053367
     31 HAJ3        7.4580    1.0670   -1.1190 hc        1 9VU      0.053367
     32 HAL         2.0850    2.0870   -1.3310 ho        1 9VU      0.413000
     33 HAM1        2.7170   -0.7560   -3.3150 hc        1 9VU      0.088700
     34 HAM2        2.0680   -1.9040   -2.0540 hc        1 9VU      0.088700
     35 HAV        -1.9980   -1.5560   -3.3470 ha        1 9VU      0.179000
     36 HAR         2.0360   -2.9690   -4.1490 ha        1 9VU      0.139000
     37 HAX1       -3.4160   -6.1020   -3.9540 h2        1 9VU      0.074700
     38 HAX2       -3.5300   -5.4320   -5.7050 h2        1 9VU      0.074700
     39 HAS         1.1790   -5.1840   -4.9360 ha        1 9VU      0.158000
@<TRIPOS>BOND
     1    1    2 2   
     2    2    3 1   
     3    2   12 1   
     4    3    4 1   
     5    3   26 1   
     6    4    5 ar  
     7    4   11 ar  
     8    5    6 ar  
     9    5   27 1   
    10    6    7 ar  
    11    6   28 1   
    12    7    8 1   
    13    7    9 ar  
    14    8   29 1   
    15    8   30 1   
    16    8   31 1   
    17    9   10 1   
    18    9   11 ar  
    19   11   12 1   
    20   12   13 1   
    21   12   14 1   
    22   13   32 1   
    23   14   15 1   
    24   14   33 1   
    25   14   34 1   
    26   15   16 2   
    27   15   17 1   
    28   17   18 ar  
    29   17   25 ar  
    30   18   19 ar  
    31   18   35 1   
    32   19   20 1   
    33   19   23 ar  
    34   20   21 1   
    35   21   22 1   
    36   21   37 1   
    37   21   38 1   
    38   22   23 1   
    39   23   24 ar  
    40   24   25 ar  
    41   24   39 1   
    42   25   36 1   
@<TRIPOS>SUBSTRUCTURE
     1 9VU         1 TEMP              0 ****  ****    0 ROOT
