@<TRIPOS>MOLECULE
9VU
   39    42     1     0     0
SMALL
bcc


@<TRIPOS>ATOM
      1 OAN        -0.1160   -0.0400   -0.2810 o         1 9VU     -0.559500
      2 CAH         1.1140   -0.0880   -0.2570 c         1 9VU      0.658500
      3 NAG         1.8540   -0.3930    0.8990 ns        1 9VU     -0.486100
      4 CAC         3.2280   -0.3300    0.6300 ca        1 9VU      0.069600
      5 CAB         4.2880   -0.5440    1.5100 ca        1 9VU     -0.161000
      6 CAA         5.5850   -0.4120    1.0140 ca        1 9VU     -0.085000
      7 CAF         5.8410   -0.0710   -0.3170 ca        1 9VU     -0.088300
      8 CAJ         7.2480    0.0610   -0.7650 c3        1 9VU     -0.057800
      9 CAE         4.7640    0.1440   -1.2060 ca        1 9VU      0.042100
     10 BrA         5.1030    0.6190   -2.9900 br        1 9VU     -0.065100
     11 CAD         3.4660    0.0070   -0.7420 ca        1 9VU     -0.179300
     12 CAI         2.1180    0.1590   -1.4420 c3        1 9VU      0.175100
     13 OAL         1.9220    1.4300   -2.0090 oh        1 9VU     -0.530800
     14 CAM         1.9180   -0.8950   -2.5260 c3        1 9VU     -0.165400
     15 CAO         0.5840   -0.8480   -3.2230 c         1 9VU      0.581700
     16 OAP        -0.0410    0.1940   -3.4260 o         1 9VU     -0.479100
     17 CAQ         0.0750   -2.1630   -3.6860 ca        1 9VU     -0.170600
     18 CAV        -1.3250   -2.3660   -3.6670 ca        1 9VU     -0.060000
     19 CAU        -1.7680   -3.5960   -4.1030 ca        1 9VU      0.043100
     20 OAY        -3.0730   -4.0720   -4.1860 os        1 9VU     -0.328900
     21 CAX        -2.9950   -5.4150   -4.7140 c3        1 9VU      0.320200
     22 OAW        -1.5980   -5.7250   -4.9360 os        1 9VU     -0.332900
     23 CAT        -0.8740   -4.6020   -4.5590 ca        1 9VU      0.077100
     24 CAS         0.4920   -4.4020   -4.5910 ca        1 9VU     -0.126000
     25 CAR         0.9500   -3.1530   -4.1380 ca        1 9VU     -0.101000
     26 HAG         1.4730   -0.5720    1.7920 hn        1 9VU      0.343500
     27 HAB         4.1140   -0.8070    2.5630 ha        1 9VU      0.147000
     28 HAA         6.4330   -0.5790    1.6980 ha        1 9VU      0.142000
     29 HAJ1        7.4650   -0.6580   -1.5950 hc        1 9VU      0.053367
     30 HAJ2        7.4470    1.0980   -1.1360 hc        1 9VU      0.053367
     31 HAJ3        7.9580   -0.1510    0.0730 hc        1 9VU      0.053367
     32 HAL         2.0670    2.0840   -1.3120 ho        1 9VU      0.413000
     33 HAM1        2.7060   -0.7440   -3.3150 hc        1 9VU      0.088700
     34 HAM2        2.0710   -1.9030   -2.0580 hc        1 9VU      0.088700
     35 HAV        -2.0050   -1.5730   -3.3260 ha        1 9VU      0.179000
     36 HAR         2.0340   -2.9580   -4.1560 ha        1 9VU      0.139000
     37 HAX1       -3.3990   -6.1240   -3.9490 h2        1 9VU      0.074700
     38 HAX2       -3.5270   -5.4460   -5.6970 h2        1 9VU      0.074700
     39 HAS         1.1850   -5.1730   -4.9510 ha        1 9VU      0.158000
@<TRIPOS>BOND
     1    1    2 2   
     2    2    3 1   
     3    2   12 1   
     4    3    4 1   
     5    3   26 1   
     6    4    5 ar  
     7    4   11 ar  
     8    5    6 ar  
     9    5   27 1   
    10    6    7 ar  
    11    6   28 1   
    12    7    8 1   
    13    7    9 ar  
    14    8   29 1   
    15    8   30 1   
    16    8   31 1   
    17    9   10 1   
    18    9   11 ar  
    19   11   12 1   
    20   12   13 1   
    21   12   14 1   
    22   13   32 1   
    23   14   15 1   
    24   14   33 1   
    25   14   34 1   
    26   15   16 2   
    27   15   17 1   
    28   17   18 ar  
    29   17   25 ar  
    30   18   19 ar  
    31   18   35 1   
    32   19   20 1   
    33   19   23 ar  
    34   20   21 1   
    35   21   22 1   
    36   21   37 1   
    37   21   38 1   
    38   22   23 1   
    39   23   24 ar  
    40   24   25 ar  
    41   24   39 1   
    42   25   36 1   
@<TRIPOS>SUBSTRUCTURE
     1 9VU         1 TEMP              0 ****  ****    0 ROOT
