@<TRIPOS>MOLECULE
9VU
   39    37     1     0     0
SMALL
bcc


@<TRIPOS>ATOM
      1 OAN        -1.8410    1.5320    2.0140 o         1 9VU     -0.295000
      2 CAH        -0.6850    1.6390    1.9980 c1        1 9VU      0.269000
      3 NAG         0.1500    1.7370    3.1230 n2        1 9VU     -0.336000
      4 CAC         1.5160    1.4550    2.6970 c2        1 9VU      0.077000
      5 CAB         2.7010    1.3360    3.4490 c1        1 9VU     -0.159000
      6 CAA         3.9550    1.4130    2.8060 c1        1 9VU     -0.085000
      7 CAF         4.0180    1.6050    1.4430 c1        1 9VU     -0.079000
      8 CAJ         5.4050    1.6310    0.8150 c2        1 9VU     -0.183000
      9 CAE         2.8470    1.7230    0.7010 c2        1 9VU     -0.098000
     10 BRA         3.1390    2.0290   -1.1410 br        1 9VU      0.077000
     11 CAD         1.5860    1.6460    1.3430 c2        1 9VU     -0.171000
     12 CAI         0.1730    1.6380    0.7910 c3        1 9VU      0.147000
     13 OAL        -0.0950    2.7030   -0.1050 oh        1 9VU     -0.263000
     14 CAM        -0.0900    0.4070   -0.1070 c3        1 9VU     -0.197000
     15 CAO        -1.5090    0.5240   -0.7510 c2        1 9VU      0.276000
     16 OAP        -2.1650    1.5830   -0.6330 o         1 9VU     -0.239000
     17 CAQ        -2.1140   -0.6880   -1.5280 c2        1 9VU     -0.147000
     18 CAV        -2.8720   -1.6440   -0.8470 c2        1 9VU     -0.063000
     19 CAU        -3.3580   -2.7530   -1.5250 c1        1 9VU      0.002000
     20 OAY        -4.1690   -3.8260   -1.1120 o         1 9VU     -0.212000
     21 CAX        -4.4980   -4.5780   -2.2390 c3        1 9VU      0.098000
     22 OAW        -3.8330   -4.0100   -3.3470 os        1 9VU     -0.217000
     23 CAT        -3.0910   -2.9140   -2.8880 c2        1 9VU      0.025000
     24 CAS        -2.3360   -1.9610   -3.5670 c1        1 9VU     -0.123000
     25 CAR        -1.8480   -0.8500   -2.8910 c1        1 9VU     -0.106000
     26 HAG        -0.1210    1.8610    3.9680 hn        1 9VU      0.258000
     27 HAB         2.6550    1.2030    4.3970 ha        1 9VU      0.147000
     28 HAA         4.7920    1.2100    3.3180 ha        1 9VU      0.143000
     29 HAJ1        5.3340    1.4610   -0.1160 ha        1 9VU      0.093000
     30 HAJ2        5.9980    0.9030    1.2560 ha        1 9VU      0.093000
     31 HAJ3        5.8230    2.5330    0.9590 ha        1 9VU      0.093000
     32 HAL         0.0420    3.4890    0.3110 ho        1 9VU      0.214000
     33 HAM1        0.5860    0.3680   -0.8190 hc        1 9VU      0.129000
     34 HAM2       -0.0370   -0.4580    0.4710 hc        1 9VU      0.129000
     35 HAV        -3.0480   -1.5400    0.1700 ha        1 9VU      0.184000
     36 HAR        -1.2510   -0.2500   -3.3330 ha        1 9VU      0.139000
     37 HAX1       -4.1730   -5.5420   -2.1060 h2        1 9VU      0.112500
     38 HAX2       -5.4520   -4.5310   -2.3820 h2        1 9VU      0.112500
     39 HAS        -2.1330   -2.0830   -4.5950 ha        1 9VU      0.157000
@<TRIPOS>BOND
     1    1    2 1   
     2    2   12 1   
     3    3    4 1   
     4    3   26 1   
     5    4    5 1   
     6    4   11 1   
     7    5   27 1   
     8    6    7 1   
     9    6   28 1   
    10    7    9 1   
    11    8   29 1   
    12    8   30 1   
    13    8   31 1   
    14    9   10 1   
    15    9   11 1   
    16   11   12 1   
    17   12   13 1   
    18   12   14 1   
    19   13   32 1   
    20   14   15 1   
    21   14   33 1   
    22   14   34 1   
    23   15   16 1   
    24   15   17 1   
    25   17   18 1   
    26   17   25 1   
    27   18   19 1   
    28   18   35 1   
    29   19   23 1   
    30   20   21 1   
    31   21   22 1   
    32   21   37 1   
    33   21   38 1   
    34   22   23 1   
    35   23   24 1   
    36   24   39 1   
    37   25   36 1   
@<TRIPOS>SUBSTRUCTURE
     1 9VU         1 TEMP              0 ****  ****    0 ROOT
