@<TRIPOS>MOLECULE
9W7
   32    33     1     0     0
SMALL
bcc


@<TRIPOS>ATOM
      1 C          -0.1380   -0.3960    0.0360 c3        1 9W7     -0.090100
      2 F           1.8420    2.5460    1.4750 f         1 9W7     -0.132900
      3 N           9.0180   -0.0130    6.3930 no        1 9W7      0.319200
      4 O           3.1760   -2.2370    3.8970 oh        1 9W7     -0.476100
      5 CL          4.1600   -0.0520    8.1030 cl        1 9W7     -0.044400
      6 C1          1.2760    0.1350    0.0130 c3        1 9W7     -0.045100
      7 O1          3.4860    0.1370    5.2540 os        1 9W7     -0.209200
      8 C2          1.8920    0.1450    1.3680 ca        1 9W7     -0.055300
      9 O2          9.8120    0.0260    5.4910 o         1 9W7     -0.209000
     10 C3          2.2300   -1.0610    1.9840 ca        1 9W7     -0.190000
     11 O3          9.3600   -0.0810    7.5430 o         1 9W7     -0.209000
     12 C4          2.8160   -1.0790    3.2560 ca        1 9W7      0.122100
     13 C5          3.0650    0.1380    3.9250 ca        1 9W7      0.055100
     14 C6          4.8520    0.0920    5.4730 ca        1 9W7      0.179100
     15 C7          5.8000    0.1410    4.4410 ca        1 9W7     -0.197000
     16 C8          7.1560    0.1070    4.7330 ca        1 9W7     -0.033000
     17 C9          7.5690    0.0240    6.0730 ca        1 9W7     -0.207200
     18 C10         6.6300   -0.0250    7.1160 ca        1 9W7     -0.040000
     19 C11         5.2670    0.0090    6.8220 ca        1 9W7     -0.023600
     20 C12         2.7400    1.3540    3.3240 ca        1 9W7     -0.127000
     21 C13         2.1530    1.3570    2.0470 ca        1 9W7      0.097900
     22 H          -0.5530   -0.4130   -1.0000 hc        1 9W7      0.040700
     23 HA         -0.1630   -1.4340    0.4470 hc        1 9W7      0.040700
     24 HB         -0.7920    0.2500    0.6700 hc        1 9W7      0.040700
     25 HO          2.8930   -2.9840    3.3480 ho        1 9W7      0.427000
     26 H1          1.2760    1.1750   -0.4130 hc        1 9W7      0.061200
     27 H1A         1.9040   -0.5020   -0.6670 hc        1 9W7      0.061200
     28 H3          2.0280   -2.0100    1.4630 ha        1 9W7      0.149000
     29 H7          5.4650    0.2020    3.3940 ha        1 9W7      0.162000
     30 H8          7.9030    0.1440    3.9210 ha        1 9W7      0.175000
     31 H10         6.9710   -0.0910    8.1660 ha        1 9W7      0.186000
     32 H12         2.9280    2.3010    3.8520 ha        1 9W7      0.171000
@<TRIPOS>BOND
     1    1    6 1   
     2    1   22 1   
     3    1   23 1   
     4    1   24 1   
     5    2   21 1   
     6    3    9 1   
     7    3   11 1   
     8    3   17 1   
     9    4   12 1   
    10    4   25 1   
    11    5   19 1   
    12    6    8 1   
    13    6   26 1   
    14    6   27 1   
    15    7   13 1   
    16    7   14 1   
    17    8   10 ar  
    18    8   21 ar  
    19   10   12 ar  
    20   10   28 1   
    21   12   13 ar  
    22   13   20 ar  
    23   14   15 ar  
    24   14   19 ar  
    25   15   16 ar  
    26   15   29 1   
    27   16   17 ar  
    28   16   30 1   
    29   17   18 ar  
    30   18   19 ar  
    31   18   31 1   
    32   20   21 ar  
    33   20   32 1   
@<TRIPOS>SUBSTRUCTURE
     1 9W7         1 TEMP              0 ****  ****    0 ROOT
