@<TRIPOS>MOLECULE
9W7
   32    33     1     0     0
SMALL
bcc


@<TRIPOS>ATOM
      1 C          -0.1390   -0.3890    0.0360 c3        1 9W7     -0.090100
      2 F           1.8650    2.5470    1.4530 f         1 9W7     -0.132900
      3 N           9.0170   -0.0320    6.3950 no        1 9W7      0.319200
      4 O           3.1580   -2.2280    3.9140 oh        1 9W7     -0.476100
      5 Cl          4.1570   -0.0190    8.1030 cl        1 9W7     -0.044400
      6 C1          1.2800    0.1300    0.0100 c3        1 9W7     -0.045100
      7 O1          3.4870    0.1530    5.2530 os        1 9W7     -0.209200
      8 C2          1.8950    0.1440    1.3660 ca        1 9W7     -0.055300
      9 O2          9.8120   -0.0060    5.4930 o         1 9W7     -0.209000
     10 C3          2.2230   -1.0600    1.9910 ca        1 9W7     -0.190000
     11 O3          9.3580   -0.0940    7.5450 o         1 9W7     -0.209000
     12 C4          2.8070   -1.0730    3.2640 ca        1 9W7      0.122100
     13 C5          3.0660    0.1470    3.9230 ca        1 9W7      0.055100
     14 C6          4.8520    0.0990    5.4730 ca        1 9W7      0.179100
     15 C7          5.8010    0.1320    4.4400 ca        1 9W7     -0.197000
     16 C8          7.1570    0.0890    4.7330 ca        1 9W7     -0.033000
     17 C9          7.5680    0.0140    6.0740 ca        1 9W7     -0.207200
     18 C10         6.6290   -0.0190    7.1170 ca        1 9W7     -0.040000
     19 C11         5.2660    0.0230    6.8220 ca        1 9W7     -0.023600
     20 C12         2.7520    1.3610    3.3130 ca        1 9W7     -0.127000
     21 C13         2.1660    1.3600    2.0350 ca        1 9W7      0.097900
     22 H          -0.5530   -0.4110   -1.0000 hc        1 9W7      0.040700
     23 HA         -0.7880    0.2670    0.6640 hc        1 9W7      0.040700
     24 HB         -0.1730   -1.4240    0.4560 hc        1 9W7      0.040700
     25 HO          2.8680   -2.9780    3.3700 ho        1 9W7      0.427000
     26 H1          1.9030   -0.5190   -0.6640 hc        1 9W7      0.061200
     27 H1A         1.2890    1.1660   -0.4240 hc        1 9W7      0.061200
     28 H3          2.0130   -2.0100    1.4770 ha        1 9W7      0.149000
     29 H7          5.4670    0.1870    3.3920 ha        1 9W7      0.162000
     30 H8          7.9040    0.1150    3.9210 ha        1 9W7      0.175000
     31 H10         6.9680   -0.0800    8.1680 ha        1 9W7      0.186000
     32 H12         2.9480    2.3110    3.8330 ha        1 9W7      0.171000
@<TRIPOS>BOND
     1    1    6 1   
     2    1   22 1   
     3    1   23 1   
     4    1   24 1   
     5    2   21 1   
     6    3    9 1   
     7    3   11 1   
     8    3   17 1   
     9    4   12 1   
    10    4   25 1   
    11    5   19 1   
    12    6    8 1   
    13    6   26 1   
    14    6   27 1   
    15    7   13 1   
    16    7   14 1   
    17    8   10 ar  
    18    8   21 ar  
    19   10   12 ar  
    20   10   28 1   
    21   12   13 ar  
    22   13   20 ar  
    23   14   15 ar  
    24   14   19 ar  
    25   15   16 ar  
    26   15   29 1   
    27   16   17 ar  
    28   16   30 1   
    29   17   18 ar  
    30   18   19 ar  
    31   18   31 1   
    32   20   21 ar  
    33   20   32 1   
@<TRIPOS>SUBSTRUCTURE
     1 9W7         1 TEMP              0 ****  ****    0 ROOT
