@<TRIPOS>MOLECULE
9X3
   37    38     1     0     0
SMALL
bcc


@<TRIPOS>ATOM
      1 C10         0.1130    0.1170    0.0560 ca        1 9X3     -0.199300
      2 C01         1.4260    0.5790   -0.0880 ca        1 9X3     -0.093000
      3 N01        -0.9080   -1.6070   -1.3700 n4        1 9X3     -0.764000
      4 C02        -0.4270   -0.0870    1.3310 ca        1 9X3     -0.092000
      5 C03        -2.5340   -2.6800    5.2910 c3        1 9X3      0.126900
      6 C04         2.1940    0.8330    1.0480 ca        1 9X3     -0.118000
      7 C05        -1.9020   -1.3030    5.0530 c3        1 9X3      0.125800
      8 N          -0.8870   -1.3320    4.0030 n3        1 9X3     -0.738600
      9 C06         0.3490    0.1530    2.4680 ca        1 9X3     -0.064300
     10 C07        -0.6030   -3.7600    4.4660 c3        1 9X3      0.126900
     11 C08        -1.8010   -1.8980   -2.5110 c3        1 9X3      0.076100
     12 O          -1.5500   -3.6790    5.5220 os        1 9X3     -0.399600
     13 C11         1.6630    0.6160    2.3200 ca        1 9X3     -0.079000
     14 C           0.0760   -2.4090    4.2130 c3        1 9X3      0.125800
     15 CAK        -0.2370   -0.0360    3.8390 c3        1 9X3      0.200100
     16 CAJ        -0.7330   -0.1280   -1.1440 c3        1 9X3      0.176100
     17 H01         1.8510    0.7580   -1.0870 ha        1 9X3      0.143000
     18 H02        -1.4680   -0.4250    1.4500 ha        1 9X3      0.145000
     19 HAJ1       -1.7610    0.3160   -1.0070 hx        1 9X3      0.108200
     20 HAJ2       -0.2680    0.3080   -2.0740 hx        1 9X3      0.108200
     21 H04         3.2250    1.2070    0.9400 ha        1 9X3      0.161000
     22 HA         -1.2900   -2.0220   -0.5100 hn        1 9X3      0.455300
     23 H081       -1.8910   -3.0110   -2.6390 hx        1 9X3      0.108033
     24 H082       -1.3750   -1.4460   -3.4470 hx        1 9X3      0.108033
     25 H083       -2.8170   -1.4600   -2.3170 hx        1 9X3      0.108033
     26 H051       -2.7110   -0.5890    4.7340 h1        1 9X3      0.046450
     27 H052       -1.4740   -0.9340    6.0300 h1        1 9X3      0.046450
     28 H11         2.2810    0.8150    3.2110 ha        1 9X3      0.160000
     29 HC1         0.7590   -2.1890    5.0850 h1        1 9X3      0.046450
     30 HC2         0.7110   -2.4870    3.2890 h1        1 9X3      0.046450
     31 HAK1        0.5720    0.1290    4.6120 h1        1 9X3      0.059700
     32 HAK2       -1.0110    0.7750    3.9880 h1        1 9X3      0.059700
     33 H071        0.1510   -4.5100    4.8220 h1        1 9X3      0.056700
     34 H072       -1.1070   -4.1310    3.5350 h1        1 9X3      0.056700
     35 H031       -3.1440   -2.6650    6.2330 h1        1 9X3      0.056700
     36 H012        0.0140   -2.0270   -1.5330 hn        1 9X3      0.455300
     37 H032       -3.1750   -2.9770    4.4200 h1        1 9X3      0.056700
@<TRIPOS>BOND
     1    1    2 ar  
     2    1    4 ar  
     3    1   16 1   
     4    2    6 ar  
     5    2   17 1   
     6    3   11 1   
     7    3   16 1   
     8    3   22 1   
     9    3   36 1   
    10    4    9 ar  
    11    4   18 1   
    12    5    7 1   
    13    5   12 1   
    14    5   35 1   
    15    5   37 1   
    16    6   13 ar  
    17    6   21 1   
    18    7    8 1   
    19    7   26 1   
    20    7   27 1   
    21    8   14 1   
    22    8   15 1   
    23    9   13 ar  
    24    9   15 1   
    25   10   12 1   
    26   10   14 1   
    27   10   33 1   
    28   10   34 1   
    29   11   23 1   
    30   11   24 1   
    31   11   25 1   
    32   13   28 1   
    33   14   29 1   
    34   14   30 1   
    35   15   31 1   
    36   15   32 1   
    37   16   19 1   
    38   16   20 1   
@<TRIPOS>SUBSTRUCTURE
     1 9X3         1 TEMP              0 ****  ****    0 ROOT
