@<TRIPOS>MOLECULE
9X3
   37    38     1     0     0
SMALL
bcc


@<TRIPOS>ATOM
      1 C10         0.1250    0.1040    0.0510 ca        1 9X3     -0.199300
      2 C01         1.4420    0.5540   -0.0940 ca        1 9X3     -0.093000
      3 N01        -0.9120   -1.6170   -1.3680 ny        1 9X3     -0.764000
      4 C02        -0.4170   -0.0900    1.3270 ca        1 9X3     -0.093000
      5 C03        -2.5470   -2.6500    5.2960 c3        1 9X3      0.126900
      6 C04         2.2110    0.8060    1.0400 ca        1 9X3     -0.118000
      7 C05        -1.9030   -1.2790    5.0530 c3        1 9X3      0.125800
      8 N          -0.8880   -1.3210    4.0030 n3        1 9X3     -0.738600
      9 C06         0.3600    0.1480    2.4630 ca        1 9X3     -0.064300
     10 C07        -0.6250   -3.7490    4.4760 c3        1 9X3      0.126900
     11 C08        -1.8060   -1.9050   -2.5080 c3        1 9X3      0.076100
     12 O          -1.5710   -3.6560    5.5320 os        1 9X3     -0.399600
     13 C11         1.6780    0.5990    2.3130 ca        1 9X3     -0.079000
     14 C           0.0650   -2.4050    4.2190 c3        1 9X3      0.125800
     15 CAK        -0.2280   -0.0310    3.8340 c3        1 9X3      0.200100
     16 CAJ        -0.7230   -0.1390   -1.1480 c3        1 9X3      0.176100
     17 H01         1.8680    0.7250   -1.0950 ha        1 9X3      0.143000
     18 H02        -1.4620   -0.4190    1.4460 ha        1 9X3      0.145000
     19 HAJ1       -0.2540    0.2890   -2.0790 hx        1 9X3      0.108200
     20 HAJ2       -1.7480    0.3150   -1.0130 hx        1 9X3      0.108200
     21 H04         3.2450    1.1710    0.9310 ha        1 9X3      0.161000
     22 HA         -1.2980   -2.0260   -0.5060 hn        1 9X3      0.455300
     23 H081       -1.3760   -1.4610   -3.4460 hx        1 9X3      0.108033
     24 H082       -2.8180   -1.4560   -2.3160 hx        1 9X3      0.108033
     25 H083       -1.9070   -3.0180   -2.6310 hx        1 9X3      0.108033
     26 H051       -1.4730   -0.9090    6.0290 h1        1 9X3      0.046450
     27 H052       -2.7070   -0.5600    4.7310 h1        1 9X3      0.046450
     28 H11         2.2970    0.7960    3.2040 ha        1 9X3      0.160000
     29 HC1         0.7500   -2.1870    5.0900 h1        1 9X3      0.046450
     30 HC2         0.7000   -2.4920    3.2940 h1        1 9X3      0.046450
     31 HAK1        0.5820    0.1300    4.6070 h1        1 9X3      0.059700
     32 HAK2       -0.9950    0.7870    3.9800 h1        1 9X3      0.059700
     33 H071       -1.1320   -4.1200    3.5470 h1        1 9X3      0.056700
     34 H072        0.1230   -4.5040    4.8360 h1        1 9X3      0.056700
     35 H031       -3.1570   -2.6260    6.2380 h1        1 9X3      0.056700
     36 H012        0.0070   -2.0460   -1.5290 hn        1 9X3      0.455300
     37 H032       -3.1910   -2.9450    4.4270 h1        1 9X3      0.056700
@<TRIPOS>BOND
     1    1    2 ar  
     2    1    4 ar  
     3    1   16 1   
     4    2    6 ar  
     5    2   17 1   
     6    3   11 1   
     7    3   16 1   
     8    3   22 1   
     9    3   36 1   
    10    4    9 ar  
    11    4   18 1   
    12    5    7 1   
    13    5   12 1   
    14    5   35 1   
    15    5   37 1   
    16    6   13 ar  
    17    6   21 1   
    18    7    8 1   
    19    7   26 1   
    20    7   27 1   
    21    8   14 1   
    22    8   15 1   
    23    9   13 ar  
    24    9   15 1   
    25   10   12 1   
    26   10   14 1   
    27   10   33 1   
    28   10   34 1   
    29   11   23 1   
    30   11   24 1   
    31   11   25 1   
    32   13   28 1   
    33   14   29 1   
    34   14   30 1   
    35   15   31 1   
    36   15   32 1   
    37   16   19 1   
    38   16   20 1   
@<TRIPOS>SUBSTRUCTURE
     1 9X3         1 TEMP              0 ****  ****    0 ROOT
