@<TRIPOS>MOLECULE
9X6
   13    12     1     0     0
SMALL
bcc


@<TRIPOS>ATOM
      1 C3         -0.0060    0.0650   -0.0600 c         1 9X6      0.925600
      2 C4          1.5150    0.1250    0.1330 c3        1 9X6     -0.113300
      3 C2          3.7990   -0.0940    1.5440 c3        1 9X6     -0.113300
      4 C1          4.6380   -0.1110    2.8280 c         1 9X6      0.925600
      5 S2          2.0450   -0.0530    1.8180 ss        1 9X6     -0.304200
      6 O4         -0.6750    1.1380    0.0170 o         1 9X6     -0.859300
      7 O3         -0.5310   -1.0420   -0.3810 o         1 9X6     -0.859300
      8 O2          5.0870    0.9890    3.2710 o         1 9X6     -0.859300
      9 O1          4.9320   -1.2260    3.3520 o         1 9X6     -0.859300
     10 H41C        1.9770   -0.6870   -0.4770 h1        1 9X6      0.029200
     11 H42C        1.8780    1.1070   -0.2560 h1        1 9X6      0.029200
     12 H21C        4.0900    0.8030    0.9470 h1        1 9X6      0.029200
     13 H22C        4.0490   -1.0060    0.9520 h1        1 9X6      0.029200
@<TRIPOS>BOND
     1    1    2 1   
     2    1    6 1   
     3    1    7 1   
     4    2    5 1   
     5    2   10 1   
     6    2   11 1   
     7    3    4 1   
     8    3    5 1   
     9    3   12 1   
    10    3   13 1   
    11    4    8 1   
    12    4    9 1   
@<TRIPOS>SUBSTRUCTURE
     1 9X6         1 TEMP              0 ****  ****    0 ROOT
