@<TRIPOS>MOLECULE
9X6
   13    12     1     0     0
SMALL
bcc


@<TRIPOS>ATOM
      1 C3          0.0750    0.4000   -0.1670 c         1 9X6      0.925600
      2 C4          1.4030   -0.2160    0.2920 c3        1 9X6     -0.113300
      3 C2          3.7760   -0.2040    1.5690 c3        1 9X6     -0.113300
      4 C1          4.7640    0.2530    2.6500 c         1 9X6      0.925600
      5 S2          2.2840    0.7550    1.4900 ss        1 9X6     -0.304200
      6 O4         -0.9780    0.1380    0.4850 o         1 9X6     -0.858800
      7 O3          0.0630    1.0770   -1.2380 o         1 9X6     -0.858800
      8 O2          5.6200    1.1410    2.3600 o         1 9X6     -0.858800
      9 O1          4.7500   -0.3390    3.7700 o         1 9X6     -0.858800
     10 H41C        1.1890   -1.2190    0.7320 h1        1 9X6      0.029200
     11 H42C        2.0530   -0.3570   -0.6040 h1        1 9X6      0.029200
     12 H21C        4.2900   -0.1500    0.5800 h1        1 9X6      0.029200
     13 H22C        3.5080   -1.2690    1.7680 h1        1 9X6      0.029200
@<TRIPOS>BOND
     1    1    2 1   
     2    1    6 1   
     3    1    7 1   
     4    2    5 1   
     5    2   10 1   
     6    2   11 1   
     7    3    4 1   
     8    3    5 1   
     9    3   12 1   
    10    3   13 1   
    11    4    8 1   
    12    4    9 1   
@<TRIPOS>SUBSTRUCTURE
     1 9X6         1 TEMP              0 ****  ****    0 ROOT
