@<TRIPOS>MOLECULE
9XZ
   28    29     1     0     0
SMALL
bcc


@<TRIPOS>ATOM
      1 C1          0.0740   -1.5290    0.3380 c3        1 9XZ     -0.235000
      2 C2         -3.1530    2.3530    3.3970 c2        1 9XZ     -0.096000
      3 C3         -2.7670    0.5300    0.8500 c1        1 9XZ     -0.038000
      4 C4          1.0650   -1.9470    1.2990 c1        1 9XZ     -0.376000
      5 C5          0.6050    0.4040    1.7250 c1        1 9XZ     -0.395000
      6 C6         -0.2060    0.0090    0.5690 c3        1 9XZ     -0.025000
      7 C7         -1.5970    0.2790    0.7290 c1        1 9XZ     -0.195000
      8 C8         -4.1140    1.4360    3.2310 c2        1 9XZ     -0.091000
      9 C9         -4.7380    1.2000    1.8870 c2        1 9XZ      0.188000
     10 C10        -4.6010    0.5910    4.3100 c2        1 9XZ     -0.097000
     11 N12        -4.0890    0.7540    0.8230 n2        1 9XZ     -0.170000
     12 N13        -4.0690    0.5890    5.6460 n2        1 9XZ     -0.097000
     13 N14        -5.6050   -0.3380    4.2450 n2        1 9XZ     -0.069000
     14 N15        -4.7130   -0.2760    6.3070 n2        1 9XZ      0.027000
     15 N16        -5.6430   -0.8450    5.4910 na        1 9XZ     -0.153000
     16 N17        -6.0780    1.5500    1.7810 n3        1 9XZ     -0.332000
     17 S18         1.5340   -0.7650    2.3360 ss        1 9XZ      0.646000
     18 H1          0.4270   -1.7130   -0.7110 hc        1 9XZ      0.164500
     19 H4         -0.8700   -2.1260    0.4720 hc        1 9XZ      0.164500
     20 H2         -2.6650    2.5380    4.3640 ha        1 9XZ      0.145000
     21 H3         -2.7920    2.9670    2.5570 ha        1 9XZ      0.145000
     22 H5          0.1810    0.5840   -0.3300 hc        1 9XZ      0.161000
     23 H171       -6.5740    1.2590    0.9700 hn        1 9XZ      0.221000
     24 H172       -6.5970    1.5560    2.6270 hn        1 9XZ      0.221000
     25 H111       -7.6090   -1.5950    5.6790 h1        1 9XZ      0.112000
     26 H112       -6.4330   -2.1070    6.9900 h1        1 9XZ      0.112000
     27 H113       -6.3150   -2.8410    5.3120 h1        1 9XZ      0.112000
     28 C11        -6.5550   -1.9110    5.8930 c3        1 9XZ     -0.049000
@<TRIPOS>BOND
     1    1    4 1   
     2    1    6 1   
     3    1   18 1   
     4    1   19 1   
     5    2    8 1   
     6    2   20 1   
     7    2   21 1   
     8    3    7 1   
     9    3   11 1   
    10    4   17 1   
    11    5    6 1   
    12    5   17 1   
    13    6    7 1   
    14    6   22 1   
    15    8    9 1   
    16    8   10 1   
    17    9   11 1   
    18    9   16 1   
    19   10   12 1   
    20   10   13 1   
    21   12   14 1   
    22   13   15 1   
    23   14   15 1   
    24   15   28 1   
    25   16   23 1   
    26   16   24 1   
    27   25   28 1   
    28   26   28 1   
    29   27   28 1   
@<TRIPOS>SUBSTRUCTURE
     1 9XZ         1 TEMP              0 ****  ****    0 ROOT
