@<TRIPOS>MOLECULE
9XZ
   28    29     1     0     0
SMALL
bcc


@<TRIPOS>ATOM
      1 C1          0.2180   -1.3290   -0.3390 c3        1 9XZ     -0.100000
      2 C2         -3.4100    2.4300    3.0440 c2        1 9XZ     -0.108000
      3 C3         -2.8690   -0.0200    0.9910 c1        1 9XZ     -0.034000
      4 C4          1.6280   -1.4660   -0.0390 c1        1 9XZ     -0.683000
      5 C5          0.6210   -0.3200    1.8060 c2        1 9XZ     -0.521000
      6 C6         -0.3400   -0.5900    0.8870 c2        1 9XZ      0.039000
      7 C7         -1.6920   -0.2820    0.9470 c1        1 9XZ     -0.165000
      8 C8         -4.2700    1.4060    3.0770 c2        1 9XZ     -0.081000
      9 C9         -4.8640    0.8470    1.8170 c2        1 9XZ      0.188000
     10 C10        -4.6780    0.7470    4.3070 c2        1 9XZ     -0.101000
     11 N12        -4.1880    0.1810    0.8930 n2        1 9XZ     -0.166000
     12 N13        -4.0590    0.9540    5.5870 n2        1 9XZ     -0.097000
     13 N14        -5.6830   -0.1730    4.4560 n2        1 9XZ     -0.065000
     14 N15        -4.6560    0.2100    6.4180 n2        1 9XZ      0.027000
     15 N16        -5.6370   -0.4740    5.7660 na        1 9XZ     -0.151000
     16 N17        -6.2090    1.1320    1.6210 n8        1 9XZ     -0.331000
     17 S18         2.1620   -0.9200    1.2490 ss        1 9XZ      0.859000
     18 H1          0.0390   -0.7350   -1.2740 hc        1 9XZ      0.153000
     19 H4         -0.2870   -2.3220   -0.4650 hc        1 9XZ      0.153000
     20 H2         -2.9510    2.8510    3.9510 ha        1 9XZ      0.142500
     21 H3         -3.1140    2.9040    2.0960 ha        1 9XZ      0.142500
     22 H5          0.4930    0.1880    2.7570 h4        1 9XZ      0.168000
     23 H171       -6.6850    0.6540    0.8890 hn        1 9XZ      0.222000
     24 H172       -6.7400    1.3150    2.4390 hn        1 9XZ      0.222000
     25 H111       -6.3040   -2.4710    5.9570 h1        1 9XZ      0.112667
     26 H112       -7.5830   -1.1770    6.1930 h1        1 9XZ      0.112667
     27 H113       -6.3260   -1.4720    7.4970 h1        1 9XZ      0.112667
     28 C11        -6.5150   -1.4580    6.3920 c3        1 9XZ     -0.050000
@<TRIPOS>BOND
     1    1    4 1   
     2    1    6 1   
     3    1   18 1   
     4    1   19 1   
     5    2    8 1   
     6    2   20 1   
     7    2   21 1   
     8    3    7 1   
     9    3   11 1   
    10    4   17 1   
    11    5    6 1   
    12    5   17 1   
    13    5   22 1   
    14    6    7 1   
    15    8    9 1   
    16    8   10 1   
    17    9   11 1   
    18    9   16 1   
    19   10   12 1   
    20   10   13 1   
    21   12   14 1   
    22   13   15 1   
    23   14   15 1   
    24   15   28 1   
    25   16   23 1   
    26   16   24 1   
    27   25   28 1   
    28   26   28 1   
    29   27   28 1   
@<TRIPOS>SUBSTRUCTURE
     1 9XZ         1 TEMP              0 ****  ****    0 ROOT
