@<TRIPOS>MOLECULE
9Y9
   68    70     1     0     0
SMALL
bcc


@<TRIPOS>ATOM
      1 C1          0.9860   -1.9150   -0.5960 ca        1 9Y9     -0.192000
      2 C2          2.2710   -1.3440   -0.4690 ca        1 9Y9      0.211900
      3 C3          2.6650   -0.7850    0.7540 ca        1 9Y9     -0.205000
      4 C4          0.1440   -1.9010    0.4980 ca        1 9Y9     -0.021000
      5 F5          3.1150   -1.3420   -1.5200 f         1 9Y9     -0.112900
      6 C6          1.7940   -0.7780    1.8550 ca        1 9Y9      0.087700
      7 C7          0.5130   -1.3390    1.7400 ca        1 9Y9     -0.397500
      8 S8         -0.7280   -1.3650    2.8810 sy        1 9Y9      1.509200
      9 C9          2.3660   -0.1870    3.1010 c3        1 9Y9     -0.064100
     10 N10         0.0140   -1.6530    4.3200 n3        1 9Y9     -0.811500
     11 C11         1.3850    0.4260    4.0830 c3        1 9Y9     -0.102700
     12 C12         0.7870   -0.6450    5.0070 c3        1 9Y9      0.217800
     13 C13         2.0930    1.4500    4.9510 c3        1 9Y9     -0.091100
     14 C14        -0.3750   -2.7810    5.1190 c3        1 9Y9      0.204800
     15 O15        -1.5380   -2.5070    2.6090 o         1 9Y9     -0.655800
     16 O16        -1.4000   -0.1370    2.8980 o         1 9Y9     -0.655800
     17 C17         0.0630   -4.1430    4.5340 c3        1 9Y9      0.096100
     18 C18        -0.7440   -5.2780    5.2100 c3        1 9Y9      0.144500
     19 N19        -0.4560   -6.5880    4.5100 n4        1 9Y9     -0.648800
     20 C20        -0.4240   -5.3830    6.7080 c3        1 9Y9     -0.055100
     21 C21        -1.0710   -6.5630    7.3410 ca        1 9Y9     -0.158300
     22 C22        -0.3190   -7.7130    7.6150 ca        1 9Y9     -0.131000
     23 C23        -0.9170   -8.8090    8.2350 ca        1 9Y9     -0.114500
     24 C24        -2.2670   -8.7640    8.5870 ca        1 9Y9     -0.100000
     25 C25        -3.0180   -7.6190    8.3210 ca        1 9Y9     -0.114500
     26 C26        -2.4230   -6.5200    7.7020 ca        1 9Y9     -0.131000
     27 C27        -1.3040   -6.7400    3.2810 c         1 9Y9      0.632100
     28 O28        -2.4350   -7.2010    3.3590 o         1 9Y9     -0.438000
     29 O29        -0.6370   -6.3380    2.1960 os        1 9Y9     -0.417900
     30 O30         1.4300   -4.4310    4.7730 oh        1 9Y9     -0.622800
     31 C31        -1.3580   -6.2740    0.8870 c3        1 9Y9      0.199800
     32 C32        -1.7530   -7.6760    0.4760 c3        1 9Y9     -0.133433
     33 C33        -2.5410   -5.3400    1.0170 c3        1 9Y9     -0.133433
     34 C34        -0.2770   -5.7010   -0.0170 c3        1 9Y9     -0.133433
     35 H1          0.6710   -2.3460   -1.5580 ha        1 9Y9      0.166000
     36 H3          3.6700   -0.3400    0.8390 ha        1 9Y9      0.166000
     37 H4         -0.8650   -2.3500    0.3940 ha        1 9Y9      0.162000
     38 H9          3.1030    0.6130    2.8030 hc        1 9Y9      0.073200
     39 H9A         2.9610   -0.9920    3.6180 hc        1 9Y9      0.073200
     40 H11         0.5630    0.9600    3.5230 hc        1 9Y9      0.096700
     41 H12         0.1310   -0.1290    5.7690 h1        1 9Y9      0.052700
     42 H12A        1.6310   -1.1440    5.5660 h1        1 9Y9      0.052700
     43 H13         1.3820    1.8820    5.6980 hc        1 9Y9      0.051033
     44 H13A        2.9480    0.9860    5.4970 hc        1 9Y9      0.051033
     45 H13B        2.4840    2.2830    4.3180 hc        1 9Y9      0.051033
     46 H14         0.0630   -2.6920    6.1550 h1        1 9Y9      0.073200
     47 H14A       -1.5010   -2.7990    5.2150 h1        1 9Y9      0.073200
     48 H17        -0.1320   -4.1710    3.4180 h1        1 9Y9      0.088700
     49 H18        -1.8490   -5.0730    5.0750 hx        1 9Y9      0.121700
     50 HN19       -0.6730   -7.3650    5.1560 hn        1 9Y9      0.480800
     51 H20         0.6900   -5.4110    6.8530 hc        1 9Y9      0.093700
     52 H20A       -0.8020   -4.4380    7.1870 hc        1 9Y9      0.093700
     53 H22         0.7550   -7.7410    7.3770 ha        1 9Y9      0.137000
     54 H23        -0.3190   -9.7070    8.4590 ha        1 9Y9      0.153500
     55 H24        -2.7370   -9.6290    9.0820 ha        1 9Y9      0.156000
     56 H25        -4.0810   -7.5770    8.6070 ha        1 9Y9      0.153500
     57 H26        -3.0160   -5.6130    7.5080 ha        1 9Y9      0.137000
     58 HO30        1.9410   -3.6430    4.5430 ho        1 9Y9      0.444000
     59 H32        -2.1900   -7.6420   -0.5530 hc        1 9Y9      0.072700
     60 H32A       -0.8620   -8.3480    0.4640 hc        1 9Y9      0.072700
     61 H32B       -2.5200   -8.0950    1.1720 hc        1 9Y9      0.072700
     62 H33        -2.2310   -4.3670    1.4800 hc        1 9Y9      0.072700
     63 H33A       -2.9540   -5.1360   -0.0010 hc        1 9Y9      0.072700
     64 H33B       -3.3450   -5.8010    1.6400 hc        1 9Y9      0.072700
     65 H34         0.6590   -6.3060    0.0550 hc        1 9Y9      0.072700
     66 H34A       -0.6490   -5.7290   -1.0700 hc        1 9Y9      0.072700
     67 H34B       -0.0500   -4.6440    0.2640 hc        1 9Y9      0.072700
     68 H192        0.5410   -6.6120    4.2560 hn        1 9Y9      0.480800
@<TRIPOS>BOND
     1    1    2 ar  
     2    1    4 ar  
     3    1   35 1   
     4    2    3 ar  
     5    2    5 1   
     6    3    6 ar  
     7    3   36 1   
     8    4    7 ar  
     9    4   37 1   
    10    6    7 ar  
    11    6    9 1   
    12    7    8 1   
    13    8   10 1   
    14    8   15 2   
    15    8   16 2   
    16    9   11 1   
    17    9   38 1   
    18    9   39 1   
    19   10   12 1   
    20   10   14 1   
    21   11   12 1   
    22   11   13 1   
    23   11   40 1   
    24   12   41 1   
    25   12   42 1   
    26   13   43 1   
    27   13   44 1   
    28   13   45 1   
    29   14   17 1   
    30   14   46 1   
    31   14   47 1   
    32   17   18 1   
    33   17   30 1   
    34   17   48 1   
    35   18   19 1   
    36   18   20 1   
    37   18   49 1   
    38   19   27 1   
    39   19   50 1   
    40   19   68 1   
    41   20   21 1   
    42   20   51 1   
    43   20   52 1   
    44   21   22 ar  
    45   21   26 ar  
    46   22   23 ar  
    47   22   53 1   
    48   23   24 ar  
    49   23   54 1   
    50   24   25 ar  
    51   24   55 1   
    52   25   26 ar  
    53   25   56 1   
    54   26   57 1   
    55   27   28 2   
    56   27   29 1   
    57   29   31 1   
    58   30   58 1   
    59   31   32 1   
    60   31   33 1   
    61   31   34 1   
    62   32   59 1   
    63   32   60 1   
    64   32   61 1   
    65   33   62 1   
    66   33   63 1   
    67   33   64 1   
    68   34   65 1   
    69   34   66 1   
    70   34   67 1   
@<TRIPOS>SUBSTRUCTURE
     1 9Y9         1 TEMP              0 ****  ****    0 ROOT
