@<TRIPOS>MOLECULE
9Y9
   68    70     1     0     0
SMALL
bcc


@<TRIPOS>ATOM
      1 C1          0.9930   -1.8970   -0.5860 ca        1 9Y9     -0.192000
      2 C2          2.2730   -1.3160   -0.4530 ca        1 9Y9      0.211900
      3 C3          2.6580   -0.7540    0.7720 ca        1 9Y9     -0.205000
      4 C4          0.1460   -1.8900    0.5040 ca        1 9Y9     -0.021000
      5 F5          3.1220   -1.3060   -1.5000 f         1 9Y9     -0.112900
      6 C6          1.7820   -0.7560    1.8690 ca        1 9Y9      0.087700
      7 C7          0.5060   -1.3260    1.7480 ca        1 9Y9     -0.397500
      8 S8         -0.7400   -1.3630    2.8840 sy        1 9Y9      1.509200
      9 C9          2.3440   -0.1610    3.1180 c3        1 9Y9     -0.064100
     10 N10        -0.0030   -1.6480    4.3250 n3        1 9Y9     -0.811500
     11 C11         1.3550    0.4420    4.0980 c3        1 9Y9     -0.102700
     12 C12         0.7610   -0.6360    5.0170 c3        1 9Y9      0.217800
     13 C13         2.0500    1.4700    4.9710 c3        1 9Y9     -0.091100
     14 C14        -0.3880   -2.7800    5.1220 c3        1 9Y9      0.204800
     15 O15        -1.5410   -2.5100    2.6060 o         1 9Y9     -0.655800
     16 O16        -1.4210   -0.1400    2.8990 o         1 9Y9     -0.655800
     17 C17         0.0610   -4.1380    4.5370 c3        1 9Y9      0.097100
     18 C18        -0.7440   -5.2780    5.2060 c3        1 9Y9      0.144500
     19 N19        -0.4440   -6.5860    4.5060 ny        1 9Y9     -0.648800
     20 C20        -0.4340   -5.3840    6.7050 c3        1 9Y9     -0.055100
     21 C21        -1.0800   -6.5670    7.3330 ca        1 9Y9     -0.158300
     22 C22        -0.3250   -7.7150    7.6110 ca        1 9Y9     -0.131000
     23 C23        -0.9220   -8.8140    8.2260 ca        1 9Y9     -0.114500
     24 C24        -2.2750   -8.7750    8.5670 ca        1 9Y9     -0.100000
     25 C25        -3.0300   -7.6330    8.2960 ca        1 9Y9     -0.114500
     26 C26        -2.4350   -6.5310    7.6830 ca        1 9Y9     -0.131000
     27 C27        -1.2820   -6.7420    3.2710 c         1 9Y9      0.632100
     28 O28        -2.4110   -7.2100    3.3400 o         1 9Y9     -0.438000
     29 O29        -0.6100   -6.3340    2.1900 os        1 9Y9     -0.417900
     30 O30         1.4280   -4.4180    4.7850 oh        1 9Y9     -0.622800
     31 C31        -1.3210   -6.2720    0.8770 c3        1 9Y9      0.199800
     32 C32        -1.7040   -7.6760    0.4610 c3        1 9Y9     -0.133433
     33 C33        -2.5110   -5.3460    0.9990 c3        1 9Y9     -0.133433
     34 C34        -0.2380   -5.6910   -0.0190 c3        1 9Y9     -0.133433
     35 H1          0.6860   -2.3290   -1.5500 ha        1 9Y9      0.166000
     36 H3          3.6590   -0.3020    0.8620 ha        1 9Y9      0.166000
     37 H4         -0.8580   -2.3460    0.3950 ha        1 9Y9      0.162000
     38 H9          2.9450   -0.9610    3.6360 hc        1 9Y9      0.073200
     39 H9A         3.0740    0.6460    2.8240 hc        1 9Y9      0.073200
     40 H11         0.5300    0.9700    3.5360 hc        1 9Y9      0.096700
     41 H12         0.0990   -0.1270    5.7790 h1        1 9Y9      0.052700
     42 H12A        1.6070   -1.1310    5.5770 h1        1 9Y9      0.052700
     43 H13         2.9070    1.0100    5.5200 hc        1 9Y9      0.051033
     44 H13A        2.4380    2.3070    4.3410 hc        1 9Y9      0.051033
     45 H13B        1.3340    1.8940    5.7150 hc        1 9Y9      0.051033
     46 H14        -1.5140   -2.8040    5.2120 h1        1 9Y9      0.073200
     47 H14A        0.0450   -2.6890    6.1600 h1        1 9Y9      0.073200
     48 H17        -0.1260   -4.1650    3.4200 h1        1 9Y9      0.088700
     49 H18        -1.8490   -5.0800    5.0620 hx        1 9Y9      0.121700
     50 HN19        0.5550   -6.6040    4.2590 hn        1 9Y9      0.480800
     51 H20        -0.8200   -4.4410    7.1830 hc        1 9Y9      0.093700
     52 H20A        0.6790   -5.4070    6.8580 hc        1 9Y9      0.093700
     53 H22         0.7510   -7.7370    7.3810 ha        1 9Y9      0.137000
     54 H23        -0.3220   -9.7090    8.4530 ha        1 9Y9      0.153500
     55 H24        -2.7450   -9.6430    9.0570 ha        1 9Y9      0.156000
     56 H25        -4.0950   -7.5970    8.5740 ha        1 9Y9      0.153500
     57 H26        -3.0310   -5.6270    7.4850 ha        1 9Y9      0.137000
     58 HO30        1.9360   -3.6280    4.5580 ho        1 9Y9      0.444000
     59 H32        -0.8090   -8.3420    0.4540 hc        1 9Y9      0.072700
     60 H32A       -2.4730   -8.1010    1.1510 hc        1 9Y9      0.072700
     61 H32B       -2.1350   -7.6440   -0.5700 hc        1 9Y9      0.072700
     62 H33        -2.9180   -5.1430   -0.0210 hc        1 9Y9      0.072700
     63 H33A       -3.3180   -5.8140    1.6150 hc        1 9Y9      0.072700
     64 H33B       -2.2120   -4.3720    1.4660 hc        1 9Y9      0.072700
     65 H34        -0.6020   -5.7220   -1.0750 hc        1 9Y9      0.072700
     66 H34A       -0.0210   -4.6330    0.2650 hc        1 9Y9      0.072700
     67 H34B        0.7010   -6.2890    0.0600 hc        1 9Y9      0.072700
     68 H192       -0.6610   -7.3640    5.1490 hn        1 9Y9      0.480800
@<TRIPOS>BOND
     1    1    2 ar  
     2    1    4 ar  
     3    1   35 1   
     4    2    3 ar  
     5    2    5 1   
     6    3    6 ar  
     7    3   36 1   
     8    4    7 ar  
     9    4   37 1   
    10    6    7 ar  
    11    6    9 1   
    12    7    8 1   
    13    8   10 1   
    14    8   15 2   
    15    8   16 2   
    16    9   11 1   
    17    9   38 1   
    18    9   39 1   
    19   10   12 1   
    20   10   14 1   
    21   11   12 1   
    22   11   13 1   
    23   11   40 1   
    24   12   41 1   
    25   12   42 1   
    26   13   43 1   
    27   13   44 1   
    28   13   45 1   
    29   14   17 1   
    30   14   46 1   
    31   14   47 1   
    32   17   18 1   
    33   17   30 1   
    34   17   48 1   
    35   18   19 1   
    36   18   20 1   
    37   18   49 1   
    38   19   27 1   
    39   19   50 1   
    40   19   68 1   
    41   20   21 1   
    42   20   51 1   
    43   20   52 1   
    44   21   22 ar  
    45   21   26 ar  
    46   22   23 ar  
    47   22   53 1   
    48   23   24 ar  
    49   23   54 1   
    50   24   25 ar  
    51   24   55 1   
    52   25   26 ar  
    53   25   56 1   
    54   26   57 1   
    55   27   28 2   
    56   27   29 1   
    57   29   31 1   
    58   30   58 1   
    59   31   32 1   
    60   31   33 1   
    61   31   34 1   
    62   32   59 1   
    63   32   60 1   
    64   32   61 1   
    65   33   62 1   
    66   33   63 1   
    67   33   64 1   
    68   34   65 1   
    69   34   66 1   
    70   34   67 1   
@<TRIPOS>SUBSTRUCTURE
     1 9Y9         1 TEMP              0 ****  ****    0 ROOT
