@<TRIPOS>MOLECULE
9Y9
   67    63     1     0     0
SMALL
bcc


@<TRIPOS>ATOM
      1 C1          2.6040    3.6840    4.9790 c1        1 9Y9     -0.114000
      2 C2          2.8120    4.9410    4.4270 c1        1 9Y9      0.151000
      3 C3          2.7090    5.1250    3.0400 c1        1 9Y9     -0.207000
      4 C4          2.2910    2.5980    4.1510 c1        1 9Y9     -0.114000
      5 F5          3.0350    6.0020    5.2320 f         1 9Y9     -0.098000
      6 C6          2.3940    4.0320    2.2050 c1        1 9Y9      0.084000
      7 C7          2.1870    2.7810    2.7550 c1        1 9Y9     -0.809000
      8 S8          2.7040    1.4950    1.6270 s4        1 9Y9      2.062800
      9 C9          1.6650    4.1690    0.8510 c3        1 9Y9     -0.142000
     10 N10         1.5040    1.3550    0.5050 n2        1 9Y9     -0.824000
     11 C11         2.4460    3.4850   -0.2560 c3        1 9Y9     -0.144000
     12 C12         1.7830    2.1700   -0.6580 c3        1 9Y9     -0.019000
     13 C13         2.5050    4.4010   -1.4630 c3        1 9Y9     -0.205000
     14 C14         0.3330    0.4740    0.6450 c3        1 9Y9     -0.006000
     15 O15         2.9740    0.2160    2.2270 o         1 9Y9     -0.536900
     16 O16         3.9640    1.8660    1.0480 o         1 9Y9     -0.536900
     17 C17         0.6070   -0.8530   -0.0520 c3        1 9Y9      0.004000
     18 C18        -0.6200   -1.7400    0.0460 c3        1 9Y9     -0.004000
     19 N19        -0.5120   -2.8050   -0.8980 n         1 9Y9     -0.340000
     20 C20        -0.7210   -2.3160    1.4500 c3        1 9Y9     -0.138000
     21 C21        -2.1680   -2.1130    1.9930 c2        1 9Y9     -0.088000
     22 C22        -2.9720   -3.2220    2.2650 c2        1 9Y9     -0.133000
     23 C23        -4.2360   -3.0450    2.8280 c1        1 9Y9     -0.125000
     24 C24        -4.6970   -1.7610    3.1200 c1        1 9Y9     -0.114000
     25 C25        -3.8960   -0.6550    2.8500 c1        1 9Y9     -0.114000
     26 C26        -2.6290   -0.8310    2.2850 c1        1 9Y9     -0.124000
     27 C27        -1.3320   -2.8030   -2.0840 c2        1 9Y9      0.389000
     28 O28        -2.2980   -2.0730   -2.1500 o         1 9Y9     -0.409000
     29 O29        -1.0750   -3.7720   -3.1480 os        1 9Y9     -0.285000
     30 O30         1.6950   -1.4890    0.5650 oh        1 9Y9     -0.318000
     31 C31        -1.3520   -3.2760   -4.4690 c3        1 9Y9      0.114000
     32 C32        -2.8380   -3.3410   -4.7290 c3        1 9Y9     -0.231667
     33 C33        -0.8770   -1.8200   -4.5790 c3        1 9Y9     -0.231667
     34 C34        -0.6130   -4.1370   -5.5060 c3        1 9Y9     -0.231667
     35 H1          2.6770    3.5560    5.9460 ha        1 9Y9      0.148750
     36 H3          2.8560    6.0150    2.6510 ha        1 9Y9      0.152000
     37 H4          2.1440    1.7100    4.5410 ha        1 9Y9      0.148750
     38 H9          1.5620    5.1320    0.6310 hc        1 9Y9      0.104500
     39 H9A         0.7830    3.7610    0.9190 hc        1 9Y9      0.104500
     40 H11         3.3510    3.3060    0.0530 hc        1 9Y9      0.129000
     41 H12         0.9390    2.3630   -1.1270 h1        1 9Y9      0.097000
     42 H12A        2.3830    1.6770   -1.2630 h1        1 9Y9      0.097000
     43 H13         2.8840    3.9130   -2.2250 hc        1 9Y9      0.081333
     44 H13A        3.0820    5.1920   -1.2530 hc        1 9Y9      0.081333
     45 H13B        1.6030    4.7040   -1.6870 hc        1 9Y9      0.081333
     46 H14        -0.4420    0.8980    0.2400 h1        1 9Y9      0.106500
     47 H14A        0.1590    0.3150    1.5850 h1        1 9Y9      0.106500
     48 H17         0.8170   -0.6880   -0.9960 h1        1 9Y9      0.107000
     49 H18        -1.4130   -1.2170   -0.1470 h1        1 9Y9      0.099000
     50 HN19        0.0900   -3.4830   -0.7580 hn        1 9Y9      0.238000
     51 H20        -0.5130   -3.2760    1.4250 hc        1 9Y9      0.113500
     52 H20A       -0.0800   -1.8560    2.0420 hc        1 9Y9      0.113500
     53 H22        -2.6480   -4.1280    2.0590 ha        1 9Y9      0.134000
     54 H23        -4.8000   -3.8240    3.0180 ha        1 9Y9      0.135000
     55 H24        -5.5820   -1.6380    3.5140 ha        1 9Y9      0.148750
     56 H25        -4.2200    0.2450    3.0550 ha        1 9Y9      0.148750
     57 H26        -2.0630   -0.0500    2.0940 ha        1 9Y9      0.132000
     58 HO30        2.2330   -1.8360   -0.0630 ho        1 9Y9      0.211000
     59 H32        -3.1820   -4.1940   -4.4250 hc        1 9Y9      0.091444
     60 H32A       -3.2870   -2.6160   -4.2440 hc        1 9Y9      0.091444
     61 H32B       -3.0060   -3.2450   -5.6950 hc        1 9Y9      0.091444
     62 H33        -0.0740   -1.6980   -4.0370 hc        1 9Y9      0.091444
     63 H33A       -1.5950   -1.2110   -4.2520 hc        1 9Y9      0.091444
     64 H33B       -0.6720   -1.6110   -5.5240 hc        1 9Y9      0.091444
     65 H34        -0.7080   -3.7310   -6.3960 hc        1 9Y9      0.091444
     66 H34A       -0.9960   -5.0330   -5.5150 hc        1 9Y9      0.091444
     67 H34B        0.3460   -4.1900   -5.2680 hc        1 9Y9      0.091444
@<TRIPOS>BOND
     1    1    4 1   
     2    1   35 1   
     3    2    3 1   
     4    2    5 1   
     5    3   36 1   
     6    4   37 1   
     7    6    7 1   
     8    6    9 1   
     9    7    8 1   
    10    8   15 1   
    11    8   16 1   
    12    9   11 1   
    13    9   38 1   
    14    9   39 1   
    15   10   12 1   
    16   10   14 1   
    17   11   12 1   
    18   11   13 1   
    19   11   40 1   
    20   12   41 1   
    21   12   42 1   
    22   13   43 1   
    23   13   44 1   
    24   13   45 1   
    25   14   17 1   
    26   14   46 1   
    27   14   47 1   
    28   17   18 1   
    29   17   30 1   
    30   17   48 1   
    31   18   19 1   
    32   18   20 1   
    33   18   49 1   
    34   19   27 1   
    35   19   50 1   
    36   20   21 1   
    37   20   51 1   
    38   20   52 1   
    39   21   22 1   
    40   21   26 1   
    41   22   23 1   
    42   22   53 1   
    43   23   54 1   
    44   24   25 1   
    45   24   55 1   
    46   25   56 1   
    47   26   57 1   
    48   27   28 1   
    49   27   29 1   
    50   29   31 1   
    51   30   58 1   
    52   31   32 1   
    53   31   33 1   
    54   31   34 1   
    55   32   59 1   
    56   32   60 1   
    57   32   61 1   
    58   33   62 1   
    59   33   63 1   
    60   33   64 1   
    61   34   65 1   
    62   34   66 1   
    63   34   67 1   
@<TRIPOS>SUBSTRUCTURE
     1 9Y9         1 TEMP              0 ****  ****    0 ROOT
