@<TRIPOS>MOLECULE
9Y9
   68    70     1     0     0
SMALL
bcc


@<TRIPOS>ATOM
      1 C1          0.9340   -1.8940   -0.5980 ca        1 9Y9     -0.192000
      2 C2          2.2010   -1.2860   -0.4710 ca        1 9Y9      0.211900
      3 C3          2.5780   -0.7120    0.7510 ca        1 9Y9     -0.205000
      4 C4          0.0900   -1.9010    0.4950 ca        1 9Y9     -0.021000
      5 F5          3.0460   -1.2620   -1.5220 f         1 9Y9     -0.112900
      6 C6          1.7060   -0.7280    1.8500 ca        1 9Y9      0.087700
      7 C7          0.4420   -1.3250    1.7360 ca        1 9Y9     -0.397500
      8 S8         -0.7990   -1.3840    2.8750 sy        1 9Y9      1.509200
      9 C9          2.2590   -0.1170    3.0950 c3        1 9Y9     -0.064100
     10 N10        -0.0510   -1.6470    4.3150 n3        1 9Y9     -0.811500
     11 C11         1.2610    0.4690    4.0750 c3        1 9Y9     -0.102700
     12 C12         0.6930   -0.6170    5.0010 c3        1 9Y9      0.217800
     13 C13         1.9380    1.5150    4.9420 c3        1 9Y9     -0.091100
     14 C14        -0.4090   -2.7840    5.1170 c3        1 9Y9      0.204800
     15 O15        -1.5770   -2.5490    2.6050 o         1 9Y9     -0.655800
     16 O16        -1.5060   -0.1750    2.8890 o         1 9Y9     -0.655800
     17 C17         0.0660   -4.1350    4.5360 c3        1 9Y9      0.097100
     18 C18        -0.7110   -5.2900    5.2130 c3        1 9Y9      0.144500
     19 N19        -0.3860   -6.5930    4.5170 n4        1 9Y9     -0.648800
     20 C20        -0.3940   -5.3830    6.7110 c3        1 9Y9     -0.055100
     21 C21        -1.0110   -6.5770    7.3460 ca        1 9Y9     -0.158300
     22 C22        -0.2310   -7.7070    7.6260 ca        1 9Y9     -0.131000
     23 C23        -0.8010   -8.8160    8.2470 ca        1 9Y9     -0.114500
     24 C24        -2.1530   -8.8060    8.5930 ca        1 9Y9     -0.100000
     25 C25        -2.9330   -7.6810    8.3210 ca        1 9Y9     -0.114500
     26 C26        -2.3650   -6.5690    7.7020 ca        1 9Y9     -0.131000
     27 C27        -1.2260   -6.7710    3.2850 c         1 9Y9      0.632100
     28 O28        -2.3430   -7.2630    3.3610 o         1 9Y9     -0.438000
     29 O29        -0.5660   -6.3540    2.2010 os        1 9Y9     -0.417900
     30 O30         1.4400   -4.3850    4.7800 oh        1 9Y9     -0.622800
     31 C31        -1.2840   -6.3120    0.8900 c3        1 9Y9      0.199800
     32 C32        -1.6390   -7.7260    0.4810 c3        1 9Y9     -0.133433
     33 C33        -2.4930   -5.4110    1.0140 c3        1 9Y9     -0.133433
     34 C34        -0.2170   -5.7120   -0.0120 c3        1 9Y9     -0.133433
     35 H1          0.6320   -2.3370   -1.5590 ha        1 9Y9      0.166000
     36 H3          3.5700   -0.2390    0.8350 ha        1 9Y9      0.166000
     37 H4         -0.9050   -2.3790    0.3910 ha        1 9Y9      0.162000
     38 H9          2.8780   -0.9030    3.6140 hc        1 9Y9      0.073200
     39 H9A         2.9720    0.7040    2.7960 hc        1 9Y9      0.073200
     40 H11         0.4240    0.9780    3.5140 hc        1 9Y9      0.096700
     41 H12         1.5510   -1.0910    5.5610 h1        1 9Y9      0.052700
     42 H12A        0.0220   -0.1190    5.7620 h1        1 9Y9      0.052700
     43 H13         1.2140    1.9270    5.6870 hc        1 9Y9      0.051033
     44 H13A        2.8060    1.0760    5.4900 hc        1 9Y9      0.051033
     45 H13B        2.3050    2.3580    4.3080 hc        1 9Y9      0.051033
     46 H14         0.0250   -2.6800    6.1540 h1        1 9Y9      0.073200
     47 H14A       -1.5350   -2.8330    5.2110 h1        1 9Y9      0.073200
     48 H17        -0.1240   -4.1700    3.4200 h1        1 9Y9      0.088700
     49 H18        -1.8210   -5.1150    5.0730 hx        1 9Y9      0.121700
     50 HN19        0.6130   -6.5910    4.2660 hn        1 9Y9      0.480800
     51 H20         0.7210   -5.3810    6.8600 hc        1 9Y9      0.093700
     52 H20A       -0.7980   -4.4470    7.1870 hc        1 9Y9      0.093700
     53 H22         0.8450   -7.7070    7.3910 ha        1 9Y9      0.137000
     54 H23        -0.1810   -9.6970    8.4750 ha        1 9Y9      0.153500
     55 H24        -2.6020   -9.6810    9.0890 ha        1 9Y9      0.156000
     56 H25        -3.9980   -7.6670    8.6030 ha        1 9Y9      0.153500
     57 H26        -2.9810   -5.6790    7.5030 ha        1 9Y9      0.137000
     58 HO30        1.9300   -3.5840    4.5480 ho        1 9Y9      0.444000
     59 H32        -0.7290   -8.3730    0.4730 hc        1 9Y9      0.072700
     60 H32A       -2.0740   -7.7070   -0.5490 hc        1 9Y9      0.072700
     61 H32B       -2.3960   -8.1650    1.1760 hc        1 9Y9      0.072700
     62 H33        -3.2870   -5.8940    1.6350 hc        1 9Y9      0.072700
     63 H33A       -2.9090   -5.2210   -0.0060 hc        1 9Y9      0.072700
     64 H33B       -2.2120   -4.4290    1.4760 hc        1 9Y9      0.072700
     65 H34        -0.5840   -5.7540   -1.0670 hc        1 9Y9      0.072700
     66 H34A       -0.0210   -4.6480    0.2670 hc        1 9Y9      0.072700
     67 H34B        0.7350   -6.2900    0.0650 hc        1 9Y9      0.072700
     68 H192       -0.5840   -7.3740    5.1640 hn        1 9Y9      0.480800
@<TRIPOS>BOND
     1    1    2 ar  
     2    1    4 ar  
     3    1   35 1   
     4    2    3 ar  
     5    2    5 1   
     6    3    6 ar  
     7    3   36 1   
     8    4    7 ar  
     9    4   37 1   
    10    6    7 ar  
    11    6    9 1   
    12    7    8 1   
    13    8   10 1   
    14    8   15 2   
    15    8   16 2   
    16    9   11 1   
    17    9   38 1   
    18    9   39 1   
    19   10   12 1   
    20   10   14 1   
    21   11   12 1   
    22   11   13 1   
    23   11   40 1   
    24   12   41 1   
    25   12   42 1   
    26   13   43 1   
    27   13   44 1   
    28   13   45 1   
    29   14   17 1   
    30   14   46 1   
    31   14   47 1   
    32   17   18 1   
    33   17   30 1   
    34   17   48 1   
    35   18   19 1   
    36   18   20 1   
    37   18   49 1   
    38   19   27 1   
    39   19   50 1   
    40   19   68 1   
    41   20   21 1   
    42   20   51 1   
    43   20   52 1   
    44   21   22 ar  
    45   21   26 ar  
    46   22   23 ar  
    47   22   53 1   
    48   23   24 ar  
    49   23   54 1   
    50   24   25 ar  
    51   24   55 1   
    52   25   26 ar  
    53   25   56 1   
    54   26   57 1   
    55   27   28 2   
    56   27   29 1   
    57   29   31 1   
    58   30   58 1   
    59   31   32 1   
    60   31   33 1   
    61   31   34 1   
    62   32   59 1   
    63   32   60 1   
    64   32   61 1   
    65   33   62 1   
    66   33   63 1   
    67   33   64 1   
    68   34   65 1   
    69   34   66 1   
    70   34   67 1   
@<TRIPOS>SUBSTRUCTURE
     1 9Y9         1 TEMP              0 ****  ****    0 ROOT
