@<TRIPOS>MOLECULE
9Y9
   67    69     1     0     0
SMALL
bcc


@<TRIPOS>ATOM
      1 C1          2.7930    2.1900    2.7760 ca        1 9Y9     -0.189000
      2 C2          3.0550    3.0350    1.6790 ca        1 9Y9      0.191900
      3 C3          3.2180    2.4900    0.3980 ca        1 9Y9     -0.207000
      4 C4          2.7150    0.8260    2.5570 ca        1 9Y9     -0.008000
      5 F5          3.1450    4.3710    1.8610 f         1 9Y9     -0.130900
      6 C6          3.1300    1.1040    0.1950 ca        1 9Y9      0.078700
      7 C7          2.8900    0.2520    1.2830 ca        1 9Y9     -0.378500
      8 S8          2.8390   -1.4450    1.2730 sy        1 9Y9      1.502200
      9 C9          3.2460    0.6600   -1.2270 c3        1 9Y9     -0.061100
     10 N10         2.1200   -1.8260   -0.1380 n3        1 9Y9     -0.804500
     11 C11         3.9060   -0.6880   -1.4610 c3        1 9Y9     -0.103700
     12 C12         2.8810   -1.8330   -1.3620 c3        1 9Y9      0.211800
     13 C13         4.5360   -0.7340   -2.8380 c3        1 9Y9     -0.086100
     14 C14         0.7360   -2.1930   -0.2270 c3        1 9Y9      0.199800
     15 O15         2.0200   -1.8690    2.3490 o         1 9Y9     -0.652300
     16 O16         4.1590   -1.9380    1.3020 o         1 9Y9     -0.652300
     17 C17        -0.1630   -1.1940   -0.9870 c3        1 9Y9      0.081100
     18 C18        -1.6310   -1.2770   -0.4790 c3        1 9Y9      0.071700
     19 N19        -2.4640   -0.2540   -1.0740 n         1 9Y9     -0.516900
     20 C20        -2.2090   -2.6820   -0.7370 c3        1 9Y9     -0.041100
     21 C21        -3.5030   -2.8970   -0.0370 ca        1 9Y9     -0.079300
     22 C22        -4.6940   -3.0090   -0.7620 ca        1 9Y9     -0.119500
     23 C23        -5.9010   -3.2320   -0.1010 ca        1 9Y9     -0.126500
     24 C24        -5.9280   -3.3440    1.2890 ca        1 9Y9     -0.127000
     25 C25        -4.7430   -3.2320    2.0180 ca        1 9Y9     -0.126500
     26 C26        -3.5360   -3.0110    1.3590 ca        1 9Y9     -0.119500
     27 C27        -2.6080    0.9660   -0.4290 c         1 9Y9      0.740100
     28 O28        -2.3610    1.2180    0.7620 o         1 9Y9     -0.589000
     29 O29        -3.1160    1.9260   -1.2710 os        1 9Y9     -0.448900
     30 O30        -0.0890   -1.3890   -2.3880 oh        1 9Y9     -0.598800
     31 C31        -3.6090    3.1720   -0.7110 c3        1 9Y9      0.185800
     32 C32        -4.6960    2.9120    0.3180 c3        1 9Y9     -0.114100
     33 C33        -2.4640    3.9810   -0.1240 c3        1 9Y9     -0.114100
     34 C34        -4.1900    3.8820   -1.9330 c3        1 9Y9     -0.114100
     35 H1          2.6540    2.6170    3.7790 ha        1 9Y9      0.160000
     36 H3          3.4130    3.1650   -0.4490 ha        1 9Y9      0.153000
     37 H4          2.4960    0.1620    3.4170 ha        1 9Y9      0.169000
     38 H9          2.2080    0.6480   -1.6670 hc        1 9Y9      0.069200
     39 H9A         3.8270    1.4380   -1.7980 hc        1 9Y9      0.069200
     40 H11         4.7210   -0.8490   -0.6970 hc        1 9Y9      0.088700
     41 H12         3.4370   -2.8130   -1.4420 h1        1 9Y9      0.061700
     42 H12A        2.1770   -1.7590   -2.2420 h1        1 9Y9      0.061700
     43 H13         5.3580    0.0180   -2.9100 hc        1 9Y9      0.042033
     44 H13A        4.9660   -1.7470   -3.0300 hc        1 9Y9      0.042033
     45 H13B        3.7790   -0.5120   -3.6280 hc        1 9Y9      0.042033
     46 H14         0.6620   -3.1950   -0.7440 h1        1 9Y9      0.068700
     47 H14A        0.3330   -2.3110    0.8230 h1        1 9Y9      0.068700
     48 H17         0.2120   -0.1380   -0.8470 h1        1 9Y9      0.093700
     49 H18        -1.6130   -1.0990    0.6400 h1        1 9Y9      0.105700
     50 HN19       -2.5060   -0.2450   -2.0700 hn        1 9Y9      0.319500
     51 H20        -2.3350   -2.8480   -1.8410 hc        1 9Y9      0.051700
     52 H20A       -1.4640   -3.4350   -0.3630 hc        1 9Y9      0.051700
     53 H22        -4.6810   -2.9170   -1.8580 ha        1 9Y9      0.131000
     54 H23        -6.8330   -3.3180   -0.6780 ha        1 9Y9      0.132500
     55 H24        -6.8800   -3.5190    1.8100 ha        1 9Y9      0.132000
     56 H25        -4.7610   -3.3170    3.1140 ha        1 9Y9      0.132500
     57 H26        -2.6030   -2.9200    1.9370 ha        1 9Y9      0.131000
     58 HO30       -0.3630   -2.2960   -2.5720 ho        1 9Y9      0.401000
     59 H32        -4.2640    2.4340    1.2310 hc        1 9Y9      0.052033
     60 H32A       -5.1730    3.8780    0.6050 hc        1 9Y9      0.052033
     61 H32B       -5.4740    2.2340   -0.1090 hc        1 9Y9      0.052033
     62 H33        -1.6390    4.0740   -0.8700 hc        1 9Y9      0.052033
     63 H33A       -2.8300    5.0000    0.1440 hc        1 9Y9      0.052033
     64 H33B       -2.0660    3.4850    0.7940 hc        1 9Y9      0.052033
     65 H34        -5.0120    3.2730   -2.3770 hc        1 9Y9      0.052033
     66 H34A       -4.5920    4.8740   -1.6200 hc        1 9Y9      0.052033
     67 H34B       -3.3980    4.0310   -2.7040 hc        1 9Y9      0.052033
@<TRIPOS>BOND
     1    1    2 ar  
     2    1    4 ar  
     3    1   35 1   
     4    2    3 ar  
     5    2    5 1   
     6    3    6 ar  
     7    3   36 1   
     8    4    7 ar  
     9    4   37 1   
    10    6    7 ar  
    11    6    9 1   
    12    7    8 1   
    13    8   10 1   
    14    8   15 2   
    15    8   16 2   
    16    9   11 1   
    17    9   38 1   
    18    9   39 1   
    19   10   12 1   
    20   10   14 1   
    21   11   12 1   
    22   11   13 1   
    23   11   40 1   
    24   12   41 1   
    25   12   42 1   
    26   13   43 1   
    27   13   44 1   
    28   13   45 1   
    29   14   17 1   
    30   14   46 1   
    31   14   47 1   
    32   17   18 1   
    33   17   30 1   
    34   17   48 1   
    35   18   19 1   
    36   18   20 1   
    37   18   49 1   
    38   19   27 1   
    39   19   50 1   
    40   20   21 1   
    41   20   51 1   
    42   20   52 1   
    43   21   22 ar  
    44   21   26 ar  
    45   22   23 ar  
    46   22   53 1   
    47   23   24 ar  
    48   23   54 1   
    49   24   25 ar  
    50   24   55 1   
    51   25   26 ar  
    52   25   56 1   
    53   26   57 1   
    54   27   28 2   
    55   27   29 1   
    56   29   31 1   
    57   30   58 1   
    58   31   32 1   
    59   31   33 1   
    60   31   34 1   
    61   32   59 1   
    62   32   60 1   
    63   32   61 1   
    64   33   62 1   
    65   33   63 1   
    66   33   64 1   
    67   34   65 1   
    68   34   66 1   
    69   34   67 1   
@<TRIPOS>SUBSTRUCTURE
     1 9Y9         1 TEMP              0 ****  ****    0 ROOT
