@<TRIPOS>MOLECULE
9Z0
   25    25     1     0     0
SMALL
bcc


@<TRIPOS>ATOM
      1 O01         0.0520   -0.0290    0.1150 o         1 9Z0     -0.426100
      2 C02         1.2650   -0.0200   -0.0530 c         1 9Z0      0.594700
      3 N03         2.1130   -0.0070    1.2150 ny        1 9Z0     -0.679800
      4 C04         1.2920   -0.0080    2.4650 c3        1 9Z0      0.107800
      5 C05         2.1570    0.0060    3.7130 c3        1 9Z0     -0.123400
      6 C06         1.2580    0.0030    4.9470 c3        1 9Z0      0.143400
      7 O07         2.1400    0.0160    6.0530 oh        1 9Z0     -0.592800
      8 C08         1.9760   -0.0210   -1.2980 cc        1 9Z0     -0.282900
      9 C09         1.3290   -0.0350   -2.5670 cd        1 9Z0      0.017000
     10 C10         2.3450   -0.0330   -3.5590 cd        1 9Z0     -0.106900
     11 Br1         2.1230   -0.0460   -5.3720 br        1 9Z0      0.049900
     12 C12         3.5970   -0.0170   -2.8760 cc        1 9Z0      0.048800
     13 Br2         5.2800   -0.0060   -3.6230 br        1 9Z0      0.075900
     14 N14         3.3670   -0.0100   -1.5140 na        1 9Z0     -0.151100
     15 H03         2.7200   -0.8330    1.2170 hn        1 9Z0      0.451800
     16 H041        0.6360   -0.9270    2.4430 hx        1 9Z0      0.118200
     17 H042        0.6200    0.8990    2.4350 hx        1 9Z0      0.118200
     18 H051        2.8250   -0.8950    3.7570 hc        1 9Z0      0.079700
     19 H052        2.8090    0.9180    3.7480 hc        1 9Z0      0.079700
     20 H061        0.6170   -0.9180    4.9670 h1        1 9Z0      0.040700
     21 H062        0.6000    0.9140    4.9580 h1        1 9Z0      0.040700
     22 H07         1.5930    0.0150    6.8500 ho        1 9Z0      0.430000
     23 H09         0.2480   -0.0460   -2.7240 ha        1 9Z0      0.206000
     24 H14         4.0730    0.0020   -0.8220 hn        1 9Z0      0.309700
     25 H032        2.7050    0.8300    1.2090 hn        1 9Z0      0.451800
@<TRIPOS>BOND
     1    1    2 2   
     2    2    3 1   
     3    2    8 1   
     4    3    4 1   
     5    3   15 1   
     6    3   25 1   
     7    4    5 1   
     8    4   16 1   
     9    4   17 1   
    10    5    6 1   
    11    5   18 1   
    12    5   19 1   
    13    6    7 1   
    14    6   20 1   
    15    6   21 1   
    16    7   22 1   
    17    8    9 2   
    18    8   14 1   
    19    9   10 1   
    20    9   23 1   
    21   10   11 1   
    22   10   12 2   
    23   12   13 1   
    24   12   14 1   
    25   14   24 1   
@<TRIPOS>SUBSTRUCTURE
     1 9Z0         1 TEMP              0 ****  ****    0 ROOT
