@<TRIPOS>MOLECULE
9Z0
   25    25     1     0     0
SMALL
bcc


@<TRIPOS>ATOM
      1 O01         0.0520   -0.0270    0.1150 o         1 9Z0     -0.426100
      2 C02         1.2660   -0.0190   -0.0530 c         1 9Z0      0.594700
      3 N03         2.1130   -0.0060    1.2150 n4        1 9Z0     -0.679800
      4 C04         1.2910   -0.0070    2.4640 c3        1 9Z0      0.107800
      5 C05         2.1560    0.0060    3.7130 c3        1 9Z0     -0.123400
      6 C06         1.2570    0.0040    4.9460 c3        1 9Z0      0.143400
      7 O07         2.1380    0.0160    6.0530 oh        1 9Z0     -0.592800
      8 C08         1.9770   -0.0220   -1.2980 cc        1 9Z0     -0.282900
      9 C09         1.3300   -0.0360   -2.5670 cd        1 9Z0      0.017000
     10 C10         2.3460   -0.0340   -3.5590 cd        1 9Z0     -0.106900
     11 BR1         2.1250   -0.0490   -5.3720 br        1 9Z0      0.049900
     12 C12         3.5980   -0.0190   -2.8760 cc        1 9Z0      0.048800
     13 BR2         5.2820   -0.0090   -3.6220 br        1 9Z0      0.075900
     14 N14         3.3680   -0.0110   -1.5140 na        1 9Z0     -0.151100
     15 H03         2.7200   -0.8320    1.2170 hn        1 9Z0      0.451800
     16 H041        0.6350   -0.9250    2.4430 hx        1 9Z0      0.118200
     17 H042        0.6200    0.9000    2.4340 hx        1 9Z0      0.118200
     18 H051        2.8240   -0.8940    3.7570 hc        1 9Z0      0.079700
     19 H052        2.8090    0.9180    3.7490 hc        1 9Z0      0.079700
     20 H061        0.6000    0.9150    4.9580 h1        1 9Z0      0.040700
     21 H062        0.6150   -0.9170    4.9660 h1        1 9Z0      0.040700
     22 H07         1.5920    0.0150    6.8500 ho        1 9Z0      0.430000
     23 H09         0.2490   -0.0460   -2.7250 ha        1 9Z0      0.206000
     24 H14         4.0730    0.0010   -0.8220 hn        1 9Z0      0.309700
     25 H032        2.7050    0.8310    1.2090 hn        1 9Z0      0.451800
@<TRIPOS>BOND
     1    1    2 2   
     2    2    3 1   
     3    2    8 1   
     4    3    4 1   
     5    3   15 1   
     6    3   25 1   
     7    4    5 1   
     8    4   16 1   
     9    4   17 1   
    10    5    6 1   
    11    5   18 1   
    12    5   19 1   
    13    6    7 1   
    14    6   20 1   
    15    6   21 1   
    16    7   22 1   
    17    8    9 2   
    18    8   14 1   
    19    9   10 1   
    20    9   23 1   
    21   10   11 1   
    22   10   12 2   
    23   12   13 1   
    24   12   14 1   
    25   14   24 1   
@<TRIPOS>SUBSTRUCTURE
     1 9Z0         1 TEMP              0 ****  ****    0 ROOT
