@<TRIPOS>MOLECULE
9Z8
   41    41     1     0     0
SMALL
bcc


@<TRIPOS>ATOM
      1 O01         1.3040    2.3900   -0.7550 o         1 9Z8     -0.384100
      2 C02         1.6640    1.3130   -0.3140 c         1 9Z8      0.545100
      3 C03         1.6680    0.8560    1.1110 c3        1 9Z8     -0.123300
      4 S04         1.4060   -0.8690    1.2950 sh        1 9Z8     -0.293900
      5 N05         2.1970    0.3010   -1.3160 n4        1 9Z8     -0.689800
      6 C06         1.7260    0.5500   -2.7090 c3        1 9Z8      0.104800
      7 C07         2.3540   -0.3990   -3.7240 c3        1 9Z8     -0.105400
      8 C08         1.8390   -0.0640   -5.1130 c3        1 9Z8     -0.077400
      9 C09         2.4520   -0.9970   -6.1380 c3        1 9Z8     -0.083400
     10 C10         1.9430   -0.6760   -7.5340 c3        1 9Z8     -0.147400
     11 C11         2.5310   -1.6350   -8.5280 c         1 9Z8      0.549100
     12 O12         3.3100   -2.5520   -8.3260 o         1 9Z8     -0.400100
     13 N13         2.1030   -1.4560   -9.9750 n4        1 9Z8     -0.544200
     14 C14         2.8480   -0.3790  -10.6350 ca        1 9Z8     -0.077400
     15 C15         4.2080   -0.5680  -10.9400 ca        1 9Z8     -0.103500
     16 C16         4.8970    0.4420  -11.6080 ca        1 9Z8     -0.099000
     17 C17         4.2470    1.6230  -11.9710 ca        1 9Z8     -0.061000
     18 C18         2.8960    1.8020  -11.6650 ca        1 9Z8     -0.099000
     19 C19         2.1850    0.8080  -10.9970 ca        1 9Z8     -0.103500
     20 H031        0.9260    1.4840    1.6780 h1        1 9Z8      0.162200
     21 H032        2.6800    1.0890    1.5540 h1        1 9Z8      0.162200
     22 H05         1.8970   -0.6420   -0.9950 hn        1 9Z8      0.472300
     23 H061        1.9760    1.6210   -2.9720 hx        1 9Z8      0.115200
     24 H062        0.6040    0.4410   -2.7140 hx        1 9Z8      0.115200
     25 H071        2.0970   -1.4640   -3.4760 hc        1 9Z8      0.073200
     26 H072        3.4730   -0.3050   -3.7090 hc        1 9Z8      0.073200
     27 H081        0.7200   -0.1580   -5.1340 hc        1 9Z8      0.063700
     28 H082        2.0940    0.9990   -5.3650 hc        1 9Z8      0.063700
     29 H091        2.2040   -2.0620   -5.8840 hc        1 9Z8      0.077700
     30 H092        3.5710   -0.9040   -6.1200 hc        1 9Z8      0.077700
     31 H101        0.8210   -0.7510   -7.5610 hc        1 9Z8      0.105700
     32 H102        2.2290    0.3730   -7.8220 hc        1 9Z8      0.105700
     33 H13         2.2860   -2.3340  -10.4880 hn        1 9Z8      0.467800
     34 H15         4.7330   -1.4990  -10.6680 ha        1 9Z8      0.159000
     35 H19         1.1150    0.9620  -10.7810 ha        1 9Z8      0.159000
     36 H16         5.9640    0.2980  -11.8560 ha        1 9Z8      0.179500
     37 H17         4.8000    2.4140  -12.5090 ha        1 9Z8      0.181000
     38 H18         2.3810    2.7330  -11.9610 ha        1 9Z8      0.179500
     39 H32         0.1140   -0.8930    1.6240 hs        1 9Z8      0.259800
     40 H052        3.2230    0.3330   -1.2920 hn        1 9Z8      0.472300
     41 H132        1.0990   -1.2500  -10.0160 hn        1 9Z8      0.467800
@<TRIPOS>BOND
     1    1    2 2   
     2    2    3 1   
     3    2    5 1   
     4    3    4 1   
     5    3   20 1   
     6    3   21 1   
     7    4   39 1   
     8    5    6 1   
     9    5   22 1   
    10    5   40 1   
    11    6    7 1   
    12    6   23 1   
    13    6   24 1   
    14    7    8 1   
    15    7   25 1   
    16    7   26 1   
    17    8    9 1   
    18    8   27 1   
    19    8   28 1   
    20    9   10 1   
    21    9   29 1   
    22    9   30 1   
    23   10   11 1   
    24   10   31 1   
    25   10   32 1   
    26   11   12 2   
    27   11   13 1   
    28   13   14 1   
    29   13   33 1   
    30   13   41 1   
    31   14   15 ar  
    32   14   19 ar  
    33   15   16 ar  
    34   15   34 1   
    35   16   17 ar  
    36   16   36 1   
    37   17   18 ar  
    38   17   37 1   
    39   18   19 ar  
    40   18   38 1   
    41   19   35 1   
@<TRIPOS>SUBSTRUCTURE
     1 9Z8         1 TEMP              0 ****  ****    0 ROOT
