@<TRIPOS>MOLECULE
9Z8
   40    40     1     0     0
SMALL
bcc


@<TRIPOS>ATOM
      1 O01         0.0030   -1.1440   -0.0270 o         1 9Z8     -0.389100
      2 C02         1.0530   -0.5630    0.1930 c         1 9Z8      0.537100
      3 C03         1.5130    0.0040    1.5020 c3        1 9Z8     -0.125300
      4 S04         2.5640    1.3990    1.3490 sh        1 9Z8     -0.286900
      5 N05         2.0190   -0.4100   -0.9590 ny        1 9Z8     -0.685800
      6 C06         1.3410   -0.3500   -2.2890 c3        1 9Z8      0.105800
      7 C07         2.3360   -0.2670   -3.4390 c3        1 9Z8     -0.107400
      8 C08         1.5830   -0.2110   -4.7550 c3        1 9Z8     -0.077400
      9 C09         2.5630   -0.1140   -5.9040 c3        1 9Z8     -0.075400
     10 C10         1.8460   -0.0640   -7.2360 c3        1 9Z8     -0.157400
     11 C11         2.8650    0.0560   -8.3670 c         1 9Z8      0.664100
     12 O12         4.0820    0.1230   -8.1140 o         1 9Z8     -0.595100
     13 N13         2.3380    0.0840   -9.6440 ns        1 9Z8     -0.463100
     14 C14         3.0390    0.1890  -10.8610 ca        1 9Z8      0.054600
     15 C15         4.4440    0.2790  -10.9390 ca        1 9Z8     -0.164500
     16 C16         5.0660    0.3800  -12.1820 ca        1 9Z8     -0.102500
     17 C17         4.3210    0.3940  -13.3580 ca        1 9Z8     -0.145000
     18 C18         2.9300    0.3040  -13.2900 ca        1 9Z8     -0.102500
     19 C19         2.2880    0.2030  -12.0620 ca        1 9Z8     -0.164500
     20 H031        0.6010    0.2010    2.1310 h1        1 9Z8      0.156200
     21 H032        2.1040   -0.7930    2.0400 h1        1 9Z8      0.156200
     22 H05         2.6670   -1.2060   -0.9500 hn        1 9Z8      0.471300
     23 H061        0.6980   -1.2730   -2.3940 hx        1 9Z8      0.111700
     24 H062        0.6660    0.5530   -2.2890 hx        1 9Z8      0.111700
     25 H071        2.9780    0.6490   -3.3390 hc        1 9Z8      0.070200
     26 H072        3.0140   -1.1620   -3.4390 hc        1 9Z8      0.070200
     27 H081        0.9490   -1.1300   -4.8700 hc        1 9Z8      0.054700
     28 H082        0.8960    0.6760   -4.7640 hc        1 9Z8      0.054700
     29 H091        3.1990    0.8050   -5.7930 hc        1 9Z8      0.069200
     30 H092        3.2600   -0.9940   -5.8940 hc        1 9Z8      0.069200
     31 H101        1.1520    0.8180   -7.2680 hc        1 9Z8      0.067700
     32 H102        1.2340   -0.9930   -7.3800 hc        1 9Z8      0.067700
     33 H13         1.3480    0.0230   -9.7290 hn        1 9Z8      0.315500
     34 H15         5.0640    0.2710  -10.0280 ha        1 9Z8      0.148500
     35 H19         1.1890    0.1330  -12.0370 ha        1 9Z8      0.148500
     36 H16         6.1640    0.4510  -12.2260 ha        1 9Z8      0.138500
     37 H17         4.8220    0.4740  -14.3330 ha        1 9Z8      0.140000
     38 H18         2.3330    0.3140  -14.2140 ha        1 9Z8      0.138500
     39 H32         1.6840    2.3880    1.4870 hs        1 9Z8      0.247800
     40 H052        2.5690    0.4580   -0.8020 hn        1 9Z8      0.471300
@<TRIPOS>BOND
     1    1    2 2   
     2    2    3 1   
     3    2    5 1   
     4    3    4 1   
     5    3   20 1   
     6    3   21 1   
     7    4   39 1   
     8    5    6 1   
     9    5   22 1   
    10    5   40 1   
    11    6    7 1   
    12    6   23 1   
    13    6   24 1   
    14    7    8 1   
    15    7   25 1   
    16    7   26 1   
    17    8    9 1   
    18    8   27 1   
    19    8   28 1   
    20    9   10 1   
    21    9   29 1   
    22    9   30 1   
    23   10   11 1   
    24   10   31 1   
    25   10   32 1   
    26   11   12 2   
    27   11   13 1   
    28   13   14 1   
    29   13   33 1   
    30   14   15 ar  
    31   14   19 ar  
    32   15   16 ar  
    33   15   34 1   
    34   16   17 ar  
    35   16   36 1   
    36   17   18 ar  
    37   17   37 1   
    38   18   19 ar  
    39   18   38 1   
    40   19   35 1   
@<TRIPOS>SUBSTRUCTURE
     1 9Z8         1 TEMP              0 ****  ****    0 ROOT
