@<TRIPOS>MOLECULE
9Z8
   40    40     1     0     0
SMALL
bcc


@<TRIPOS>ATOM
      1 O01         0.4620   -1.8040    0.4100 o         1 9Z8     -0.389100
      2 C02         1.0210   -0.7420    0.1910 c         1 9Z8      0.539100
      3 C03         0.8300    0.5570    0.9090 c3        1 9Z8     -0.118300
      4 S04         2.3020    1.5020    1.0480 sh        1 9Z8     -0.289900
      5 N05         2.0260   -0.7350   -0.9380 n4        1 9Z8     -0.686800
      6 C06         1.3650   -0.4740   -2.2540 c3        1 9Z8      0.109800
      7 C07         2.3570   -0.4820   -3.4100 c3        1 9Z8     -0.108400
      8 C08         1.6200   -0.2200   -4.7100 c3        1 9Z8     -0.078400
      9 C09         2.6010   -0.2130   -5.8630 c3        1 9Z8     -0.075400
     10 C10         1.9000    0.0380   -7.1810 c3        1 9Z8     -0.157400
     11 C11         2.9240    0.0580   -8.3140 c         1 9Z8      0.664100
     12 O12         4.1360   -0.0950   -8.0710 o         1 9Z8     -0.594100
     13 N13         2.4080    0.2530   -9.5800 n         1 9Z8     -0.462100
     14 C14         3.1160    0.3180  -10.7970 ca        1 9Z8      0.054600
     15 C15         4.5150    0.1680  -10.8860 ca        1 9Z8     -0.164500
     16 C16         5.1440    0.2440  -12.1270 ca        1 9Z8     -0.102500
     17 C17         4.4120    0.4680  -13.2900 ca        1 9Z8     -0.145000
     18 C18         3.0270    0.6170  -13.2100 ca        1 9Z8     -0.102500
     19 C19         2.3770    0.5450  -11.9840 ca        1 9Z8     -0.164500
     20 H031        0.3470    0.3370    1.9000 h1        1 9Z8      0.153700
     21 H032        0.0950    1.1820    0.3240 h1        1 9Z8      0.153700
     22 H05         2.7320    0.0010   -0.7450 hn        1 9Z8      0.471800
     23 H061        0.5830   -1.2730   -2.4080 hx        1 9Z8      0.106700
     24 H062        0.8540    0.5290   -2.1900 hx        1 9Z8      0.106700
     25 H071        2.8790   -1.4740   -3.4730 hc        1 9Z8      0.072700
     26 H072        3.1400    0.3090   -3.2610 hc        1 9Z8      0.072700
     27 H081        1.0890    0.7670   -4.6560 hc        1 9Z8      0.053700
     28 H082        0.8440   -1.0130   -4.8750 hc        1 9Z8      0.053700
     29 H091        3.3810    0.5800   -5.7030 hc        1 9Z8      0.070200
     30 H092        3.1440   -1.1940   -5.9150 hc        1 9Z8      0.070200
     31 H101        1.3620    1.0220   -7.1510 hc        1 9Z8      0.066700
     32 H102        1.1430   -0.7670   -7.3740 hc        1 9Z8      0.066700
     33 H13         1.4210    0.3660   -9.6580 hn        1 9Z8      0.315500
     34 H15         5.1240   -0.0100   -9.9860 ha        1 9Z8      0.148500
     35 H19         1.2840    0.6670  -11.9500 ha        1 9Z8      0.148500
     36 H16         6.2370    0.1250  -12.1800 ha        1 9Z8      0.138500
     37 H17         4.9190    0.5260  -14.2640 ha        1 9Z8      0.141000
     38 H18         2.4400    0.7940  -14.1240 ha        1 9Z8      0.138500
     39 H32         2.7250    1.1260    2.2530 hs        1 9Z8      0.249800
     40 H052        2.4990   -1.6460   -0.9810 hn        1 9Z8      0.471800
@<TRIPOS>BOND
     1    1    2 2   
     2    2    3 1   
     3    2    5 1   
     4    3    4 1   
     5    3   20 1   
     6    3   21 1   
     7    4   39 1   
     8    5    6 1   
     9    5   22 1   
    10    5   40 1   
    11    6    7 1   
    12    6   23 1   
    13    6   24 1   
    14    7    8 1   
    15    7   25 1   
    16    7   26 1   
    17    8    9 1   
    18    8   27 1   
    19    8   28 1   
    20    9   10 1   
    21    9   29 1   
    22    9   30 1   
    23   10   11 1   
    24   10   31 1   
    25   10   32 1   
    26   11   12 2   
    27   11   13 1   
    28   13   14 1   
    29   13   33 1   
    30   14   15 ar  
    31   14   19 ar  
    32   15   16 ar  
    33   15   34 1   
    34   16   17 ar  
    35   16   36 1   
    36   17   18 ar  
    37   17   37 1   
    38   18   19 ar  
    39   18   38 1   
    40   19   35 1   
@<TRIPOS>SUBSTRUCTURE
     1 9Z8         1 TEMP              0 ****  ****    0 ROOT
