@<TRIPOS>MOLECULE
9ZE
   23    24     1     0     0
SMALL
bcc


@<TRIPOS>ATOM
      1 C1         -0.0020    0.0180    0.0130 ca        1 9ZE     -0.073000
      2 C2          1.3870    0.0550   -0.0150 ca        1 9ZE     -0.139000
      3 C3         -0.7040   -0.0280    1.2280 ca        1 9ZE     -0.181600
      4 C4          2.0910    0.0430    1.1970 ca        1 9ZE      0.087100
      5 C5         -0.0040   -0.0510    2.4380 ca        1 9ZE     -0.081000
      6 C6          1.3930   -0.0180    2.4180 ca        1 9ZE      0.035100
      7 O7          3.4720    0.0560    1.1350 os        1 9ZE     -0.312900
      8 C8          4.0990    0.3670    2.3850 c3        1 9ZE      0.089400
      9 O9          2.0490   -0.0120    3.6410 os        1 9ZE     -0.315900
     10 C10         3.4320   -0.3650    3.5380 c3        1 9ZE      0.090400
     11 C11        -2.1830   -0.0570    1.1940 c         1 9ZE      0.579700
     12 C12        -2.9030   -0.0680    2.5050 c3        1 9ZE     -0.198100
     13 O13        -2.8040   -0.0700    0.1220 o         1 9ZE     -0.538100
     14 H1         -0.5740    0.0280   -0.9310 ha        1 9ZE      0.162000
     15 H2          1.9400    0.0930   -0.9640 ha        1 9ZE      0.157000
     16 H3         -0.5220   -0.0920    3.4080 ha        1 9ZE      0.153000
     17 H4          4.0530    1.4770    2.5390 h1        1 9ZE      0.072700
     18 H5          5.1600    0.0320    2.2440 h1        1 9ZE      0.072700
     19 H6          3.8650   -0.0550    4.5240 h1        1 9ZE      0.072200
     20 H7          3.5130   -1.4750    3.4030 h1        1 9ZE      0.072200
     21 H8         -2.6270    0.8370    3.1000 hc        1 9ZE      0.065367
     22 H9         -4.0080   -0.0670    2.3390 hc        1 9ZE      0.065367
     23 H10        -2.6260   -0.9820    3.0840 hc        1 9ZE      0.065367
@<TRIPOS>BOND
     1    1    2 ar  
     2    1    3 ar  
     3    1   14 1   
     4    2    4 ar  
     5    2   15 1   
     6    3    5 ar  
     7    3   11 1   
     8    4    6 ar  
     9    4    7 1   
    10    5    6 ar  
    11    5   16 1   
    12    6    9 1   
    13    7    8 1   
    14    8   10 1   
    15    8   17 1   
    16    8   18 1   
    17    9   10 1   
    18   10   19 1   
    19   10   20 1   
    20   11   12 1   
    21   11   13 2   
    22   12   21 1   
    23   12   22 1   
    24   12   23 1   
@<TRIPOS>SUBSTRUCTURE
     1 9ZE         1 TEMP              0 ****  ****    0 ROOT
