@<TRIPOS>MOLECULE
9ZP
   68    73     1     0     0
SMALL
bcc


@<TRIPOS>ATOM
      1 N2          0.4950    0.2130    0.3100 n4        1 9ZP     -0.646800
      2 C3          1.5530   -0.2150   -0.6180 cx        1 9ZP      0.001500
      3 C4          2.3980   -1.4350   -0.3140 cx        1 9ZP     -0.103900
      4 C5          1.4100   -1.4800   -1.4390 cx        1 9ZP     -0.103900
      5 C6         -0.4130    1.2800   -0.3140 c         1 9ZP      0.591700
      6 O7          0.1830    2.2310   -0.8050 o         1 9ZP     -0.447100
      7 C8         -1.8350    1.0160   -0.2570 ca        1 9ZP     -0.249600
      8 C9         -2.6340    1.6350   -1.2420 ca        1 9ZP     -0.087000
      9 C10        -4.0010    1.4210   -1.2720 ca        1 9ZP      0.050100
     10 O11        -4.8330    1.9710   -2.2290 os        1 9ZP     -0.332900
     11 C12        -4.3070    3.0660   -2.9770 c3        1 9ZP      0.111700
     12 C13        -4.6490    0.5600   -0.3040 ca        1 9ZP      0.274600
     13 C14        -3.8190    0.0090    0.7070 ca        1 9ZP     -0.167000
     14 C15        -2.4530    0.2260    0.7230 ca        1 9ZP     -0.066000
     15 N16        -6.0070    0.3740   -0.3810 nh        1 9ZP     -0.701300
     16 C18        -6.7710   -0.6690    0.2100 ca        1 9ZP      0.862900
     17 N19        -8.1380   -0.4710    0.1600 nb        1 9ZP     -0.759000
     18 C20        -8.9370   -1.4550    0.6550 ca        1 9ZP      0.681200
     19 C21        -8.3490   -2.6520    1.2510 ca        1 9ZP     -0.148000
     20 C22        -6.9410   -2.7180    1.2600 ca        1 9ZP      0.436200
     21 N23        -6.1400   -1.7640    0.7530 nb        1 9ZP     -0.744000
     22 N24        -9.1490   -3.7300    1.6570 nh        1 9ZP     -0.555000
     23 C25        -8.8230   -4.4420    2.8750 c2        1 9ZP      0.467100
     24 N26        -9.8670   -4.6800    3.6490 n2        1 9ZP     -0.440400
     25 N27       -11.0040   -4.1970    3.0730 nh        1 9ZP     -0.475300
     26 C28       -10.6190   -3.4820    1.7990 c3        1 9ZP      0.356700
     27 C29       -11.0390   -1.9800    1.6920 c3        1 9ZP      0.173500
     28 C31       -10.8660   -1.2100    3.0150 c3        1 9ZP     -0.118400
     29 C32       -12.1820   -1.0120    3.7240 c3        1 9ZP     -0.101100
     30 N33       -10.3390   -1.3780    0.5570 nh        1 9ZP     -0.730300
     31 C34       -10.9530   -0.2090   -0.0720 c3        1 9ZP      0.217500
     32 C35       -10.4960    0.0300   -1.5330 c3        1 9ZP     -0.081900
     33 C36       -11.6960    0.5820   -2.2920 c3        1 9ZP     -0.081400
     34 C37       -12.8680    0.6320   -1.3230 c3        1 9ZP     -0.081400
     35 C38       -12.4960   -0.2670   -0.1560 c3        1 9ZP     -0.081900
     36 H2         -0.0680   -0.5960    0.5900 hn        1 9ZP      0.452300
     37 H3          2.0350    0.6800   -1.0810 hx        1 9ZP      0.158700
     38 H41C        2.2040   -2.0340    0.5950 hc        1 9ZP      0.108700
     39 H42C        3.4820   -1.3700   -0.5350 hc        1 9ZP      0.108700
     40 H51C        0.5060   -2.1100   -1.3360 hc        1 9ZP      0.108700
     41 H52C        1.7650   -1.4470   -2.4870 hc        1 9ZP      0.108700
     42 H9         -2.1510    2.2860   -1.9900 ha        1 9ZP      0.168000
     43 H15        -1.8800   -0.2080    1.5580 ha        1 9ZP      0.123000
     44 H121       -3.9090    3.8590   -2.2990 h1        1 9ZP      0.058033
     45 H122       -3.5160    2.7070   -3.6800 h1        1 9ZP      0.058033
     46 H123       -5.1990    3.4360   -3.5450 h1        1 9ZP      0.058033
     47 H14        -4.2580   -0.5960    1.5180 ha        1 9ZP      0.187000
     48 H16        -6.5060    0.9630   -1.0250 hn        1 9ZP      0.486800
     49 H22        -6.4100   -3.5920    1.6840 h4        1 9ZP      0.037100
     50 H25        -7.8050   -4.8060    3.0610 h5        1 9ZP      0.074800
     51 H28       -11.1170   -4.0560    0.9600 h2        1 9ZP      0.122700
     52 H27       -11.5140   -3.6160    3.7240 hn        1 9ZP      0.397800
     53 H29       -12.1420   -1.9980    1.4400 h1        1 9ZP      0.097700
     54 H311      -10.1390   -1.7370    3.6870 hc        1 9ZP      0.055200
     55 H312      -10.4220   -0.1960    2.8160 hc        1 9ZP      0.055200
     56 H321      -12.8610   -0.3670    3.1130 hc        1 9ZP      0.045367
     57 H322      -12.0120   -0.5080    4.7070 hc        1 9ZP      0.045367
     58 H323      -12.7070   -1.9780    3.9140 hc        1 9ZP      0.045367
     59 H34       -10.6790    0.7090    0.5330 h1        1 9ZP      0.046700
     60 H351      -10.1380   -0.9170   -2.0070 hc        1 9ZP      0.054450
     61 H352       -9.6550    0.7660   -1.5540 hc        1 9ZP      0.054450
     62 H381      -12.8540   -1.3070   -0.3660 hc        1 9ZP      0.054450
     63 H382      -12.9590    0.0830    0.7980 hc        1 9ZP      0.054450
     64 H361      -11.4760    1.6000   -2.6980 hc        1 9ZP      0.050450
     65 H362      -11.9380   -0.0780   -3.1630 hc        1 9ZP      0.050450
     66 H371      -13.8130    0.2850   -1.8080 hc        1 9ZP      0.050450
     67 H372      -13.0370    1.6810   -0.9680 hc        1 9ZP      0.050450
     68 H221        0.9440    0.6120    1.1430 hn        1 9ZP      0.452300
@<TRIPOS>BOND
     1    1    2 1   
     2    1    5 1   
     3    1   36 1   
     4    1   68 1   
     5    2    3 1   
     6    2    4 1   
     7    2   37 1   
     8    3    4 1   
     9    3   38 1   
    10    3   39 1   
    11    4   40 1   
    12    4   41 1   
    13    5    6 2   
    14    5    7 1   
    15    7    8 ar  
    16    7   14 ar  
    17    8    9 ar  
    18    8   42 1   
    19    9   10 1   
    20    9   12 ar  
    21   10   11 1   
    22   11   44 1   
    23   11   45 1   
    24   11   46 1   
    25   12   13 ar  
    26   12   15 1   
    27   13   14 ar  
    28   13   47 1   
    29   14   43 1   
    30   15   16 1   
    31   15   48 1   
    32   16   17 ar  
    33   16   21 ar  
    34   17   18 ar  
    35   18   19 ar  
    36   18   30 1   
    37   19   20 ar  
    38   19   22 1   
    39   20   21 ar  
    40   20   49 1   
    41   22   23 1   
    42   22   26 1   
    43   23   24 2   
    44   23   50 1   
    45   24   25 1   
    46   25   26 1   
    47   25   52 1   
    48   26   27 1   
    49   26   51 1   
    50   27   28 1   
    51   27   30 1   
    52   27   53 1   
    53   28   29 1   
    54   28   54 1   
    55   28   55 1   
    56   29   56 1   
    57   29   57 1   
    58   29   58 1   
    59   30   31 1   
    60   31   32 1   
    61   31   35 1   
    62   31   59 1   
    63   32   33 1   
    64   32   60 1   
    65   32   61 1   
    66   33   34 1   
    67   33   64 1   
    68   33   65 1   
    69   34   35 1   
    70   34   66 1   
    71   34   67 1   
    72   35   62 1   
    73   35   63 1   
@<TRIPOS>SUBSTRUCTURE
     1 9ZP         1 TEMP              0 ****  ****    0 ROOT
