@<TRIPOS>MOLECULE
9ZP
   69    74     1     0     0
SMALL
bcc


@<TRIPOS>ATOM
      1 N2         -0.0850    0.6420    0.8160 n4        1 9ZP     -0.636800
      2 C3          1.1180   -0.0750    0.3470 cx        1 9ZP     -0.016500
      3 C4          1.7960   -1.0960    1.2400 cx        1 9ZP     -0.094900
      4 C5          1.0720   -1.5520    0.0110 cx        1 9ZP     -0.094900
      5 C6         -0.7380    1.4310   -0.3000 c         1 9ZP      0.560700
      6 O7         -0.0260    2.2210   -0.8990 o         1 9ZP     -0.373100
      7 C8         -2.1680    1.1600   -0.5540 ca        1 9ZP     -0.108600
      8 C9         -2.5860    1.1760   -1.8870 ca        1 9ZP     -0.127000
      9 C10        -3.9430    0.9870   -2.1930 ca        1 9ZP      0.184100
     10 O11        -4.4570    0.9980   -3.4590 os        1 9ZP     -0.337900
     11 C12        -3.5440    1.1820   -4.5520 c3        1 9ZP      0.111700
     12 C13        -4.8800    0.7890   -1.1400 ca        1 9ZP     -0.006400
     13 C14        -4.4350    0.7770    0.1910 ca        1 9ZP     -0.036000
     14 C15        -3.0860    0.9650    0.4840 ca        1 9ZP     -0.131000
     15 N16        -6.2980    0.6180   -1.4570 n4        1 9ZP     -0.600100
     16 C18        -6.9580   -0.5140   -0.7250 ca        1 9ZP      0.660900
     17 N19        -8.2340   -0.2380   -0.3010 nb        1 9ZP     -0.735000
     18 C20        -8.9280   -1.2730    0.2580 ca        1 9ZP      0.677200
     19 C21        -8.2740   -2.5900    0.4070 ca        1 9ZP     -0.042000
     20 C22        -6.9280   -2.6850   -0.0140 ca        1 9ZP      0.383200
     21 N23        -6.2520   -1.6690   -0.5910 nb        1 9ZP     -0.664000
     22 N24        -9.0060   -3.6930    0.8050 nh        1 9ZP     -0.571000
     23 C25        -8.4480   -4.7350    1.6440 c2        1 9ZP      0.462100
     24 N26        -9.2860   -5.1460    2.5780 n2        1 9ZP     -0.392400
     25 N27       -10.4810   -4.5070    2.4690 nh        1 9ZP     -0.470300
     26 C28       -10.3780   -3.4870    1.3650 c3        1 9ZP      0.363700
     27 C29       -10.6880   -2.0020    1.7410 c3        1 9ZP      0.174500
     28 C31       -10.1160   -1.5990    3.1140 c3        1 9ZP     -0.113400
     29 C32       -11.1870   -1.5830    4.1770 c3        1 9ZP     -0.106100
     30 N33       -10.2560   -1.1330    0.6460 nh        1 9ZP     -0.727300
     31 C34       -10.9680    0.1250    0.4160 c3        1 9ZP      0.217500
     32 C35       -10.9800    0.5870   -1.0620 c3        1 9ZP     -0.083400
     33 C36       -12.3030    1.3110   -1.2880 c3        1 9ZP     -0.082900
     34 C37       -13.0970    1.2260    0.0070 c3        1 9ZP     -0.082900
     35 C38       -12.4590    0.1140    0.8240 c3        1 9ZP     -0.083400
     36 H2          0.2120    1.2990    1.5530 hn        1 9ZP      0.463800
     37 H3          1.7500    0.6090   -0.2710 hx        1 9ZP      0.164700
     38 H41C        2.9050   -1.0930    1.2600 hc        1 9ZP      0.116700
     39 H42C        1.3750   -1.3370    2.2340 hc        1 9ZP      0.116700
     40 H51C        1.6470   -1.8890   -0.8750 hc        1 9ZP      0.116700
     41 H52C        0.1300   -2.1210    0.1240 hc        1 9ZP      0.116700
     42 H9         -1.8560    1.3510   -2.6980 ha        1 9ZP      0.193000
     43 H15        -2.7800    0.9870    1.5420 ha        1 9ZP      0.159000
     44 H121       -3.0520    2.1820   -4.4760 h1        1 9ZP      0.081033
     45 H122       -4.2240    1.1350   -5.4440 h1        1 9ZP      0.081033
     46 H123       -2.7970    0.3530   -4.5740 h1        1 9ZP      0.081033
     47 H14        -5.1510    0.6190    1.0190 ha        1 9ZP      0.186000
     48 H16        -6.7950    1.4970   -1.2380 hn        1 9ZP      0.487800
     49 H22        -6.3560   -3.6290    0.0800 h4        1 9ZP      0.062100
     50 H25        -7.4610   -5.1670    1.4370 h5        1 9ZP      0.087800
     51 H28       -11.1060   -3.8230    0.5640 h2        1 9ZP      0.137700
     52 H27       -10.7850   -4.1350    3.3580 hn        1 9ZP      0.419800
     53 H29       -11.8170   -1.9420    1.8010 h1        1 9ZP      0.117700
     54 H311       -9.2840   -2.2880    3.4120 hc        1 9ZP      0.052200
     55 H312       -9.6660   -0.5700    3.0590 hc        1 9ZP      0.052200
     56 H321      -10.7290   -1.3520    5.1700 hc        1 9ZP      0.054367
     57 H322      -11.7150   -2.5630    4.2580 hc        1 9ZP      0.054367
     58 H323      -11.9500   -0.7980    3.9520 hc        1 9ZP      0.054367
     59 H34       -10.4530    0.9250    1.0300 h1        1 9ZP      0.051700
     60 H351      -10.8880   -0.2810   -1.7610 hc        1 9ZP      0.053700
     61 H352      -10.1260    1.2800   -1.2560 hc        1 9ZP      0.053700
     62 H381      -12.9500   -0.8570    0.5570 hc        1 9ZP      0.053700
     63 H382      -12.5750    0.2860    1.9210 hc        1 9ZP      0.053700
     64 H361      -12.8670    0.8290   -2.1260 hc        1 9ZP      0.061700
     65 H362      -12.1280    2.3770   -1.5760 hc        1 9ZP      0.061700
     66 H371      -14.1760    1.0070   -0.1890 hc        1 9ZP      0.061700
     67 H372      -13.0460    2.1970    0.5630 hc        1 9ZP      0.061700
     68 H221       -0.7560   -0.0230    1.2140 hn        1 9ZP      0.463800
     69 H162       -6.3990    0.4210   -2.4680 hn        1 9ZP      0.487800
@<TRIPOS>BOND
     1    1    2 1   
     2    1    5 1   
     3    1   36 1   
     4    1   68 1   
     5    2    3 1   
     6    2    4 1   
     7    2   37 1   
     8    3    4 1   
     9    3   38 1   
    10    3   39 1   
    11    4   40 1   
    12    4   41 1   
    13    5    6 2   
    14    5    7 1   
    15    7    8 ar  
    16    7   14 ar  
    17    8    9 ar  
    18    8   42 1   
    19    9   10 1   
    20    9   12 ar  
    21   10   11 1   
    22   11   44 1   
    23   11   45 1   
    24   11   46 1   
    25   12   13 ar  
    26   12   15 1   
    27   13   14 ar  
    28   13   47 1   
    29   14   43 1   
    30   15   16 1   
    31   15   48 1   
    32   15   69 1   
    33   16   17 ar  
    34   16   21 ar  
    35   17   18 ar  
    36   18   19 ar  
    37   18   30 1   
    38   19   20 ar  
    39   19   22 1   
    40   20   21 ar  
    41   20   49 1   
    42   22   23 1   
    43   22   26 1   
    44   23   24 2   
    45   23   50 1   
    46   24   25 1   
    47   25   26 1   
    48   25   52 1   
    49   26   27 1   
    50   26   51 1   
    51   27   28 1   
    52   27   30 1   
    53   27   53 1   
    54   28   29 1   
    55   28   54 1   
    56   28   55 1   
    57   29   56 1   
    58   29   57 1   
    59   29   58 1   
    60   30   31 1   
    61   31   32 1   
    62   31   35 1   
    63   31   59 1   
    64   32   33 1   
    65   32   60 1   
    66   32   61 1   
    67   33   34 1   
    68   33   64 1   
    69   33   65 1   
    70   34   35 1   
    71   34   66 1   
    72   34   67 1   
    73   35   62 1   
    74   35   63 1   
@<TRIPOS>SUBSTRUCTURE
     1 9ZP         1 TEMP              0 ****  ****    0 ROOT
