@<TRIPOS>MOLECULE
9ZP
   67    67     1     0     0
SMALL
bcc


@<TRIPOS>ATOM
      1 N2         -1.1810    7.3750   -1.7840 n         1 9ZP     -0.352000
      2 C3         -1.1980    8.7900   -1.5170 cx        1 9ZP     -0.023000
      3 C4          0.0670    9.3600   -0.8980 cx        1 9ZP     -0.233000
      4 C5         -0.2530    9.6320   -2.3590 cx        1 9ZP     -0.233000
      5 C6         -0.9830    6.4460   -0.7100 c2        1 9ZP      0.351000
      6 O7         -0.8300    6.8550    0.4280 o         1 9ZP     -0.354000
      7 C8         -0.8920    4.9530   -1.0010 c2        1 9ZP     -0.100000
      8 C9          0.3420    4.3760   -1.2910 c1        1 9ZP     -0.166000
      9 C10         0.4490    2.9950   -1.4340 c1        1 9ZP      0.038000
     10 O11         1.6700    2.4230   -1.8760 os        1 9ZP     -0.226000
     11 C12         2.7780    2.7120   -1.0370 c3        1 9ZP     -0.071000
     12 C13        -0.6780    2.1910   -1.2850 c1        1 9ZP      0.041000
     13 C14        -1.9100    2.7680   -0.9950 c1        1 9ZP     -0.088000
     14 C15        -2.0170    4.1480   -0.8530 c2        1 9ZP     -0.100000
     15 N16        -0.5760    0.7710   -1.4700 n3        1 9ZP     -0.203000
     16 C18        -0.7820   -0.1180   -0.3500 c2        1 9ZP      0.151000
     17 N19         0.0870   -1.2030   -0.1500 n2        1 9ZP     -0.255000
     18 C20        -0.1560   -2.0830    0.8260 c1        1 9ZP      0.171000
     19 C21        -1.3560   -1.9080    1.7030 c1        1 9ZP     -0.149000
     20 C22        -2.1920   -0.8560    1.5030 c1        1 9ZP     -0.008000
     21 N23        -1.9340    0.0480    0.4920 n1        1 9ZP     -0.209000
     22 N24        -1.5820   -2.9460    2.7980 n3        1 9ZP     -0.157000
     23 C25        -2.7140   -3.5700    3.2970 c2        1 9ZP     -0.091000
     24 N26        -2.5340   -4.7090    3.7340 n1        1 9ZP     -0.095000
     25 N27        -1.3120   -5.1060    3.6410 n2        1 9ZP     -0.202000
     26 C28        -0.5650   -3.9050    2.9880 c3        1 9ZP     -0.004000
     27 C29         0.1380   -4.3690    1.8030 c3        1 9ZP     -0.005000
     28 C31        -0.9090   -5.2640    0.9150 c3        1 9ZP     -0.198000
     29 C32        -0.8110   -6.7410    1.3390 c3        1 9ZP     -0.216000
     30 N33         0.6650   -3.4000    0.9840 n3        1 9ZP     -0.252000
     31 C34         0.9360   -3.9700   -0.3400 c3        1 9ZP      0.029000
     32 C35         1.8510   -2.9230   -1.2330 c3        1 9ZP     -0.175500
     33 C36         3.1170   -3.1080   -0.8430 c3        1 9ZP     -0.159000
     34 C37         3.1720   -4.5850   -0.3360 c3        1 9ZP     -0.159000
     35 C38         1.6400   -5.0610   -0.2230 c3        1 9ZP     -0.175500
     36 H2         -1.3630    7.0660   -2.6280 hn        1 9ZP      0.224000
     37 H3         -2.0370    9.2270   -1.2520 h1        1 9ZP      0.162000
     38 H41C        0.7890    8.7150   -0.7330 hc        1 9ZP      0.113000
     39 H42C       -0.0610   10.1160   -0.2870 hc        1 9ZP      0.113000
     40 H51C       -0.5620   10.5420   -2.5660 hc        1 9ZP      0.113000
     41 H52C        0.2880    9.1400   -3.0120 hc        1 9ZP      0.113000
     42 H9          1.1270    4.9450   -1.4310 ha        1 9ZP      0.143000
     43 H15        -2.8870    4.5550   -0.6490 ha        1 9ZP      0.158000
     44 H121        3.1330    3.5980   -1.2570 h1        1 9ZP      0.086667
     45 H122        2.4890    2.6990   -0.0980 h1        1 9ZP      0.086667
     46 H123        3.4780    2.0350   -1.1740 h1        1 9ZP      0.086667
     47 H14        -2.7030    2.2020   -0.8910 ha        1 9ZP      0.163000
     48 H16        -0.4500    0.4270   -2.3090 hn        1 9ZP      0.237000
     49 H22        -2.9820   -0.7390    2.0780 ha        1 9ZP      0.168000
     50 H25        -3.5920   -3.1380    3.3030 h5        1 9ZP      0.202000
     51 H28         0.0920   -3.5500    3.6290 h2        1 9ZP      0.151000
     52 H27        -0.9600   -5.9130    3.9040 hn        1 9ZP      0.181000
     53 H29         0.8740   -4.9550    2.0950 h1        1 9ZP      0.124000
     54 H311       -1.8270   -4.9400    1.0650 hc        1 9ZP      0.097500
     55 H312       -0.6850   -5.1820   -0.0350 hc        1 9ZP      0.097500
     56 H321        0.0670   -6.9070    1.7480 hc        1 9ZP      0.079667
     57 H322       -1.5200   -6.9420    1.9910 hc        1 9ZP      0.079667
     58 H323       -0.9200   -7.3180    0.5470 hc        1 9ZP      0.079667
     59 H34         0.0920   -4.1620   -0.8060 h1        1 9ZP      0.127000
     60 H351        1.7590   -3.1260   -2.1940 hc        1 9ZP      0.089750
     61 H352        1.5760   -1.9990   -1.0550 hc        1 9ZP      0.089750
     62 H381        1.4770   -5.4800    0.6490 hc        1 9ZP      0.089750
     63 H382        1.4240   -5.6860   -0.9480 hc        1 9ZP      0.089750
     64 H361        3.7300   -2.9830   -1.6030 hc        1 9ZP      0.083500
     65 H362        3.3440   -2.4880   -0.1140 hc        1 9ZP      0.083500
     66 H371        3.6580   -5.1500   -0.9830 hc        1 9ZP      0.083500
     67 H372        3.6070   -4.6260    0.5470 hc        1 9ZP      0.083500
@<TRIPOS>BOND
     1    1    2 1   
     2    1    5 1   
     3    1   36 1   
     4    2    3 1   
     5    2    4 1   
     6    2   37 1   
     7    3    4 1   
     8    3   38 1   
     9    3   39 1   
    10    4   40 1   
    11    4   41 1   
    12    5    6 1   
    13    5    7 1   
    14    7    8 1   
    15    7   14 1   
    16    8   42 1   
    17    9   10 1   
    18    9   12 1   
    19   10   11 1   
    20   11   44 1   
    21   11   45 1   
    22   11   46 1   
    23   12   15 1   
    24   13   14 1   
    25   13   47 1   
    26   14   43 1   
    27   15   16 1   
    28   15   48 1   
    29   16   17 1   
    30   16   21 1   
    31   17   18 1   
    32   18   30 1   
    33   19   20 1   
    34   19   22 1   
    35   20   49 1   
    36   22   23 1   
    37   22   26 1   
    38   23   24 1   
    39   23   50 1   
    40   25   26 1   
    41   25   52 1   
    42   26   27 1   
    43   26   51 1   
    44   27   28 1   
    45   27   30 1   
    46   27   53 1   
    47   28   29 1   
    48   28   54 1   
    49   28   55 1   
    50   29   56 1   
    51   29   57 1   
    52   29   58 1   
    53   30   31 1   
    54   31   32 1   
    55   31   35 1   
    56   31   59 1   
    57   32   33 1   
    58   32   60 1   
    59   32   61 1   
    60   33   34 1   
    61   33   64 1   
    62   33   65 1   
    63   34   35 1   
    64   34   66 1   
    65   34   67 1   
    66   35   62 1   
    67   35   63 1   
@<TRIPOS>SUBSTRUCTURE
     1 9ZP         1 TEMP              0 ****  ****    0 ROOT
