@<TRIPOS>MOLECULE
9ZP
   68    73     1     0     0
SMALL
bcc


@<TRIPOS>ATOM
      1 N2          0.4980    0.2240    0.3110 ny        1 9ZP     -0.646800
      2 C3          1.5480   -0.2080   -0.6240 cx        1 9ZP      0.001500
      3 C4          2.3910   -1.4300   -0.3260 cx        1 9ZP     -0.103900
      4 C5          1.3950   -1.4730   -1.4420 cx        1 9ZP     -0.103900
      5 C6         -0.4120    1.2920   -0.3090 c         1 9ZP      0.591700
      6 O7          0.1820    2.2430   -0.7990 o         1 9ZP     -0.447100
      7 C8         -1.8350    1.0250   -0.2500 ca        1 9ZP     -0.249600
      8 C9         -2.6350    1.6440   -1.2350 ca        1 9ZP     -0.087000
      9 C10        -4.0020    1.4280   -1.2620 ca        1 9ZP      0.050100
     10 O11        -4.8350    1.9780   -2.2190 os        1 9ZP     -0.332900
     11 C12        -4.3120    3.0760   -2.9640 c3        1 9ZP      0.111700
     12 C13        -4.6480    0.5650   -0.2950 ca        1 9ZP      0.274600
     13 C14        -3.8160    0.0150    0.7150 ca        1 9ZP     -0.167000
     14 C15        -2.4500    0.2340    0.7300 ca        1 9ZP     -0.066000
     15 N16        -6.0060    0.3780   -0.3710 nu        1 9ZP     -0.701300
     16 C18        -6.7680   -0.6670    0.2210 ca        1 9ZP      0.863900
     17 N19        -8.1350   -0.4720    0.1650 nb        1 9ZP     -0.759000
     18 C20        -8.9330   -1.4570    0.6610 ca        1 9ZP      0.681200
     19 C21        -8.3440   -2.6500    1.2630 ca        1 9ZP     -0.148000
     20 C22        -6.9360   -2.7120    1.2760 ca        1 9ZP      0.436200
     21 N23        -6.1360   -1.7580    0.7680 nb        1 9ZP     -0.744000
     22 N24        -9.1420   -3.7290    1.6700 nh        1 9ZP     -0.555000
     23 C25        -8.8180   -4.4360    2.8910 c2        1 9ZP      0.467100
     24 N26        -9.8640   -4.6750    3.6630 n2        1 9ZP     -0.440400
     25 N27       -11.0000   -4.1970    3.0820 nu        1 9ZP     -0.475300
     26 C28       -10.6130   -3.4850    1.8060 c3        1 9ZP      0.356700
     27 C29       -11.0370   -1.9840    1.6930 c3        1 9ZP      0.173500
     28 C31       -10.8700   -1.2100    3.0150 c3        1 9ZP     -0.118400
     29 C32       -12.1900   -1.0130    3.7180 c3        1 9ZP     -0.101100
     30 N33       -10.3350   -1.3850    0.5590 nh        1 9ZP     -0.730300
     31 C34       -10.9500   -0.2190   -0.0770 c3        1 9ZP      0.217500
     32 C35       -10.4900    0.0170   -1.5360 c3        1 9ZP     -0.081900
     33 C36       -11.6890    0.5620   -2.3020 c3        1 9ZP     -0.081400
     34 C37       -12.8640    0.6120   -1.3370 c3        1 9ZP     -0.081400
     35 C38       -12.4930   -0.2820   -0.1660 c3        1 9ZP     -0.081900
     36 H2         -0.0640   -0.5830    0.5970 hn        1 9ZP      0.452300
     37 H3          2.0290    0.6850   -1.0920 hx        1 9ZP      0.158700
     38 H41C        2.2020   -2.0280    0.5860 hc        1 9ZP      0.108700
     39 H42C        3.4740   -1.3680   -0.5540 hc        1 9ZP      0.108700
     40 H51C        1.7430   -1.4430   -2.4940 hc        1 9ZP      0.108700
     41 H52C        0.4900   -2.1010   -1.3320 hc        1 9ZP      0.108700
     42 H9         -2.1540    2.2960   -1.9830 ha        1 9ZP      0.168000
     43 H15        -1.8760   -0.2000    1.5640 ha        1 9ZP      0.123000
     44 H121       -3.9160    3.8680   -2.2850 h1        1 9ZP      0.058033
     45 H122       -3.5220    2.7200   -3.6690 h1        1 9ZP      0.058033
     46 H123       -5.2060    3.4450   -3.5310 h1        1 9ZP      0.058033
     47 H14        -4.2530   -0.5910    1.5260 ha        1 9ZP      0.187000
     48 H16        -6.5060    0.9660   -1.0150 hn        1 9ZP      0.486800
     49 H22        -6.4040   -3.5830    1.7040 h4        1 9ZP      0.037100
     50 H25        -7.7990   -4.7970    3.0810 h5        1 9ZP      0.074800
     51 H28       -11.1070   -4.0630    0.9680 h2        1 9ZP      0.122700
     52 H27       -11.5130   -3.6150    3.7290 hn        1 9ZP      0.397800
     53 H29       -12.1390   -2.0070    1.4380 h1        1 9ZP      0.097700
     54 H311      -10.1440   -1.7330    3.6900 hc        1 9ZP      0.055200
     55 H312      -10.4290   -0.1960    2.8130 hc        1 9ZP      0.055200
     56 H321      -12.7130   -1.9810    3.9100 hc        1 9ZP      0.045367
     57 H322      -12.8680   -0.3720    3.1030 hc        1 9ZP      0.045367
     58 H323      -12.0240   -0.5060    4.7000 hc        1 9ZP      0.045367
     59 H34       -10.6820    0.7020    0.5260 h1        1 9ZP      0.046700
     60 H351       -9.6500    0.7550   -1.5570 hc        1 9ZP      0.054450
     61 H352      -10.1260   -0.9310   -2.0060 hc        1 9ZP      0.054450
     62 H381      -12.9610    0.0700    0.7860 hc        1 9ZP      0.054450
     63 H382      -12.8470   -1.3240   -0.3730 hc        1 9ZP      0.054450
     64 H361      -11.4700    1.5790   -2.7110 hc        1 9ZP      0.050450
     65 H362      -11.9250   -0.1020   -3.1710 hc        1 9ZP      0.050450
     66 H371      -13.8070    0.2600   -1.8240 hc        1 9ZP      0.050450
     67 H372      -13.0370    1.6610   -0.9860 hc        1 9ZP      0.050450
     68 H221        0.9540    0.6240    1.1400 hn        1 9ZP      0.452300
@<TRIPOS>BOND
     1    1    2 1   
     2    1    5 1   
     3    1   36 1   
     4    1   68 1   
     5    2    3 1   
     6    2    4 1   
     7    2   37 1   
     8    3    4 1   
     9    3   38 1   
    10    3   39 1   
    11    4   40 1   
    12    4   41 1   
    13    5    6 2   
    14    5    7 1   
    15    7    8 ar  
    16    7   14 ar  
    17    8    9 ar  
    18    8   42 1   
    19    9   10 1   
    20    9   12 ar  
    21   10   11 1   
    22   11   44 1   
    23   11   45 1   
    24   11   46 1   
    25   12   13 ar  
    26   12   15 1   
    27   13   14 ar  
    28   13   47 1   
    29   14   43 1   
    30   15   16 1   
    31   15   48 1   
    32   16   17 ar  
    33   16   21 ar  
    34   17   18 ar  
    35   18   19 ar  
    36   18   30 1   
    37   19   20 ar  
    38   19   22 1   
    39   20   21 ar  
    40   20   49 1   
    41   22   23 1   
    42   22   26 1   
    43   23   24 2   
    44   23   50 1   
    45   24   25 1   
    46   25   26 1   
    47   25   52 1   
    48   26   27 1   
    49   26   51 1   
    50   27   28 1   
    51   27   30 1   
    52   27   53 1   
    53   28   29 1   
    54   28   54 1   
    55   28   55 1   
    56   29   56 1   
    57   29   57 1   
    58   29   58 1   
    59   30   31 1   
    60   31   32 1   
    61   31   35 1   
    62   31   59 1   
    63   32   33 1   
    64   32   60 1   
    65   32   61 1   
    66   33   34 1   
    67   33   64 1   
    68   33   65 1   
    69   34   35 1   
    70   34   66 1   
    71   34   67 1   
    72   35   62 1   
    73   35   63 1   
@<TRIPOS>SUBSTRUCTURE
     1 9ZP         1 TEMP              0 ****  ****    0 ROOT
