@<TRIPOS>MOLECULE
9ZP
   67    72     1     0     0
SMALL
bcc


@<TRIPOS>ATOM
      1 N2         -6.7940   -1.0950   -0.1120 n         1 9ZP     -0.540900
      2 C3         -8.1690   -1.3430    0.1330 cx        1 9ZP      0.053700
      3 C4         -8.7770   -2.7120   -0.1030 cx        1 9ZP     -0.153900
      4 C5         -8.6280   -2.1970    1.2990 cx        1 9ZP     -0.153900
      5 C6         -6.3240    0.1390   -0.5190 c         1 9ZP      0.679700
      6 O7         -7.0950    1.1020   -0.7070 o         1 9ZP     -0.603100
      7 C8         -4.8500    0.2720   -0.7110 ca        1 9ZP     -0.117600
      8 C9         -4.2550    1.4840   -0.3460 ca        1 9ZP     -0.143000
      9 C10        -2.8800    1.6580   -0.5040 ca        1 9ZP      0.085100
     10 O11        -2.2150    2.8200   -0.1530 os        1 9ZP     -0.341900
     11 C12        -3.0320    3.9290    0.2110 c3        1 9ZP      0.115700
     12 C13        -2.0670    0.6180   -1.0490 ca        1 9ZP      0.119600
     13 C14        -2.7020   -0.5780   -1.4300 ca        1 9ZP     -0.088000
     14 C15        -4.0740   -0.7490   -1.2570 ca        1 9ZP     -0.128000
     15 N16        -0.6870    0.8230   -1.2910 nh        1 9ZP     -0.681300
     16 C18         0.2800    0.0180   -0.6280 ca        1 9ZP      0.868900
     17 N19         1.5530    0.5550   -0.5520 nb        1 9ZP     -0.775000
     18 C20         2.5370   -0.2150   -0.0170 ca        1 9ZP      0.673200
     19 C21         2.2560   -1.5650    0.4400 ca        1 9ZP     -0.194000
     20 C22         0.9140   -1.9930    0.3250 ca        1 9ZP      0.454200
     21 N23        -0.0720   -1.2450   -0.1870 nb        1 9ZP     -0.736000
     22 N24         3.2370   -2.3450    1.0820 nh        1 9ZP     -0.547000
     23 C25         3.3230   -3.7540    0.7680 c2        1 9ZP      0.476100
     24 N26         4.5540   -4.1840    0.5500 n2        1 9ZP     -0.467400
     25 N27         5.4440   -3.1570    0.6860 nh        1 9ZP     -0.478300
     26 C28         4.6580   -1.8910    0.9500 c3        1 9ZP      0.354700
     27 C29         4.8800   -0.7180   -0.0600 c3        1 9ZP      0.173500
     28 C31         4.9820   -1.1940   -1.5210 c3        1 9ZP     -0.120400
     29 C32         6.4080   -1.2090   -2.0090 c3        1 9ZP     -0.097100
     30 N33         3.8470    0.2920    0.1730 nh        1 9ZP     -0.730300
     31 C34         4.1460    1.6540   -0.2680 c3        1 9ZP      0.217500
     32 C35         3.2710    2.7370    0.4100 c3        1 9ZP     -0.081400
     33 C36         4.1520    3.9620    0.6190 c3        1 9ZP     -0.080900
     34 C37         5.5430    3.6190    0.1100 c3        1 9ZP     -0.080900
     35 C38         5.6000    2.1030    0.0090 c3        1 9ZP     -0.081400
     36 H2         -6.1480   -1.8210    0.0870 hn        1 9ZP      0.313500
     37 H3         -8.7860   -0.4510   -0.1280 h1        1 9ZP      0.121700
     38 H41C       -9.7810   -2.7600   -0.5600 hc        1 9ZP      0.074450
     39 H42C       -8.1380   -3.5510   -0.4300 hc        1 9ZP      0.074450
     40 H51C       -7.8830   -2.6720    1.9620 hc        1 9ZP      0.074450
     41 H52C       -9.5240   -1.8730    1.8570 hc        1 9ZP      0.074450
     42 H9         -4.8920    2.2880    0.0560 ha        1 9ZP      0.162000
     43 H15        -4.5330   -1.6960   -1.5810 ha        1 9ZP      0.139000
     44 H121       -3.7510    4.1790   -0.6070 h1        1 9ZP      0.050033
     45 H122       -3.5750    3.7160    1.1630 h1        1 9ZP      0.050033
     46 H123       -2.2910    4.7560    0.3560 h1        1 9ZP      0.050033
     47 H14        -2.1120   -1.3970   -1.8730 ha        1 9ZP      0.161000
     48 H16        -0.4390    1.7960   -1.3230 hn        1 9ZP      0.442800
     49 H22         0.6050   -2.9970    0.6730 h4        1 9ZP      0.029100
     50 H25         2.4310   -4.3930    0.7990 h5        1 9ZP      0.071800
     51 H28         4.9720   -1.5420    1.9790 h2        1 9ZP      0.114700
     52 H27         6.0300   -3.0930   -0.1340 hn        1 9ZP      0.385800
     53 H29         5.8730   -0.2620    0.2290 h1        1 9ZP      0.085700
     54 H311        4.5200   -2.2080   -1.6400 hc        1 9ZP      0.057200
     55 H312        4.3920   -0.5080   -2.1900 hc        1 9ZP      0.057200
     56 H321        6.8290   -0.1730   -2.0190 hc        1 9ZP      0.040033
     57 H322        7.0660   -1.8390   -1.3640 hc        1 9ZP      0.040033
     58 H323        6.4490   -1.6140   -3.0500 hc        1 9ZP      0.040033
     59 H34         3.9770    1.7230   -1.3860 h1        1 9ZP      0.043700
     60 H351        2.4030    2.9910   -0.2460 hc        1 9ZP      0.054700
     61 H352        2.8660    2.3770    1.3890 hc        1 9ZP      0.054700
     62 H381        5.9780    1.6830    0.9750 hc        1 9ZP      0.054700
     63 H382        6.2810    1.7710   -0.8120 hc        1 9ZP      0.054700
     64 H361        3.7380    4.8460    0.0720 hc        1 9ZP      0.044700
     65 H362        4.1890    4.2300    1.7050 hc        1 9ZP      0.044700
     66 H371        5.7160    4.0810   -0.8950 hc        1 9ZP      0.044700
     67 H372        6.3360    4.0020    0.7980 hc        1 9ZP      0.044700
@<TRIPOS>BOND
     1    1    2 1   
     2    1    5 1   
     3    1   36 1   
     4    2    3 1   
     5    2    4 1   
     6    2   37 1   
     7    3    4 1   
     8    3   38 1   
     9    3   39 1   
    10    4   40 1   
    11    4   41 1   
    12    5    6 2   
    13    5    7 1   
    14    7    8 ar  
    15    7   14 ar  
    16    8    9 ar  
    17    8   42 1   
    18    9   10 1   
    19    9   12 ar  
    20   10   11 1   
    21   11   44 1   
    22   11   45 1   
    23   11   46 1   
    24   12   13 ar  
    25   12   15 1   
    26   13   14 ar  
    27   13   47 1   
    28   14   43 1   
    29   15   16 1   
    30   15   48 1   
    31   16   17 ar  
    32   16   21 ar  
    33   17   18 ar  
    34   18   19 ar  
    35   18   30 1   
    36   19   20 ar  
    37   19   22 1   
    38   20   21 ar  
    39   20   49 1   
    40   22   23 1   
    41   22   26 1   
    42   23   24 2   
    43   23   50 1   
    44   24   25 1   
    45   25   26 1   
    46   25   52 1   
    47   26   27 1   
    48   26   51 1   
    49   27   28 1   
    50   27   30 1   
    51   27   53 1   
    52   28   29 1   
    53   28   54 1   
    54   28   55 1   
    55   29   56 1   
    56   29   57 1   
    57   29   58 1   
    58   30   31 1   
    59   31   32 1   
    60   31   35 1   
    61   31   59 1   
    62   32   33 1   
    63   32   60 1   
    64   32   61 1   
    65   33   34 1   
    66   33   64 1   
    67   33   65 1   
    68   34   35 1   
    69   34   66 1   
    70   34   67 1   
    71   35   62 1   
    72   35   63 1   
@<TRIPOS>SUBSTRUCTURE
     1 9ZP         1 TEMP              0 ****  ****    0 ROOT
