@<TRIPOS>MOLECULE
9ZT
   39    34     1     0     0
SMALL
bcc


@<TRIPOS>ATOM
      1 CAA        -4.0440   -3.6610   -3.0030 c3        1 9ZT     -0.071000
      2 OAN        -3.9510   -2.2660   -2.9420 os        1 9ZT     -0.225000
      3 CAR        -2.8310   -1.8000   -2.2330 c1        1 9ZT      0.054000
      4 CAK        -1.7170   -1.3850   -2.9120 c1        1 9ZT     -0.139000
      5 CAI        -0.6430   -0.8770   -2.2250 c1        1 9ZT     -0.139000
      6 CAJ        -2.8760   -1.7080   -0.8680 c1        1 9ZT     -0.200000
      7 CAH        -1.7950   -1.1970   -0.1750 c1        1 9ZT     -0.077000
      8 CAQ        -0.6840   -0.7840   -0.8520 c1        1 9ZT     -0.090000
      9 CAL         0.5920   -0.3450   -0.0650 c2        1 9ZT     -0.124000
     10 CAP         0.6560    2.2360    0.1290 c1        1 9ZT      0.233000
     11 OAC        -0.1450    2.8190   -0.5640 o         1 9ZT     -0.322000
     12 CAT         2.2500    2.4800   -0.0900 c2        1 9ZT     -0.066000
     13 CAU         0.2530    0.9380    0.8440 c3        1 9ZT     -0.146000
     14 OAF         2.5570    3.6130   -0.6130 oh        1 9ZT     -0.343000
     15 CAS         2.7790    2.2640    1.4630 c3        1 9ZT      0.020000
     16 OAE         4.2030    2.2800    1.4510 oh        1 9ZT     -0.333000
     17 CAM         2.3400    1.0290    2.1350 c3        1 9ZT     -0.140000
     18 CAV         0.9060    0.8300    2.1960 c3        1 9ZT      0.006000
     19 CAO         0.5290   -0.5880    2.8980 c1        1 9ZT      0.320000
     20 OAB         1.4210   -1.4920    3.0250 o         1 9ZT     -0.540000
     21 OAD        -0.5800   -0.7330    3.4410 os        1 9ZT     -0.567000
     22 OAG         0.3220    1.7530    3.1160 oh        1 9ZT     -0.366000
     23 HAM1        2.7440    0.2510    1.6540 hc        1 9ZT      0.111000
     24 HAM2        2.6930    1.0390    3.0690 hc        1 9ZT      0.111000
     25 HAG         0.5060    1.5090    3.9210 ho        1 9ZT      0.232000
     26 HAU        -0.7360    0.8650    0.9190 hc        1 9ZT      0.132000
     27 HAS         2.4750    3.0140    1.9890 h1        1 9ZT      0.090000
     28 HAE         4.5020    2.9950    1.9230 ho        1 9ZT      0.200000
     29 HAT         2.6440    1.8550   -0.7100 h4        1 9ZT      0.133000
     30 HAF         2.6440    3.5180   -1.5000 ho        1 9ZT      0.215000
     31 HAL1        0.8830   -1.0620    0.4910 ha        1 9ZT      0.110500
     32 HAL2        1.2980   -0.1170   -0.6970 ha        1 9ZT      0.110500
     33 HAI         0.1660   -0.6500   -2.6980 ha        1 9ZT      0.127000
     34 HAH        -1.7920   -1.2080    0.7820 ha        1 9ZT      0.196000
     35 HAK        -1.7140   -1.3870   -3.8840 ha        1 9ZT      0.127000
     36 HAJ        -3.6420   -2.0670   -0.3820 ha        1 9ZT      0.133000
     37 HAA1       -4.9390   -3.9170   -3.3310 h1        1 9ZT      0.076000
     38 HAA2       -3.3730   -4.0010   -3.6040 h1        1 9ZT      0.076000
     39 HAA3       -3.9010   -4.0430   -2.0960 h1        1 9ZT      0.076000
@<TRIPOS>BOND
     1    1    2 1   
     2    1   37 1   
     3    1   38 1   
     4    1   39 1   
     5    2    3 1   
     6    3    6 1   
     7    4    5 1   
     8    4   35 1   
     9    5   33 1   
    10    6   36 1   
    11    7    8 1   
    12    7   34 1   
    13    9   13 1   
    14    9   31 1   
    15    9   32 1   
    16   10   11 1   
    17   10   13 1   
    18   12   14 1   
    19   12   15 1   
    20   12   29 1   
    21   13   18 1   
    22   13   26 1   
    23   14   30 1   
    24   15   16 1   
    25   15   17 1   
    26   15   27 1   
    27   16   28 1   
    28   17   18 1   
    29   17   23 1   
    30   17   24 1   
    31   18   19 1   
    32   18   22 1   
    33   19   20 1   
    34   22   25 1   
@<TRIPOS>SUBSTRUCTURE
     1 9ZT         1 TEMP              0 ****  ****    0 ROOT
