@<TRIPOS>MOLECULE
9ZT
   39    40     1     0     0
SMALL
bcc


@<TRIPOS>ATOM
      1 CAA        -0.7370   -0.2070    0.7810 c3        1 9ZT      0.118700
      2 OAN         0.6160   -0.3200    0.3630 os        1 9ZT     -0.341900
      3 CAR         1.5690   -0.1930    1.3650 ca        1 9ZT      0.099100
      4 CAK         2.9000   -0.2800    0.9280 ca        1 9ZT     -0.185500
      5 CAI         3.9270   -0.1690    1.8600 ca        1 9ZT     -0.092000
      6 CAJ         1.2710    0.0030    2.7190 ca        1 9ZT     -0.185500
      7 CAH         2.3120    0.1110    3.6380 ca        1 9ZT     -0.092000
      8 CAQ         3.6470    0.0260    3.2170 ca        1 9ZT     -0.097300
      9 CAL         4.7430    0.1170    4.2210 c3        1 9ZT     -0.038100
     10 CAP         6.1010    2.1800    4.5130 c         1 9ZT      0.572100
     11 OAC         6.1860    3.1360    3.7340 o         1 9ZT     -0.561100
     12 CAT         7.3450    1.6440    5.1950 c3        1 9ZT     -0.004900
     13 CAU         4.8100    1.4970    4.8770 c3        1 9ZT     -0.156700
     14 OAF         8.5190    2.3640    4.8560 oh        1 9ZT     -0.615800
     15 CAS         7.1450    1.6670    6.7220 c3        1 9ZT      0.131100
     16 OAE         8.2590    1.0660    7.3670 oh        1 9ZT     -0.605800
     17 CAM         5.8970    0.8840    7.1030 c3        1 9ZT     -0.061400
     18 CAV         4.6590    1.4500    6.4170 c3        1 9ZT      0.027800
     19 CAO         3.3930    0.6080    6.7950 c         1 9ZT      0.900600
     20 OAB         3.5130   -0.6310    6.9680 o         1 9ZT     -0.818800
     21 OAD         2.3130    1.2590    6.8860 o         1 9ZT     -0.818800
     22 OAG         4.4930    2.7920    6.8670 oh        1 9ZT     -0.638800
     23 HAM1        6.0040   -0.1950    6.8210 hc        1 9ZT      0.071700
     24 HAM2        5.7560    0.9360    8.2120 hc        1 9ZT      0.071700
     25 HAG         3.5390    2.9330    6.9840 ho        1 9ZT      0.433000
     26 HAU         3.9570    2.1310    4.4980 hc        1 9ZT      0.092700
     27 HAS         7.0530    2.7360    7.0660 h1        1 9ZT      0.050700
     28 HAE         9.0460    1.4730    6.9810 ho        1 9ZT      0.401000
     29 HAT         7.5430    0.5870    4.8560 h1        1 9ZT      0.093700
     30 HAF         8.2550    3.2710    4.6480 ho        1 9ZT      0.416000
     31 HAL1        4.5640   -0.6630    5.0180 hc        1 9ZT      0.071200
     32 HAL2        5.7230   -0.1260    3.7310 hc        1 9ZT      0.071200
     33 HAI         4.9720   -0.2330    1.5200 ha        1 9ZT      0.159500
     34 HAH         2.0930    0.2650    4.7150 ha        1 9ZT      0.159500
     35 HAK         3.1140   -0.4320   -0.1380 ha        1 9ZT      0.132000
     36 HAJ         0.2330    0.0720    3.0710 ha        1 9ZT      0.132000
     37 HAA1       -1.3180   -0.3220   -0.1680 h1        1 9ZT      0.036700
     38 HAA2       -0.9290    0.7930    1.2410 h1        1 9ZT      0.036700
     39 HAA3       -0.9970   -1.0210    1.5020 h1        1 9ZT      0.036700
@<TRIPOS>BOND
     1    1    2 1   
     2    1   37 1   
     3    1   38 1   
     4    1   39 1   
     5    2    3 1   
     6    3    4 ar  
     7    3    6 ar  
     8    4    5 ar  
     9    4   35 1   
    10    5    8 ar  
    11    5   33 1   
    12    6    7 ar  
    13    6   36 1   
    14    7    8 ar  
    15    7   34 1   
    16    8    9 1   
    17    9   13 1   
    18    9   31 1   
    19    9   32 1   
    20   10   11 2   
    21   10   12 1   
    22   10   13 1   
    23   12   14 1   
    24   12   15 1   
    25   12   29 1   
    26   13   18 1   
    27   13   26 1   
    28   14   30 1   
    29   15   16 1   
    30   15   17 1   
    31   15   27 1   
    32   16   28 1   
    33   17   18 1   
    34   17   23 1   
    35   17   24 1   
    36   18   19 1   
    37   18   22 1   
    38   19   20 1   
    39   19   21 1   
    40   22   25 1   
@<TRIPOS>SUBSTRUCTURE
     1 9ZT         1 TEMP              0 ****  ****    0 ROOT
