@<TRIPOS>MOLECULE
9ZT
   39    40     1     0     0
SMALL
bcc


@<TRIPOS>ATOM
      1 CAA        -0.7040   -0.2340    0.7410 c3        1 9ZT      0.118700
      2 OAN         0.6510   -0.3210    0.3280 os        1 9ZT     -0.341900
      3 CAR         1.5980   -0.1940    1.3350 ca        1 9ZT      0.099100
      4 CAK         2.9320   -0.2550    0.9030 ca        1 9ZT     -0.185500
      5 CAI         3.9530   -0.1410    1.8420 ca        1 9ZT     -0.092000
      6 CAJ         1.2910   -0.0210    2.6900 ca        1 9ZT     -0.185500
      7 CAH         2.3260    0.0910    3.6160 ca        1 9ZT     -0.092000
      8 CAQ         3.6630    0.0310    3.2000 ca        1 9ZT     -0.097300
      9 CAL         4.7540    0.1250    4.2110 c3        1 9ZT     -0.038100
     10 CAP         6.0790    2.2040    4.5380 c         1 9ZT      0.572100
     11 OAC         6.1530    3.1720    3.7720 o         1 9ZT     -0.561100
     12 CAT         7.3280    1.6770    5.2190 c3        1 9ZT     -0.004900
     13 CAU         4.7970    1.4960    4.8860 c3        1 9ZT     -0.156700
     14 OAF         8.4920    2.4200    4.8950 oh        1 9ZT     -0.615800
     15 CAS         7.1200    1.6760    6.7450 c3        1 9ZT      0.131100
     16 OAE         8.2410    1.0830    7.3870 oh        1 9ZT     -0.605800
     17 CAM         5.8830    0.8690    7.1090 c3        1 9ZT     -0.061400
     18 CAV         4.6390    1.4260    6.4250 c3        1 9ZT      0.027800
     19 CAO         3.3850    0.5600    6.7850 c         1 9ZT      0.900600
     20 OAB         3.5220   -0.6800    6.9410 o         1 9ZT     -0.818800
     21 OAD         2.2950    1.1930    6.8790 o         1 9ZT     -0.818800
     22 OAG         4.4510    2.7590    6.8920 oh        1 9ZT     -0.638800
     23 HAM1        6.0070   -0.2040    6.8130 hc        1 9ZT      0.071700
     24 HAM2        5.7360    0.9040    8.2180 hc        1 9ZT      0.071700
     25 HAG         3.4940    2.8830    7.0070 ho        1 9ZT      0.433000
     26 HAU         3.9360    2.1220    4.5120 hc        1 9ZT      0.092700
     27 HAS         7.0110    2.7390    7.1030 h1        1 9ZT      0.050700
     28 HAE         9.0220    1.5070    7.0100 ho        1 9ZT      0.401000
     29 HAT         7.5430    0.6280    4.8660 h1        1 9ZT      0.093700
     30 HAF         8.2150    3.3250    4.6980 ho        1 9ZT      0.416000
     31 HAL1        5.7400   -0.0970    3.7220 hc        1 9ZT      0.071200
     32 HAL2        4.5830   -0.6690    4.9960 hc        1 9ZT      0.071200
     33 HAI         5.0000   -0.1850    1.5070 ha        1 9ZT      0.159500
     34 HAH         2.1000    0.2260    4.6940 ha        1 9ZT      0.159500
     35 HAK         3.1530   -0.3890   -0.1630 ha        1 9ZT      0.132000
     36 HAJ         0.2510    0.0290    3.0380 ha        1 9ZT      0.132000
     37 HAA1       -0.9560   -1.0610    1.4490 h1        1 9ZT      0.036700
     38 HAA2       -1.2800   -0.3450   -0.2130 h1        1 9ZT      0.036700
     39 HAA3       -0.9130    0.7570    1.2120 h1        1 9ZT      0.036700
@<TRIPOS>BOND
     1    1    2 1   
     2    1   37 1   
     3    1   38 1   
     4    1   39 1   
     5    2    3 1   
     6    3    4 ar  
     7    3    6 ar  
     8    4    5 ar  
     9    4   35 1   
    10    5    8 ar  
    11    5   33 1   
    12    6    7 ar  
    13    6   36 1   
    14    7    8 ar  
    15    7   34 1   
    16    8    9 1   
    17    9   13 1   
    18    9   31 1   
    19    9   32 1   
    20   10   11 2   
    21   10   12 1   
    22   10   13 1   
    23   12   14 1   
    24   12   15 1   
    25   12   29 1   
    26   13   18 1   
    27   13   26 1   
    28   14   30 1   
    29   15   16 1   
    30   15   17 1   
    31   15   27 1   
    32   16   28 1   
    33   17   18 1   
    34   17   23 1   
    35   17   24 1   
    36   18   19 1   
    37   18   22 1   
    38   19   20 1   
    39   19   21 1   
    40   22   25 1   
@<TRIPOS>SUBSTRUCTURE
     1 9ZT         1 TEMP              0 ****  ****    0 ROOT
