@<TRIPOS>MOLECULE
9ZT
   39    40     1     0     0
SMALL
bcc


@<TRIPOS>ATOM
      1 CAA         6.1370    1.6570    0.4690 c3        1 9ZT      0.118700
      2 OAN         5.6990    0.4070   -0.0440 os        1 9ZT     -0.341900
      3 CAR         4.3280    0.2770   -0.2240 ca        1 9ZT      0.099100
      4 CAK         3.9130   -0.9740   -0.7070 ca        1 9ZT     -0.185500
      5 CAI         2.5560   -1.1990   -0.9230 ca        1 9ZT     -0.092000
      6 CAJ         3.3970    1.2890    0.0380 ca        1 9ZT     -0.185500
      7 CAH         2.0440    1.0460   -0.1850 ca        1 9ZT     -0.092000
      8 CAQ         1.6130   -0.1980   -0.6660 ca        1 9ZT     -0.097300
      9 CAL         0.1640   -0.4270   -0.9240 c3        1 9ZT     -0.038100
     10 CAP        -1.2620   -1.7490    0.6260 c         1 9ZT      0.572100
     11 OAC        -0.8850   -2.5150    1.5200 o         1 9ZT     -0.561100
     12 CAT        -2.4220   -2.1410   -0.2700 c3        1 9ZT     -0.004900
     13 CAU        -0.6620   -0.3940    0.3630 c3        1 9ZT     -0.156700
     14 OAF        -2.9810   -3.4020    0.0640 oh        1 9ZT     -0.615800
     15 CAS        -3.5130   -1.0560   -0.2050 c3        1 9ZT      0.131100
     16 OAE        -4.5540   -1.3580   -1.1230 oh        1 9ZT     -0.605800
     17 CAM        -2.9310    0.3000   -0.5760 c3        1 9ZT     -0.061400
     18 CAV        -1.7780    0.6790    0.3470 c3        1 9ZT      0.027800
     19 CAO        -1.1720    2.0600   -0.0750 c         1 9ZT      0.900600
     20 OAB        -1.1360    2.3650   -1.2950 o         1 9ZT     -0.818800
     21 OAD        -0.7400    2.7780    0.8720 o         1 9ZT     -0.818800
     22 OAG        -2.2980    0.7680    1.6710 oh        1 9ZT     -0.638800
     23 HAM1       -2.5600    0.2980   -1.6330 hc        1 9ZT      0.071700
     24 HAM2       -3.7330    1.0770   -0.4960 hc        1 9ZT      0.071700
     25 HAG        -1.8600    1.5260    2.0930 ho        1 9ZT      0.433000
     26 HAU         0.0110   -0.1330    1.2300 hc        1 9ZT      0.092700
     27 HAS        -3.9380   -1.0240    0.8380 h1        1 9ZT      0.050700
     28 HAE        -4.7880   -2.2820   -0.9690 ho        1 9ZT      0.401000
     29 HAT        -2.0630   -2.2530   -1.3330 h1        1 9ZT      0.093700
     30 HAF        -2.8390   -3.5410    1.0100 ho        1 9ZT      0.416000
     31 HAL1       -0.2070    0.3800   -1.6220 hc        1 9ZT      0.071200
     32 HAL2        0.0250   -1.4100   -1.4480 hc        1 9ZT      0.071200
     33 HAI         2.2270   -2.1800   -1.2980 ha        1 9ZT      0.159500
     34 HAH         1.2930    1.8380    0.0160 ha        1 9ZT      0.159500
     35 HAK         4.6570   -1.7560   -0.9050 ha        1 9ZT      0.132000
     36 HAJ         3.7120    2.2710    0.4160 ha        1 9ZT      0.132000
     37 HAA1        5.8800    2.4860   -0.2340 h1        1 9ZT      0.036700
     38 HAA2        5.6920    1.8510    1.4760 h1        1 9ZT      0.036700
     39 HAA3        7.2470    1.5370    0.5470 h1        1 9ZT      0.036700
@<TRIPOS>BOND
     1    1    2 1   
     2    1   37 1   
     3    1   38 1   
     4    1   39 1   
     5    2    3 1   
     6    3    4 ar  
     7    3    6 ar  
     8    4    5 ar  
     9    4   35 1   
    10    5    8 ar  
    11    5   33 1   
    12    6    7 ar  
    13    6   36 1   
    14    7    8 ar  
    15    7   34 1   
    16    8    9 1   
    17    9   13 1   
    18    9   31 1   
    19    9   32 1   
    20   10   11 2   
    21   10   12 1   
    22   10   13 1   
    23   12   14 1   
    24   12   15 1   
    25   12   29 1   
    26   13   18 1   
    27   13   26 1   
    28   14   30 1   
    29   15   16 1   
    30   15   17 1   
    31   15   27 1   
    32   16   28 1   
    33   17   18 1   
    34   17   23 1   
    35   17   24 1   
    36   18   19 1   
    37   18   22 1   
    38   19   20 1   
    39   19   21 1   
    40   22   25 1   
@<TRIPOS>SUBSTRUCTURE
     1 9ZT         1 TEMP              0 ****  ****    0 ROOT
