@<TRIPOS>MOLECULE
P
   42    45     1     0     0
SMALL
bcc


@<TRIPOS>ATOM
      1 P           5.4110    0.0080    1.0300 p5        1 P        1.331900
      2 OP1         4.9730   -1.1370    1.8960 o         1 P       -0.930500
      3 OP2         4.7820    1.3370    1.4000 o         1 P       -0.930500
      4 OP3         6.8280    0.0380    0.5490 o         1 P       -0.930500
      5 O5'         4.4900   -0.2920   -0.4260 os        1 P       -0.554200
      6 C5'         3.1440   -0.3880   -0.2140 c3        1 P        0.228400
      7 C4'         2.4360    0.9290   -0.6140 c3        1 P        0.054100
      8 O4'         1.1710    0.6330   -1.2670 os        1 P       -0.433600
      9 C3'         2.1450    1.8670    0.5740 c3        1 P        0.158100
     10 O3'         2.8660    3.0730    0.4610 oh        1 P       -0.674800
     11 C2'         0.6450    2.1860    0.4860 c3        1 P       -0.128400
     12 C1'         0.0840    1.2060   -0.5650 c3        1 P        0.251800
     13 N9         -0.7450    0.1370    0.0010 na        1 P       -0.185900
     14 C8         -0.3170   -1.0920    0.5460 cc        1 P        0.449400
     15 N7         -1.3380   -1.8920    0.9260 nd        1 P       -0.631000
     16 C5         -2.4920   -1.1710    0.6150 cd        1 P        0.182800
     17 C6         -3.8840   -1.5190    0.7820 c         1 P        0.655000
     18 O6         -4.3600   -2.5710    1.2460 o         1 P       -0.643500
     19 N1         -4.7940   -0.5110    0.3390 n         1 P       -0.407300
     20 C2         -4.3420    0.7190   -0.2050 cd        1 P        0.629800
     21 N2         -5.3430    1.7010   -0.5010 nh        1 P       -0.785200
     22 N3         -3.0550    1.0500   -0.4010 nc        1 P       -0.633100
     23 C4         -2.1390    0.1020    0.0290 cc        1 P        0.066800
     24 C6A        -6.5700    1.2430   -1.1170 c3        1 P        0.183800
     25 C7A        -6.9560   -0.2020   -0.8100 c3        1 P       -0.104400
     26 C8A        -6.2180   -0.7410    0.4130 c3        1 P        0.092000
     27 H5'         2.7110   -1.2040   -0.8670 h1        1 P       -0.004300
     28 H5''        2.9200   -0.6300    0.8650 h1        1 P       -0.004300
     29 H4'         3.0480    1.4590   -1.3930 h1        1 P        0.082700
     30 H3'         2.4050    1.3660    1.5480 h1        1 P        0.104700
     31 HO3'        3.7870    2.8460    0.7310 ho        1 P        0.502000
     32 H2'         0.1550    2.0830    1.4820 hc        1 P        0.053700
     33 H2''        0.4900    3.2310    0.1240 hc        1 P        0.053700
     34 H1'        -0.5590    1.7290   -1.3330 h2        1 P        0.066700
     35 H8          0.7620   -1.3230    0.6230 h5        1 P        0.117100
     36 H2         -4.9590    2.5000   -0.9710 hn        1 P        0.417800
     37 H6A1       -7.3760    1.9330   -0.7300 h1        1 P        0.032200
     38 H6A2       -6.5350    1.3700   -2.2390 h1        1 P        0.032200
     39 H7A1       -8.0570   -0.2600   -0.6190 hc        1 P        0.051700
     40 H7A2       -6.7290   -0.8450   -1.7000 hc        1 P        0.051700
     41 H8A1       -6.4000   -1.8500    0.5100 h1        1 P        0.066200
     42 H8A2       -6.6220   -0.2380    1.3390 h1        1 P        0.066200
@<TRIPOS>BOND
     1    1    2 1   
     2    1    3 1   
     3    1    4 1   
     4    1    5 1   
     5    5    6 1   
     6    6    7 1   
     7    6   27 1   
     8    6   28 1   
     9    7    8 1   
    10    7    9 1   
    11    7   29 1   
    12    8   12 1   
    13    9   10 1   
    14    9   11 1   
    15    9   30 1   
    16   10   31 1   
    17   11   12 1   
    18   11   32 1   
    19   11   33 1   
    20   12   13 1   
    21   12   34 1   
    22   13   14 1   
    23   13   23 1   
    24   14   15 2   
    25   14   35 1   
    26   15   16 1   
    27   16   17 1   
    28   16   23 2   
    29   17   18 2   
    30   17   19 1   
    31   19   20 1   
    32   19   26 1   
    33   20   21 1   
    34   20   22 2   
    35   21   24 1   
    36   21   36 1   
    37   22   23 1   
    38   24   25 1   
    39   24   37 1   
    40   24   38 1   
    41   25   26 1   
    42   25   39 1   
    43   25   40 1   
    44   26   41 1   
    45   26   42 1   
@<TRIPOS>SUBSTRUCTURE
     1 P           1 TEMP              0 ****  ****    0 ROOT
