@<TRIPOS>MOLECULE
P00
   40    40     1     0     0
SMALL
bcc


@<TRIPOS>ATOM
      1 O23         0.5080    0.2900   -0.4600 o         1 P00     -0.834500
      2 P21         1.9400    0.3950   -0.1360 p5        1 P00      1.429800
      3 O24         2.5500    1.0770    1.0270 o         1 P00     -0.834500
      4 O22         2.6400   -1.0800   -0.0680 oh        1 P00     -0.781400
      5 O20         2.7070    0.9570   -1.4960 os        1 P00     -0.573200
      6 C19         3.9790    1.5010   -1.3460 c3        1 P00      0.215700
      7 C5          4.1140    2.8010   -2.0830 ca        1 P00     -0.134600
      8 C6          3.0020    3.3470   -2.7590 ca        1 P00      0.372200
      9 N1          3.0200    4.5030   -3.4410 nb        1 P00     -0.658000
     10 C2          4.1800    5.1910   -3.4880 ca        1 P00      0.344600
     11 C7          4.2590    6.4870   -4.2250 c3        1 P00     -0.123400
     12 C3          5.3630    4.7150   -2.8480 ca        1 P00      0.036800
     13 O8          6.4510    5.5390   -2.9890 oh        1 P00     -0.514100
     14 C4          5.3380    3.4990   -2.1330 ca        1 P00     -0.172900
     15 C9          6.4990    2.9460   -1.4270 ce        1 P00      0.384800
     16 N10         7.7300    3.2170   -1.7690 n2        1 P00     -0.458200
     17 O11         8.6620    2.6460   -1.0370 os        1 P00     -0.195300
     18 C12        10.0270    3.0590   -1.3530 c3        1 P00      0.143400
     19 C13        10.5230    2.4240   -2.6330 c3        1 P00     -0.083400
     20 C14        11.9630    2.8680   -2.9180 c3        1 P00      0.022500
     21 N16        12.3590    2.5810   -4.2940 n3        1 P00     -0.888800
     22 C15        12.9330    2.2720   -1.8460 c         1 P00      0.886600
     23 O18        12.8000    2.6590   -0.6510 o         1 P00     -0.847300
     24 O17        13.8230    1.4600   -2.2310 o         1 P00     -0.847300
     25 H3          4.2020    1.6670   -0.2490 h1        1 P00      0.051700
     26 H4          4.7370    0.7840   -1.7820 h1        1 P00      0.051700
     27 H5          2.0370    2.8010   -2.7460 h4        1 P00      0.055100
     28 H6          3.2980    6.7500   -4.7270 hc        1 P00      0.039700
     29 H7          4.5290    7.3000   -3.5060 hc        1 P00      0.039700
     30 H8          5.0690    6.4220   -4.9940 hc        1 P00      0.039700
     31 H9          7.2300    5.1180   -2.5960 ho        1 P00      0.448000
     32 H10         6.2540    2.2640   -0.5850 h4        1 P00      0.016800
     33 H11        10.5970    2.6740   -0.4610 h1        1 P00      0.080200
     34 H12        10.0930    4.1750   -1.3970 h1        1 P00      0.080200
     35 H13         9.8510    2.7130   -3.4820 hc        1 P00      0.040200
     36 H14        10.4840    1.3080   -2.5340 hc        1 P00      0.040200
     37 H15        12.0140    3.9910   -2.8050 h1        1 P00      0.040700
     38 H16        13.3650    2.6160   -4.3270 hn        1 P00      0.330300
     39 H17         3.3550   -1.1010    0.5580 ho        1 P00      0.424000
     40 H163       12.1060    1.6320   -4.5070 hn        1 P00      0.330300
@<TRIPOS>BOND
     1    1    2 1   
     2    2    3 1   
     3    2    4 1   
     4    2    5 1   
     5    4   39 1   
     6    5    6 1   
     7    6    7 1   
     8    6   25 1   
     9    6   26 1   
    10    7    8 ar  
    11    7   14 ar  
    12    8    9 ar  
    13    8   27 1   
    14    9   10 ar  
    15   10   11 1   
    16   10   12 ar  
    17   11   28 1   
    18   11   29 1   
    19   11   30 1   
    20   12   13 1   
    21   12   14 ar  
    22   13   31 1   
    23   14   15 1   
    24   15   16 2   
    25   15   32 1   
    26   16   17 1   
    27   17   18 1   
    28   18   19 1   
    29   18   33 1   
    30   18   34 1   
    31   19   20 1   
    32   19   35 1   
    33   19   36 1   
    34   20   21 1   
    35   20   22 1   
    36   20   37 1   
    37   21   38 1   
    38   21   40 1   
    39   22   23 1   
    40   22   24 1   
@<TRIPOS>SUBSTRUCTURE
     1 P00         1 TEMP              0 ****  ****    0 ROOT
