@<TRIPOS>MOLECULE
P00
   40    40     1     0     0
SMALL
bcc


@<TRIPOS>ATOM
      1 O23         0.2000    0.2940   -2.3530 o         1 P00     -0.834000
      2 P21         1.6310    0.1140   -2.0580 p5        1 P00      1.429800
      3 O24         2.2680    0.0020   -0.7270 o         1 P00     -0.834000
      4 O22         2.2320   -1.2000   -2.8250 oh        1 P00     -0.782400
      5 O20         2.4570    1.2760   -2.9050 os        1 P00     -0.572200
      6 C19         3.7710    1.5370   -2.5290 c3        1 P00      0.217700
      7 C5          4.0460    3.0100   -2.4690 ca        1 P00     -0.134600
      8 C6          3.0210    3.9450   -2.7170 ca        1 P00      0.373200
      9 N1          3.1890    5.2770   -2.6870 nb        1 P00     -0.658000
     10 C2          4.4170    5.7570   -2.3990 ca        1 P00      0.348600
     11 C7          4.6620    7.2290   -2.3450 c3        1 P00     -0.125400
     12 C3          5.5210    4.8890   -2.1420 ca        1 P00      0.035800
     13 O8          6.7000    5.5270   -1.8550 oh        1 P00     -0.502100
     14 C4          5.3360    3.4940   -2.1800 ca        1 P00     -0.177900
     15 C9          6.4080    2.5310   -1.9060 ce        1 P00      0.377800
     16 N10         7.6040    2.6410   -2.4210 n2        1 P00     -0.433200
     17 O11         8.4330    1.6670   -2.1030 os        1 P00     -0.206300
     18 C12         9.7800    1.8040   -2.6470 c3        1 P00      0.150400
     19 C13        10.6400    2.6880   -1.7720 c3        1 P00     -0.091400
     20 C14        12.1040    2.6460   -2.2150 c3        1 P00      0.019500
     21 N16        12.7010    1.3210   -2.1040 n3        1 P00     -0.896800
     22 C15        12.8890    3.7690   -1.4580 c         1 P00      0.889600
     23 O18        12.4310    4.9430   -1.5090 o         1 P00     -0.844800
     24 O17        13.9590    3.4460   -0.8630 o         1 P00     -0.844800
     25 H3          3.9850    1.0750   -1.5190 h1        1 P00      0.050200
     26 H4          4.4700    1.0930   -3.3000 h1        1 P00      0.050200
     27 H5          2.0030    3.5820   -2.9610 h4        1 P00      0.053100
     28 H6          5.4690    7.4920   -3.0740 hc        1 P00      0.041700
     29 H7          5.0190    7.5020   -1.3210 hc        1 P00      0.041700
     30 H8          3.7470    7.8210   -2.5830 hc        1 P00      0.041700
     31 H9          7.3940    4.8700   -1.7010 ho        1 P00      0.443000
     32 H10         6.1060    1.6810   -1.2560 h4        1 P00      0.016800
     33 H11        10.1240    0.7350   -2.6280 h1        1 P00      0.056200
     34 H12         9.7490    2.1770   -3.7010 h1        1 P00      0.056200
     35 H13        10.2980    3.7550   -1.8350 hc        1 P00      0.059700
     36 H14        10.5450    2.3670   -0.7030 hc        1 P00      0.059700
     37 H15        12.1450    2.9200   -3.3100 h1        1 P00      0.040700
     38 H16         2.9280   -1.6090   -2.3250 ho        1 P00      0.423000
     39 H17        13.7010    1.4410   -2.1550 hn        1 P00      0.331300
     40 H163       12.5100    0.9610   -1.1850 hn        1 P00      0.331300
@<TRIPOS>BOND
     1    1    2 1   
     2    2    3 1   
     3    2    4 1   
     4    2    5 1   
     5    4   38 1   
     6    5    6 1   
     7    6    7 1   
     8    6   25 1   
     9    6   26 1   
    10    7    8 ar  
    11    7   14 ar  
    12    8    9 ar  
    13    8   27 1   
    14    9   10 ar  
    15   10   11 1   
    16   10   12 ar  
    17   11   28 1   
    18   11   29 1   
    19   11   30 1   
    20   12   13 1   
    21   12   14 ar  
    22   13   31 1   
    23   14   15 1   
    24   15   16 2   
    25   15   32 1   
    26   16   17 1   
    27   17   18 1   
    28   18   19 1   
    29   18   33 1   
    30   18   34 1   
    31   19   20 1   
    32   19   35 1   
    33   19   36 1   
    34   20   21 1   
    35   20   22 1   
    36   20   37 1   
    37   21   39 1   
    38   21   40 1   
    39   22   23 1   
    40   22   24 1   
@<TRIPOS>SUBSTRUCTURE
     1 P00         1 TEMP              0 ****  ****    0 ROOT
