@<TRIPOS>MOLECULE
P00
   40    40     1     0     0
SMALL
bcc


@<TRIPOS>ATOM
      1 O23         0.3890    0.4340   -0.7190 o         1 P00     -0.834500
      2 P21         1.8200    0.4580   -0.3740 p5        1 P00      1.429800
      3 O24         2.4410    1.0300    0.8410 o         1 P00     -0.834500
      4 O22         2.4600   -1.0450   -0.4050 oh        1 P00     -0.781400
      5 O20         2.6270    1.0850   -1.6810 os        1 P00     -0.573200
      6 C19         3.9160    1.5670   -1.4800 c3        1 P00      0.215700
      7 C5          4.1110    2.9090   -2.1200 ca        1 P00     -0.134600
      8 C6          3.0300    3.5460   -2.7660 ca        1 P00      0.372200
      9 N1          3.1030    4.7460   -3.3620 nb        1 P00     -0.658000
     10 C2          4.2890    5.3900   -3.3480 ca        1 P00      0.344600
     11 C7          4.4280    6.7310   -3.9880 c3        1 P00     -0.123400
     12 C3          5.4440    4.8220   -2.7320 ca        1 P00      0.036800
     13 O8          6.5650    5.6100   -2.8010 oh        1 P00     -0.514100
     14 C4          5.3620    3.5600   -2.1060 ca        1 P00     -0.172900
     15 C9          6.4910    2.9120   -1.4300 ce        1 P00      0.384800
     16 N10         7.7360    3.1570   -1.7400 n2        1 P00     -0.458200
     17 O11         8.6360    2.4980   -1.0410 os        1 P00     -0.195300
     18 C12        10.0190    2.8760   -1.3140 c3        1 P00      0.143400
     19 C13        10.5060    2.3110   -2.6290 c3        1 P00     -0.083400
     20 C14        11.9660    2.7150   -2.8690 c3        1 P00      0.022500
     21 N16        12.3670    2.5070   -4.2580 n8        1 P00     -0.888800
     22 C15        12.8980    2.0080   -1.8310 c         1 P00      0.886600
     23 O18        12.7660    2.3190   -0.6140 o         1 P00     -0.847300
     24 O17        13.7600    1.1890   -2.2630 o         1 P00     -0.847300
     25 H3          4.1310    1.6450   -0.3720 h1        1 P00      0.051700
     26 H4          4.6520    0.8520   -1.9580 h1        1 P00      0.051700
     27 H5          2.0460    3.0390   -2.8030 h4        1 P00      0.055100
     28 H6          3.4850    7.0670   -4.4800 hc        1 P00      0.039700
     29 H7          5.2450    6.6890   -4.7510 hc        1 P00      0.039700
     30 H8          4.7200    7.4790   -3.2100 hc        1 P00      0.039700
     31 H9          7.3220    5.1310   -2.4310 ho        1 P00      0.448000
     32 H10         6.2090    2.1830   -0.6400 h4        1 P00      0.016800
     33 H11        10.1310    3.9890   -1.2800 h1        1 P00      0.080200
     34 H12        10.5630    2.4070   -0.4450 h1        1 P00      0.080200
     35 H13         9.8570    2.6850   -3.4640 hc        1 P00      0.040200
     36 H14        10.4220    1.1940   -2.6090 hc        1 P00      0.040200
     37 H15        12.0590    3.8250   -2.6790 h1        1 P00      0.040700
     38 H16         3.1660   -1.1390    0.2250 ho        1 P00      0.424000
     39 H17        13.3740    2.5030   -4.2790 hn        1 P00      0.330300
     40 H163       12.0790    1.5860   -4.5380 hn        1 P00      0.330300
@<TRIPOS>BOND
     1    1    2 1   
     2    2    3 1   
     3    2    4 1   
     4    2    5 1   
     5    4   38 1   
     6    5    6 1   
     7    6    7 1   
     8    6   25 1   
     9    6   26 1   
    10    7    8 ar  
    11    7   14 ar  
    12    8    9 ar  
    13    8   27 1   
    14    9   10 ar  
    15   10   11 1   
    16   10   12 ar  
    17   11   28 1   
    18   11   29 1   
    19   11   30 1   
    20   12   13 1   
    21   12   14 ar  
    22   13   31 1   
    23   14   15 1   
    24   15   16 2   
    25   15   32 1   
    26   16   17 1   
    27   17   18 1   
    28   18   19 1   
    29   18   33 1   
    30   18   34 1   
    31   19   20 1   
    32   19   35 1   
    33   19   36 1   
    34   20   21 1   
    35   20   22 1   
    36   20   37 1   
    37   21   39 1   
    38   21   40 1   
    39   22   23 1   
    40   22   24 1   
@<TRIPOS>SUBSTRUCTURE
     1 P00         1 TEMP              0 ****  ****    0 ROOT
