@<TRIPOS>MOLECULE
P01
   52    46     1     0     0
SMALL
bcc


@<TRIPOS>ATOM
      1 CL1        -3.5340   -6.5500    1.1510 cl        1 P01     -0.019000
      2 C5A        -2.0960   -5.8070    0.5070 c2        1 P01     -0.059000
      3 C6A        -2.1800   -4.5810   -0.1370 c2        1 P01     -0.071000
      4 C1A        -1.0270   -3.9400   -0.5620 c1        1 P01      0.040000
      5 C2A         0.2160   -4.5270   -0.3430 c1        1 P01     -0.133500
      6 C3A         0.3000   -5.7530    0.3000 c1        1 P01     -0.133500
      7 C4A        -0.8550   -6.3940    0.7250 c1        1 P01     -0.122000
      8 N6         -1.1200   -2.7100   -1.3050 n3        1 P01     -0.240000
      9 C6         -0.8890   -1.4490   -0.6420 c2        1 P01      0.243000
     10 C5         -1.8240   -0.7850    0.1500 c1        1 P01     -0.245000
     11 N7         -3.0150   -1.1810    0.6840 n1        1 P01     -0.144000
     12 C4         -1.6090    0.5000    0.5170 c1        1 P01      0.096000
     13 N9         -2.6700    0.9040    1.2820 n1        1 P01     -0.144000
     14 C10        -3.3770    1.8430    2.1600 c2        1 P01      0.053000
     15 C11        -3.2200    3.2710    1.6180 c3        1 P01     -0.230500
     16 C12        -2.7910    1.7660    3.5690 c3        1 P01     -0.230500
     17 C8         -3.5330   -0.1350    1.3820 c1        1 P01     -0.061000
     18 N3         -0.4750    1.1430    0.1100 n1        1 P01     -0.251000
     19 C2          0.4420    0.4900   -0.6680 c1        1 P01      0.194000
     20 N1          0.2250   -0.8120   -1.0400 n2        1 P01     -0.305000
     21 N21         1.2620    1.3380   -1.4510 n3        1 P01     -0.259000
     22 C22         2.6200    1.4980   -1.1250 c3        1 P01      0.024000
     23 C25         2.9390    2.9940   -0.9740 c3        1 P01     -0.110000
     24 C26         3.3350    3.5680   -2.3260 c3        1 P01     -0.209500
     25 C27         4.0720    3.1670   -0.0080 c3        1 P01     -0.209500
     26 C23         3.4710    0.9090   -2.2180 c3        1 P01     -0.042000
     27 O24         3.8310   -0.4120   -1.8740 oh        1 P01     -0.335000
     28 H6A        -3.0510   -4.1690   -0.2900 ha        1 P01      0.166000
     29 H2A         1.0310   -4.0750   -0.6430 ha        1 P01      0.137500
     30 H3A         1.1730   -6.1660    0.4540 ha        1 P01      0.137500
     31 H4A        -0.7950   -7.2590    1.1790 ha        1 P01      0.146000
     32 HN6        -1.4030   -2.7240   -2.1760 hn        1 P01      0.227000
     33 H10        -4.3270    1.6090    2.1900 ha        1 P01      0.093000
     34 H111       -3.8940    3.8560    2.0360 hc        1 P01      0.090500
     35 H112       -2.3220    3.6050    1.8300 hc        1 P01      0.090500
     36 H113       -3.3470    3.2680    0.6440 hc        1 P01      0.090500
     37 H121       -2.7320    0.8280    3.8480 hc        1 P01      0.090500
     38 H122       -3.3700    2.2580    4.1910 hc        1 P01      0.090500
     39 H123       -1.8940    2.1650    3.5730 hc        1 P01      0.090500
     40 H8         -4.3940   -0.1230    1.8460 DU        1 P01      0.199000
     41 H21         0.9290    1.7220   -2.2020 hn        1 P01      0.227000
     42 H22         2.8090    1.0360   -0.2780 h1        1 P01      0.110000
     43 H25         2.1520    3.4630   -0.6390 hc        1 P01      0.118000
     44 H261        2.8420    3.1100   -3.0300 hc        1 P01      0.074167
     45 H262        3.1220    4.5310   -2.3500 hc        1 P01      0.074167
     46 H263        4.3010    3.4420   -2.4670 hc        1 P01      0.074167
     47 H271        4.1420    4.1080    0.2470 hc        1 P01      0.074167
     48 H272        4.9060    2.8800   -0.4300 hc        1 P01      0.074167
     49 H273        3.9070    2.6250    0.7880 hc        1 P01      0.074167
     50 H231        4.2740    1.4460   -2.3290 h1        1 P01      0.076500
     51 H232        2.9640    0.9010   -3.0590 h1        1 P01      0.076500
     52 H24         4.4810   -0.6900   -2.4100 ho        1 P01      0.204000
@<TRIPOS>BOND
     1    1    2 1   
     2    2    3 1   
     3    2    7 1   
     4    3    4 1   
     5    3   28 1   
     6    4    8 1   
     7    5    6 1   
     8    5   29 1   
     9    6   30 1   
    10    7   31 1   
    11    8    9 1   
    12    8   32 1   
    13    9   10 1   
    14    9   20 1   
    15   11   17 1   
    16   12   18 1   
    17   13   17 1   
    18   14   15 1   
    19   14   16 1   
    20   14   33 1   
    21   15   34 1   
    22   15   35 1   
    23   15   36 1   
    24   16   37 1   
    25   16   38 1   
    26   16   39 1   
    27   19   20 1   
    28   19   21 1   
    29   21   22 1   
    30   21   41 1   
    31   22   23 1   
    32   22   26 1   
    33   22   42 1   
    34   23   24 1   
    35   23   25 1   
    36   23   43 1   
    37   24   44 1   
    38   24   45 1   
    39   24   46 1   
    40   25   47 1   
    41   25   48 1   
    42   25   49 1   
    43   26   27 1   
    44   26   50 1   
    45   26   51 1   
    46   27   52 1   
@<TRIPOS>SUBSTRUCTURE
     1 P01         1 TEMP              0 ****  ****    0 ROOT
