@<TRIPOS>MOLECULE
P01
   54    56     1     0     0
SMALL
bcc


@<TRIPOS>ATOM
      1 CL1         0.7790   -0.4210    3.0470 cl        1 P01      0.005600
      2 C5A         1.9030   -0.5210    1.7950 ca        1 P01      0.029400
      3 C6A         3.2330   -0.8370    2.0910 ca        1 P01     -0.102000
      4 C1A         4.1570   -0.9210    1.0360 ca        1 P01     -0.060400
      5 C2A         3.7710   -0.6860   -0.2950 ca        1 P01     -0.104000
      6 C3A         2.4380   -0.3780   -0.5620 ca        1 P01     -0.095000
      7 C4A         1.5030   -0.2940    0.4690 ca        1 P01     -0.058000
      8 N6          5.5450   -1.3130    1.3290 n4        1 P01     -0.608100
      9 C6          6.4000   -0.1590    1.6900 ca        1 P01      0.566200
     10 C5          6.5900    0.1550    3.0510 ca        1 P01     -0.090200
     11 N7          6.1380   -0.3950    4.2430 nc        1 P01     -0.570100
     12 C4          7.4740    1.3180    3.3370 ca        1 P01      0.449800
     13 N9          7.5080    1.4120    4.7340 na        1 P01     -0.214000
     14 C10         8.2530    2.3840    5.5400 c3        1 P01      0.040000
     15 C11         7.3310    3.1930    6.4500 c3        1 P01     -0.123100
     16 C12         9.3430    1.7140    6.3750 c3        1 P01     -0.123100
     17 C8          6.6990    0.3670    5.2150 cd        1 P01      0.532700
     18 N3          8.0680    2.0500    2.3670 nb        1 P01     -0.597000
     19 C2          7.7840    1.6190    1.0950 ca        1 P01      0.728900
     20 N1          6.9850    0.5660    0.7040 nb        1 P01     -0.678000
     21 N21         8.4430    2.3790   -0.0080 n4        1 P01     -0.739700
     22 C22         7.5170    3.3860   -0.6610 c3        1 P01      0.098500
     23 C25         8.0120    3.7730   -2.0730 c3        1 P01     -0.085700
     24 C26         8.5070    2.5950   -2.8870 c3        1 P01     -0.116600
     25 C27         6.8720    4.4490   -2.8160 c3        1 P01     -0.116600
     26 C23         7.4110    4.6430    0.2390 c3        1 P01      0.110400
     27 O24         8.7040    5.0900    0.5760 oh        1 P01     -0.607800
     28 H6A         3.5300   -1.0250    3.1380 ha        1 P01      0.181000
     29 H2A         4.4900   -0.7550   -1.1270 ha        1 P01      0.159000
     30 H3A         2.1190   -0.2080   -1.6050 ha        1 P01      0.182000
     31 H4A         0.4480   -0.0560    0.2410 ha        1 P01      0.193000
     32 HN6         5.9340   -1.7940    0.5020 hn        1 P01      0.487800
     33 H10         8.7450    3.0920    4.8040 h1        1 P01      0.100700
     34 H111        6.8450    2.5450    7.2190 hc        1 P01      0.071700
     35 H112        7.9520    3.9600    6.9780 hc        1 P01      0.071700
     36 H113        6.5400    3.7240    5.8680 hc        1 P01      0.071700
     37 H121       10.0590    1.1450    5.7360 hc        1 P01      0.071700
     38 H122        9.9110    2.5160    6.9110 hc        1 P01      0.071700
     39 H123        8.9060    1.0240    7.1370 hc        1 P01      0.071700
     40 H8          6.5480    0.2040    6.3000 h5        1 P01      0.129800
     41 H21         8.7800    1.7080   -0.7140 hn        1 P01      0.490300
     42 H22         6.4990    2.9050   -0.7490 hx        1 P01      0.111700
     43 H25         8.8570    4.5110   -1.9520 hc        1 P01      0.082700
     44 H261        9.5270    2.2660   -2.5710 hc        1 P01      0.062700
     45 H262        8.5890    2.8960   -3.9640 hc        1 P01      0.062700
     46 H263        7.7970    1.7340   -2.8330 hc        1 P01      0.062700
     47 H271        7.2310    4.7710   -3.8270 hc        1 P01      0.062700
     48 H272        6.0160    3.7460   -2.9560 hc        1 P01      0.062700
     49 H273        6.5100    5.3580   -2.2790 hc        1 P01      0.062700
     50 H231        6.8030    5.4180   -0.2950 h1        1 P01      0.089200
     51 H232        6.9060    4.3830    1.2100 h1        1 P01      0.089200
     52 H24         8.8990    5.8910    0.0690 ho        1 P01      0.447000
     53 H62         5.5440   -1.9670    2.1310 hn        1 P01      0.487800
     54 H212        9.2520    2.9050    0.3770 hn        1 P01      0.490300
@<TRIPOS>BOND
     1    1    2 1   
     2    2    3 ar  
     3    2    7 ar  
     4    3    4 ar  
     5    3   28 1   
     6    4    5 ar  
     7    4    8 1   
     8    5    6 ar  
     9    5   29 1   
    10    6    7 ar  
    11    6   30 1   
    12    7   31 1   
    13    8    9 1   
    14    8   32 1   
    15    8   53 1   
    16    9   10 ar  
    17    9   20 ar  
    18   10   11 1   
    19   10   12 ar  
    20   11   17 2   
    21   12   13 1   
    22   12   18 ar  
    23   13   14 1   
    24   13   17 1   
    25   14   15 1   
    26   14   16 1   
    27   14   33 1   
    28   15   34 1   
    29   15   35 1   
    30   15   36 1   
    31   16   37 1   
    32   16   38 1   
    33   16   39 1   
    34   17   40 1   
    35   18   19 ar  
    36   19   20 ar  
    37   19   21 1   
    38   21   22 1   
    39   21   41 1   
    40   21   54 1   
    41   22   23 1   
    42   22   26 1   
    43   22   42 1   
    44   23   24 1   
    45   23   25 1   
    46   23   43 1   
    47   24   44 1   
    48   24   45 1   
    49   24   46 1   
    50   25   47 1   
    51   25   48 1   
    52   25   49 1   
    53   26   27 1   
    54   26   50 1   
    55   26   51 1   
    56   27   52 1   
@<TRIPOS>SUBSTRUCTURE
     1 P01         1 TEMP              0 ****  ****    0 ROOT
