@<TRIPOS>MOLECULE
P01
   52    54     1     0     0
SMALL
bcc


@<TRIPOS>ATOM
      1 Cl1        -0.2260   -0.3300    0.6560 cl        1 P01     -0.096400
      2 C5A         1.4440   -0.2870    0.3260 ca        1 P01      0.036400
      3 C6A         2.3450   -0.2420    1.3890 ca        1 P01     -0.171000
      4 C1A         3.7360   -0.2090    1.1280 ca        1 P01      0.159600
      5 C2A         4.1800   -0.2250   -0.2110 ca        1 P01     -0.125000
      6 C3A         3.2560   -0.2590   -1.2510 ca        1 P01     -0.110000
      7 C4A         1.8860   -0.2910   -0.9990 ca        1 P01     -0.143000
      8 N6          4.6290   -0.2390    2.2160 nu        1 P01     -0.730300
      9 C6          5.7480    0.5780    2.3530 ca        1 P01      0.778200
     10 C5          6.4540    0.5550    3.5990 ca        1 P01     -0.258200
     11 N7          6.2420   -0.1190    4.8110 nc        1 P01     -0.541100
     12 C4          7.6450    1.3910    3.6900 ca        1 P01      0.494800
     13 N9          8.1340    1.1940    4.9920 na        1 P01     -0.268000
     14 C10         9.3120    1.7880    5.5820 c3        1 P01      0.056000
     15 C11         8.9850    2.6470    6.8070 c3        1 P01     -0.111600
     16 C12        10.3640    0.7470    5.9720 c3        1 P01     -0.111600
     17 C8          7.2450    0.2760    5.6070 cd        1 P01      0.400700
     18 N3          8.1140    2.1810    2.6900 nb        1 P01     -0.782000
     19 C2          7.3590    2.1050    1.5290 ca        1 P01      0.912900
     20 N1          6.1910    1.3680    1.3400 nb        1 P01     -0.822000
     21 N21         7.8870    2.7940    0.4160 nu        1 P01     -0.804900
     22 C22         7.0310    3.1680   -0.6960 c3        1 P01      0.215500
     23 C25         7.8770    3.6210   -1.9130 c3        1 P01     -0.067700
     24 C26         8.9310    2.5910   -2.2660 c3        1 P01     -0.089100
     25 C27         6.9770    3.8640   -3.1080 c3        1 P01     -0.089100
     26 C23         6.0100    4.2690   -0.3250 c3        1 P01      0.094400
     27 O24         6.7340    5.4500   -0.0200 oh        1 P01     -0.608800
     28 H6A         1.9680   -0.2370    2.4240 ha        1 P01      0.148000
     29 H2A         5.2550   -0.2140   -0.4470 ha        1 P01      0.161000
     30 H3A         3.6150   -0.2690   -2.2910 ha        1 P01      0.138000
     31 H4A         1.1660   -0.3220   -1.8290 ha        1 P01      0.148000
     32 HN6         4.2580   -0.5940    3.0730 hn        1 P01      0.458800
     33 H10         9.7660    2.4640    4.7930 h1        1 P01      0.091700
     34 H111        8.2610    3.4550    6.5480 hc        1 P01      0.047533
     35 H112        9.9290    3.1180    7.1730 hc        1 P01      0.047533
     36 H113        8.5530    2.0260    7.6280 hc        1 P01      0.047533
     37 H121       11.2630    1.2780    6.3650 hc        1 P01      0.047533
     38 H122       10.6680    0.1350    5.0890 hc        1 P01      0.047533
     39 H123        9.9760    0.0630    6.7650 hc        1 P01      0.047533
     40 H8          7.4040   -0.0510    6.6410 h5        1 P01      0.070800
     41 H21         8.5490    3.5080    0.6540 hn        1 P01      0.430800
     42 H22         6.4350    2.2610   -1.0120 h1        1 P01      0.086700
     43 H25         8.3840    4.5910   -1.6450 hc        1 P01      0.066700
     44 H261        9.7210    2.5360   -1.4800 hc        1 P01      0.036533
     45 H262        9.4220    2.8620   -3.2320 hc        1 P01      0.036533
     46 H263        8.4690    1.5800   -2.3750 hc        1 P01      0.036533
     47 H271        6.2960    2.9960   -3.2780 hc        1 P01      0.036533
     48 H272        7.5960    4.0090   -4.0270 hc        1 P01      0.036533
     49 H273        6.3600    4.7820   -2.9610 hc        1 P01      0.036533
     50 H231        5.3990    3.9510    0.5620 h1        1 P01      0.037700
     51 H232        5.3200    4.4510   -1.1900 h1        1 P01      0.037700
     52 H24         6.0880    6.0990    0.2810 ho        1 P01      0.403000
@<TRIPOS>BOND
     1    1    2 1   
     2    2    3 ar  
     3    2    7 ar  
     4    3    4 ar  
     5    3   28 1   
     6    4    5 ar  
     7    4    8 1   
     8    5    6 ar  
     9    5   29 1   
    10    6    7 ar  
    11    6   30 1   
    12    7   31 1   
    13    8    9 1   
    14    8   32 1   
    15    9   10 ar  
    16    9   20 ar  
    17   10   11 1   
    18   10   12 ar  
    19   11   17 2   
    20   12   13 1   
    21   12   18 ar  
    22   13   14 1   
    23   13   17 1   
    24   14   15 1   
    25   14   16 1   
    26   14   33 1   
    27   15   34 1   
    28   15   35 1   
    29   15   36 1   
    30   16   37 1   
    31   16   38 1   
    32   16   39 1   
    33   17   40 1   
    34   18   19 ar  
    35   19   20 ar  
    36   19   21 1   
    37   21   22 1   
    38   21   41 1   
    39   22   23 1   
    40   22   26 1   
    41   22   42 1   
    42   23   24 1   
    43   23   25 1   
    44   23   43 1   
    45   24   44 1   
    46   24   45 1   
    47   24   46 1   
    48   25   47 1   
    49   25   48 1   
    50   25   49 1   
    51   26   27 1   
    52   26   50 1   
    53   26   51 1   
    54   27   52 1   
@<TRIPOS>SUBSTRUCTURE
     1 P01         1 TEMP              0 ****  ****    0 ROOT
