@<TRIPOS>MOLECULE
P01
   52    54     1     0     0
SMALL
bcc


@<TRIPOS>ATOM
      1 CL1         5.3140   -3.4410   -0.7940 cl        1 P01     -0.096400
      2 C5A         4.2650   -2.3710    0.0140 ca        1 P01      0.036400
      3 C6A         2.8910   -2.6010   -0.0340 ca        1 P01     -0.171000
      4 C1A         2.0090   -1.7220    0.6370 ca        1 P01      0.159600
      5 C2A         2.5450   -0.6260    1.3460 ca        1 P01     -0.125000
      6 C3A         3.9210   -0.4170    1.3680 ca        1 P01     -0.110000
      7 C4A         4.7930   -1.2800    0.7090 ca        1 P01     -0.143000
      8 N6          0.6310   -2.0140    0.6360 nh        1 P01     -0.730300
      9 C6         -0.3810   -1.0890    0.3980 ca        1 P01      0.778200
     10 C5         -1.7210   -1.5750    0.2510 ca        1 P01     -0.258200
     11 N7         -2.2820   -2.8610    0.2550 nc        1 P01     -0.541100
     12 C4         -2.7600   -0.5730    0.0450 ca        1 P01      0.494800
     13 N9         -3.9540   -1.3020   -0.0730 na        1 P01     -0.268000
     14 C10        -5.2840   -0.7720   -0.2750 c3        1 P01      0.056000
     15 C11        -5.9190   -1.2590   -1.5800 c3        1 P01     -0.111600
     16 C12        -6.2280   -1.0960    0.8870 c3        1 P01     -0.111600
     17 C8         -3.5940   -2.6660    0.0630 cd        1 P01      0.400700
     18 N3         -2.5410    0.7650   -0.0230 nb        1 P01     -0.782000
     19 C2         -1.2110    1.1160    0.1520 ca        1 P01      0.912900
     20 N1         -0.1350    0.2460    0.3240 nb        1 P01     -0.822000
     21 N21        -0.9540    2.5010    0.2350 nh        1 P01     -0.804900
     22 C22         0.3780    3.0220   -0.0220 c3        1 P01      0.215500
     23 C25         0.4860    4.5000    0.4310 c3        1 P01     -0.067700
     24 C26         0.0220    4.6740    1.8620 c3        1 P01     -0.089100
     25 C27         1.9170    4.9810    0.2950 c3        1 P01     -0.089100
     26 C23         0.7990    2.8930   -1.5040 c3        1 P01      0.094400
     27 O24        -0.0610    3.7160   -2.2760 oh        1 P01     -0.608800
     28 H6A         2.5030   -3.4680   -0.5910 ha        1 P01      0.148000
     29 H2A         1.8870    0.0690    1.8910 ha        1 P01      0.161000
     30 H3A         4.3260    0.4430    1.9230 ha        1 P01      0.138000
     31 H4A         5.8780   -1.1060    0.7370 ha        1 P01      0.148000
     32 HN6         0.3900   -2.9640    0.4440 hn        1 P01      0.458800
     33 H10        -5.1800    0.3550   -0.3360 h1        1 P01      0.091700
     34 H111       -6.0650   -2.3660   -1.5670 hc        1 P01      0.047533
     35 H112       -6.9140   -0.7680   -1.6970 hc        1 P01      0.047533
     36 H113       -5.2840   -0.9920   -2.4580 hc        1 P01      0.047533
     37 H121       -7.2130   -0.6100    0.6910 hc        1 P01      0.047533
     38 H122       -6.3840   -2.1970    0.9820 hc        1 P01      0.047533
     39 H123       -5.8230   -0.7070    1.8510 hc        1 P01      0.047533
     40 H8         -4.3530   -3.4550    0.0110 h5        1 P01      0.070800
     41 H21        -1.6770    3.0750   -0.1550 hn        1 P01      0.430800
     42 H22         1.1210    2.4230    0.5840 h1        1 P01      0.086700
     43 H25        -0.1660    5.1220   -0.2460 hc        1 P01      0.066700
     44 H261        0.2520    5.7090    2.2160 hc        1 P01      0.036533
     45 H262       -1.0790    4.5160    1.9520 hc        1 P01      0.036533
     46 H263        0.5390    3.9470    2.5330 hc        1 P01      0.036533
     47 H271        2.6260    4.2650    0.7760 hc        1 P01      0.036533
     48 H272        2.1960    5.0960   -0.7800 hc        1 P01      0.036533
     49 H273        2.0320    5.9770    0.7890 hc        1 P01      0.036533
     50 H231        1.8630    3.2250   -1.6250 h1        1 P01      0.037700
     51 H232        0.7150    1.8250   -1.8410 h1        1 P01      0.037700
     52 H24         0.1670    3.5640   -3.2000 ho        1 P01      0.403000
@<TRIPOS>BOND
     1    1    2 1   
     2    2    3 ar  
     3    2    7 ar  
     4    3    4 ar  
     5    3   28 1   
     6    4    5 ar  
     7    4    8 1   
     8    5    6 ar  
     9    5   29 1   
    10    6    7 ar  
    11    6   30 1   
    12    7   31 1   
    13    8    9 1   
    14    8   32 1   
    15    9   10 ar  
    16    9   20 ar  
    17   10   11 1   
    18   10   12 ar  
    19   11   17 2   
    20   12   13 1   
    21   12   18 ar  
    22   13   14 1   
    23   13   17 1   
    24   14   15 1   
    25   14   16 1   
    26   14   33 1   
    27   15   34 1   
    28   15   35 1   
    29   15   36 1   
    30   16   37 1   
    31   16   38 1   
    32   16   39 1   
    33   17   40 1   
    34   18   19 ar  
    35   19   20 ar  
    36   19   21 1   
    37   21   22 1   
    38   21   41 1   
    39   22   23 1   
    40   22   26 1   
    41   22   42 1   
    42   23   24 1   
    43   23   25 1   
    44   23   43 1   
    45   24   44 1   
    46   24   45 1   
    47   24   46 1   
    48   25   47 1   
    49   25   48 1   
    50   25   49 1   
    51   26   27 1   
    52   26   50 1   
    53   26   51 1   
    54   27   52 1   
@<TRIPOS>SUBSTRUCTURE
     1 P01         1 TEMP              0 ****  ****    0 ROOT
