@<TRIPOS>MOLECULE
P01
   52    54     1     0     0
SMALL
bcc


@<TRIPOS>ATOM
      1 CL1        -0.2260   -0.3350    0.6610 cl        1 P01     -0.096400
      2 C5A         1.4430   -0.2900    0.3310 ca        1 P01      0.036400
      3 C6A         2.3460   -0.2440    1.3920 ca        1 P01     -0.171000
      4 C1A         3.7360   -0.2100    1.1300 ca        1 P01      0.159600
      5 C2A         4.1790   -0.2270   -0.2090 ca        1 P01     -0.125000
      6 C3A         3.2540   -0.2620   -1.2480 ca        1 P01     -0.110000
      7 C4A         1.8850   -0.2950   -0.9950 ca        1 P01     -0.143000
      8 N6          4.6300   -0.2390    2.2170 nh        1 P01     -0.730300
      9 C6          5.7500    0.5780    2.3530 ca        1 P01      0.778200
     10 C5          6.4560    0.5560    3.5980 ca        1 P01     -0.258200
     11 N7          6.2450   -0.1170    4.8110 nc        1 P01     -0.541100
     12 C4          7.6470    1.3930    3.6890 ca        1 P01      0.494800
     13 N9          8.1360    1.1970    4.9900 na        1 P01     -0.268000
     14 C10         9.3140    1.7920    5.5790 c3        1 P01      0.056000
     15 C11         8.9890    2.6500    6.8050 c3        1 P01     -0.111600
     16 C12        10.3680    0.7510    5.9660 c3        1 P01     -0.111600
     17 C8          7.2480    0.2790    5.6060 cd        1 P01      0.400700
     18 N3          8.1140    2.1820    2.6870 nb        1 P01     -0.782000
     19 C2          7.3590    2.1060    1.5270 ca        1 P01      0.912900
     20 N1          6.1910    1.3680    1.3390 nb        1 P01     -0.822000
     21 N21         7.8860    2.7940    0.4130 nh        1 P01     -0.805900
     22 C22         7.0290    3.1670   -0.6990 c3        1 P01      0.215500
     23 C25         7.8740    3.6200   -1.9160 c3        1 P01     -0.067700
     24 C26         8.9270    2.5900   -2.2700 c3        1 P01     -0.089100
     25 C27         6.9730    3.8620   -3.1110 c3        1 P01     -0.089100
     26 C23         6.0080    4.2680   -0.3270 c3        1 P01      0.094400
     27 O24         6.7310    5.4490   -0.0230 oh        1 P01     -0.608800
     28 H6A         1.9700   -0.2390    2.4270 ha        1 P01      0.148000
     29 H2A         5.2540   -0.2150   -0.4470 ha        1 P01      0.161000
     30 H3A         3.6130   -0.2710   -2.2890 ha        1 P01      0.138000
     31 H4A         1.1640   -0.3270   -1.8250 ha        1 P01      0.148000
     32 HN6         4.2600   -0.5940    3.0750 hn        1 P01      0.458800
     33 H10         9.7670    2.4690    4.7900 h1        1 P01      0.091700
     34 H111        9.9320    3.1210    7.1700 hc        1 P01      0.047533
     35 H112        8.2630    3.4570    6.5470 hc        1 P01      0.047533
     36 H113        8.5580    2.0280    7.6260 hc        1 P01      0.047533
     37 H121       10.6710    0.1410    5.0830 hc        1 P01      0.047533
     38 H122        9.9820    0.0670    6.7600 hc        1 P01      0.047533
     39 H123       11.2680    1.2830    6.3580 hc        1 P01      0.047533
     40 H8          7.4080   -0.0480    6.6400 h5        1 P01      0.070800
     41 H21         8.5480    3.5090    0.6500 hn        1 P01      0.430800
     42 H22         6.4330    2.2590   -1.0140 h1        1 P01      0.086700
     43 H25         8.3810    4.5900   -1.6490 hc        1 P01      0.066700
     44 H261        9.7180    2.5350   -1.4850 hc        1 P01      0.036533
     45 H262        8.4660    1.5790   -2.3780 hc        1 P01      0.036533
     46 H263        9.4190    2.8610   -3.2360 hc        1 P01      0.036533
     47 H271        6.3560    4.7810   -2.9630 hc        1 P01      0.036533
     48 H272        7.5920    4.0080   -4.0300 hc        1 P01      0.036533
     49 H273        6.2920    2.9940   -3.2800 hc        1 P01      0.036533
     50 H231        5.3170    4.4490   -1.1920 h1        1 P01      0.037700
     51 H232        5.3970    3.9500    0.5600 h1        1 P01      0.037700
     52 H24         6.0850    6.0990    0.2770 ho        1 P01      0.403000
@<TRIPOS>BOND
     1    1    2 1   
     2    2    3 ar  
     3    2    7 ar  
     4    3    4 ar  
     5    3   28 1   
     6    4    5 ar  
     7    4    8 1   
     8    5    6 ar  
     9    5   29 1   
    10    6    7 ar  
    11    6   30 1   
    12    7   31 1   
    13    8    9 1   
    14    8   32 1   
    15    9   10 ar  
    16    9   20 ar  
    17   10   11 1   
    18   10   12 ar  
    19   11   17 2   
    20   12   13 1   
    21   12   18 ar  
    22   13   14 1   
    23   13   17 1   
    24   14   15 1   
    25   14   16 1   
    26   14   33 1   
    27   15   34 1   
    28   15   35 1   
    29   15   36 1   
    30   16   37 1   
    31   16   38 1   
    32   16   39 1   
    33   17   40 1   
    34   18   19 ar  
    35   19   20 ar  
    36   19   21 1   
    37   21   22 1   
    38   21   41 1   
    39   22   23 1   
    40   22   26 1   
    41   22   42 1   
    42   23   24 1   
    43   23   25 1   
    44   23   43 1   
    45   24   44 1   
    46   24   45 1   
    47   24   46 1   
    48   25   47 1   
    49   25   48 1   
    50   25   49 1   
    51   26   27 1   
    52   26   50 1   
    53   26   51 1   
    54   27   52 1   
@<TRIPOS>SUBSTRUCTURE
     1 P01         1 TEMP              0 ****  ****    0 ROOT
