@<TRIPOS>MOLECULE
P02
   57    59     1     0     0
SMALL
bcc


@<TRIPOS>ATOM
      1 C1          1.0740   -2.1330    1.6580 c3        1 P02     -0.129100
      2 C5          3.3590   -0.4680    2.4230 c3        1 P02      0.074100
      3 C9          2.1750   -1.7430    0.6920 c3        1 P02      0.101800
      4 O12         1.1830    0.6990   -0.5320 o         1 P02     -0.560300
      5 O13         0.9610    1.1130    1.8340 o         1 P02     -0.560300
      6 N14         2.8840   -0.4780    1.0330 n4        1 P02     -0.614300
      7 S15         1.7390    1.0590    0.6850 s6        1 P02      1.509800
      8 C19         8.0940    5.7410   -1.6150 ca        1 P02      0.870900
      9 N20         7.8200    4.3910   -1.4270 nb        1 P02     -0.759000
     10 C21         8.5530    3.5200   -2.1630 ca        1 P02      0.544800
     11 C22         8.3220    2.0920   -2.0010 cc        1 P02     -0.253900
     12 C23         7.1050    1.4470   -1.7400 cd        1 P02      0.388800
     13 C24         5.8010    2.0990   -1.6380 ca        1 P02     -0.086500
     14 C25         5.3530    2.9450   -2.6600 ca        1 P02     -0.039000
     15 C27         4.0960    3.5410   -2.5930 ca        1 P02     -0.121000
     16 C29         3.2510    3.2980   -1.5140 ca        1 P02     -0.070000
     17 C31         3.6620    2.4440   -0.4750 ca        1 P02     -0.000400
     18 N32         2.8160    2.1970    0.6390 nh        1 P02     -0.788500
     19 C34         4.9640    1.8610   -0.5290 ca        1 P02      0.135900
     20 F35         5.3750    1.0700    0.4930 f         1 P02     -0.143900
     21 N36         7.1970    0.0630   -1.6090 nd        1 P02     -0.642000
     22 C37         8.4680   -0.3170   -1.7750 cc        1 P02      0.405700
     23 C38         8.9530   -1.7380   -1.7170 c3        1 P02     -0.085300
     24 C39        10.4600   -1.7600   -1.9460 c3        1 P02     -0.092433
     25 C43         8.6420   -2.3320   -0.3490 c3        1 P02     -0.092433
     26 C47         8.2650   -2.5590   -2.8010 c3        1 P02     -0.092433
     27 S51         9.5630    0.9660   -2.0810 ss        1 P02      0.009700
     28 C52         9.5500    3.9460   -3.0680 ca        1 P02     -0.416600
     29 C54         9.7620    5.3350   -3.1740 ca        1 P02      0.478200
     30 N56         9.0740    6.2410   -2.4750 nb        1 P02     -0.730000
     31 H1          0.5410   -3.0210    1.2330 hc        1 P02      0.075367
     32 H2          0.3290   -1.3110    1.8000 hc        1 P02      0.075367
     33 H3          1.4880   -2.4170    2.6560 hc        1 P02      0.075367
     34 H4          2.4870   -0.3050    3.1160 hx        1 P02      0.100700
     35 H5          4.1170    0.3520    2.5490 hx        1 P02      0.100700
     36 H6          3.8480   -1.4450    2.6890 hx        1 P02      0.100700
     37 H7          1.7480   -1.6120   -0.3470 hx        1 P02      0.103200
     38 H8          2.9350   -2.5780    0.6500 hx        1 P02      0.103200
     39 H9          6.8140    6.3410   -0.1350 hn        1 P02      0.431300
     40 H10         7.6190    7.6030   -0.9160 hn        1 P02      0.431300
     41 H11         6.0130    3.1410   -3.5230 ha        1 P02      0.170000
     42 H12         3.7640    4.2130   -3.4010 ha        1 P02      0.168000
     43 H13         2.2580    3.7770   -1.4840 ha        1 P02      0.158000
     44 H14         3.0060    2.8120    1.4070 hn        1 P02      0.501800
     45 H15        10.7130   -1.3340   -2.9480 hc        1 P02      0.047811
     46 H16        10.8310   -2.8130   -1.9090 hc        1 P02      0.047811
     47 H17        10.9880   -1.1730   -1.1550 hc        1 P02      0.047811
     48 H18         9.1150   -1.7240    0.4580 hc        1 P02      0.047811
     49 H19         9.0420   -3.3730   -0.2940 hc        1 P02      0.047811
     50 H20         7.5400   -2.3630   -0.1780 hc        1 P02      0.047811
     51 H21         8.6500   -3.6070   -2.7760 hc        1 P02      0.047811
     52 H22         8.4700   -2.1270   -3.8090 hc        1 P02      0.047811
     53 H23         7.1610   -2.5800   -2.6360 hc        1 P02      0.047811
     54 H24        10.1330    3.2340   -3.6620 ha        1 P02      0.161000
     55 H25        10.5340    5.7410   -3.8570 h4        1 P02      0.041100
     56 H141        3.7060   -0.4340    0.4240 hn        1 P02      0.450800
     57 N16         7.2880    6.6650   -0.9460 nh        1 P02     -0.922500
@<TRIPOS>BOND
     1    1    3 1   
     2    1   31 1   
     3    1   32 1   
     4    1   33 1   
     5    2    6 1   
     6    2   34 1   
     7    2   35 1   
     8    2   36 1   
     9    3    6 1   
    10    3   37 1   
    11    3   38 1   
    12    4    7 2   
    13    5    7 2   
    14    6    7 1   
    15    6   56 1   
    16    7   18 1   
    17    8    9 ar  
    18    8   30 ar  
    19    8   57 1   
    20    9   10 ar  
    21   10   11 1   
    22   10   28 ar  
    23   11   12 2   
    24   11   27 1   
    25   12   13 1   
    26   12   21 1   
    27   13   14 ar  
    28   13   19 ar  
    29   14   15 ar  
    30   14   41 1   
    31   15   16 ar  
    32   15   42 1   
    33   16   17 ar  
    34   16   43 1   
    35   17   18 1   
    36   17   19 ar  
    37   18   44 1   
    38   19   20 1   
    39   21   22 2   
    40   22   23 1   
    41   22   27 1   
    42   23   24 1   
    43   23   25 1   
    44   23   26 1   
    45   24   45 1   
    46   24   46 1   
    47   24   47 1   
    48   25   48 1   
    49   25   49 1   
    50   25   50 1   
    51   26   51 1   
    52   26   52 1   
    53   26   53 1   
    54   28   29 ar  
    55   28   54 1   
    56   29   30 ar  
    57   29   55 1   
    58   39   57 1   
    59   40   57 1   
@<TRIPOS>SUBSTRUCTURE
     1 P02         1 TEMP              0 ****  ****    0 ROOT
