@<TRIPOS>MOLECULE
P02
   57    59     1     0     0
SMALL
bcc


@<TRIPOS>ATOM
      1 C1          0.1600   -0.8250    0.5880 c3        1 P02      0.160400
      2 C5          3.1250    0.0960    3.9830 c3        1 P02      0.191100
      3 C9          0.0750   -0.5680   -0.8960 c3        1 P02     -0.138100
      4 O12         1.5070   -0.8080    1.0360 os        1 P02     -0.524500
      5 O13         1.2040    1.3490    2.1340 o         1 P02     -0.584800
      6 N14         3.3370    0.1190    2.5620 n7        1 P02     -0.912100
      7 S15         2.2420    0.6260    1.5300 s6        1 P02      1.635100
      8 C19         8.0220    5.5630   -1.2190 ce        1 P02      0.893500
      9 N20         8.2640    4.1660   -0.9560 nf        1 P02     -0.657300
     10 C21         8.4080    3.3940   -2.0060 cf        1 P02      0.239400
     11 C22         8.4410    1.9420   -1.8520 cc        1 P02     -0.147400
     12 C23         7.3240    1.1030   -1.7060 cc        1 P02      0.049600
     13 C24         5.9270    1.5270   -1.6680 cf        1 P02      0.094800
     14 C25         5.4360    2.3330   -2.8090 c3        1 P02     -0.090000
     15 C27         4.0170    2.7130   -2.7440 c2        1 P02     -0.005200
     16 C29         3.1960    2.3500   -1.7360 ce        1 P02     -0.234000
     17 C31         3.6670    1.5460   -0.6210 ce        1 P02      0.607600
     18 N32         2.8680    1.1930    0.3430 ne        1 P02     -0.809100
     19 C34         5.0950    1.1600   -0.6400 cf        1 P02      0.025500
     20 F35         5.5460    0.4280    0.4120 f         1 P02     -0.149500
     21 N36         7.6330   -0.2520   -1.5910 nc        1 P02     -0.509300
     22 C37         8.9570   -0.4120   -1.6470 cd        1 P02      0.327200
     23 C38         9.6710   -1.7320   -1.5680 c3        1 P02     -0.067300
     24 C39        11.1730   -1.4870   -1.6630 c3        1 P02     -0.095433
     25 C43         9.3500   -2.4100   -0.2410 c3        1 P02     -0.095433
     26 C47         9.2260   -2.6250   -2.7200 c3        1 P02     -0.095433
     27 S51         9.8470    1.0480   -1.8230 ss        1 P02      0.175200
     28 C52         8.4410    3.9220   -3.4140 c3        1 P02     -0.197100
     29 C54         7.7800    5.2650   -3.5080 c1        1 P02      0.228700
     30 N56         7.5530    6.0230   -2.4800 n1        1 P02     -0.816400
     31 H1          0.7360   -1.2720   -1.4570 hc        1 P02      0.057700
     32 H2         -0.1810   -1.8710    0.8390 h1        1 P02      0.087200
     33 H3         -0.4480   -0.0830    1.1750 h1        1 P02      0.087200
     34 H4          2.1780    0.6410    4.2490 h1        1 P02      0.071367
     35 H5          3.9870    0.6000    4.5000 h1        1 P02      0.071367
     36 H6          3.0530   -0.9640    4.3490 h1        1 P02      0.071367
     37 H7         -0.9800   -0.7230   -1.2320 hc        1 P02      0.057700
     38 H8          0.3760    0.4780   -1.1450 hc        1 P02      0.057700
     39 H9          8.5940    6.1340    0.6710 hn        1 P02      0.467800
     40 H10         7.9960    7.3920   -0.3280 hn        1 P02      0.467800
     41 H11         6.0580    3.2790   -2.9050 hc        1 P02      0.144200
     42 H12         5.6200    1.7530   -3.7670 hc        1 P02      0.144200
     43 H13         3.6430    3.3320   -3.5820 ha        1 P02      0.180000
     44 H14         2.1350    2.6610   -1.7310 ha        1 P02      0.183000
     45 H15        11.5230   -0.8390   -0.8230 hc        1 P02      0.051367
     46 H16        11.7160   -2.4610   -1.6030 hc        1 P02      0.051367
     47 H17        11.4330   -1.0000   -2.6350 hc        1 P02      0.051367
     48 H18         9.6480   -1.7590    0.6140 hc        1 P02      0.051367
     49 H19         8.2580   -2.6270   -0.1680 hc        1 P02      0.051367
     50 H20         9.9110   -3.3730   -0.1700 hc        1 P02      0.051367
     51 H21         8.1330   -2.8390   -2.6500 hc        1 P02      0.051367
     52 H22         9.7830   -3.5920   -2.6770 hc        1 P02      0.051367
     53 H23         9.4380   -2.1350   -3.7000 hc        1 P02      0.051367
     54 H24         7.9600    3.2010   -4.1250 hc        1 P02      0.117200
     55 H25         9.5050    4.0610   -3.7590 hc        1 P02      0.117200
     56 H141        4.2080   -0.2870    2.2900 hn        1 P02      0.482800
     57 N16         8.2260    6.4290   -0.2040 nv        1 P02     -0.829800
@<TRIPOS>BOND
     1    1    3 1   
     2    1    4 1   
     3    1   32 1   
     4    1   33 1   
     5    2    6 1   
     6    2   34 1   
     7    2   35 1   
     8    2   36 1   
     9    3   31 1   
    10    3   37 1   
    11    3   38 1   
    12    4    7 1   
    13    5    7 2   
    14    6    7 1   
    15    6   56 1   
    16    7   18 2   
    17    8    9 2   
    18    8   30 1   
    19    8   57 1   
    20    9   10 1   
    21   10   11 2   
    22   10   28 1   
    23   11   12 1   
    24   11   27 1   
    25   12   13 2   
    26   12   21 1   
    27   13   14 1   
    28   13   19 1   
    29   14   15 1   
    30   14   41 1   
    31   14   42 1   
    32   15   16 2   
    33   15   43 1   
    34   16   17 1   
    35   16   44 1   
    36   17   18 1   
    37   17   19 2   
    38   19   20 1   
    39   21   22 2   
    40   22   23 1   
    41   22   27 1   
    42   23   24 1   
    43   23   25 1   
    44   23   26 1   
    45   24   45 1   
    46   24   46 1   
    47   24   47 1   
    48   25   48 1   
    49   25   49 1   
    50   25   50 1   
    51   26   51 1   
    52   26   52 1   
    53   26   53 1   
    54   28   29 1   
    55   28   54 1   
    56   28   55 1   
    57   29   30 3   
    58   39   57 1   
    59   40   57 1   
@<TRIPOS>SUBSTRUCTURE
     1 P02         1 TEMP              0 ****  ****    0 ROOT
