@<TRIPOS>MOLECULE
P03
   37    36     1     0     0
SMALL
bcc


@<TRIPOS>ATOM
      1 C1          1.5140   -6.1540   -3.4410 c3        1 P03      0.127400
      2 O1          0.8930   -7.3830   -3.7600 oh        1 P03     -0.603800
      3 C2          0.4350   -5.0940   -3.1530 c3        1 P03      0.127400
      4 O2          1.0410   -3.9450   -2.5850 os        1 P03     -0.425600
      5 C3          0.1450   -2.8490   -2.3950 c3        1 P03      0.134400
      6 O3          0.4130    0.2310   -0.2700 os        1 P03     -0.419600
      7 C4          0.8630   -1.7310   -1.6380 c3        1 P03     -0.088400
      8 O4         -0.2780    3.8250    2.9250 os        1 P03     -0.425600
      9 C5         -0.1420   -0.6090   -1.2930 c3        1 P03      0.132400
     10 O5         -1.4480    6.2590    5.3170 oh        1 P03     -0.603800
     11 C6         -0.4020    1.3830    0.0510 c3        1 P03      0.132400
     12 C7          0.2310    2.1460    1.2320 c3        1 P03     -0.088400
     13 C8         -0.6940    3.3200    1.6480 c3        1 P03      0.134400
     14 C9         -1.0700    4.8960    3.4090 c3        1 P03      0.127400
     15 C10        -0.6050    5.2790    4.7970 c3        1 P03      0.127400
     16 H1          2.0760   -6.2690   -2.6490 h1        1 P03      0.036700
     17 H1A         2.0670   -5.8610   -4.1960 h1        1 P03      0.036700
     18 HO1         1.5100   -7.9820   -3.9530 ho        1 P03      0.405000
     19 H2         -0.2290   -5.4630   -2.5210 h1        1 P03      0.040700
     20 H2A        -0.0120   -4.8480   -3.9890 h1        1 P03      0.040700
     21 H3         -0.1550   -2.5130   -3.2720 h1        1 P03      0.027700
     22 H3A        -0.6340   -3.1490   -1.8750 h1        1 P03      0.027700
     23 H4          1.2450   -2.0890   -0.8150 hc        1 P03      0.070700
     24 H4A         1.5820   -1.3640   -2.1990 hc        1 P03      0.070700
     25 H5         -0.3230   -0.0720   -2.0960 h1        1 P03      0.025700
     26 H5A        -0.9720   -1.0050   -0.9730 h1        1 P03      0.025700
     27 HO5        -1.1560    6.5070    6.1130 ho        1 P03      0.405000
     28 H6         -1.3030    1.0870    0.2980 h1        1 P03      0.025700
     29 H6A        -0.4540    1.9760   -0.7330 h1        1 P03      0.025700
     30 H7          1.1040    2.4990    0.9630 hc        1 P03      0.070700
     31 H7A         0.3450    1.5390    1.9870 hc        1 P03      0.070700
     32 H8         -1.6210    3.0000    1.7090 h1        1 P03      0.027700
     33 H8A        -0.6370    4.0360    0.9780 h1        1 P03      0.027700
     34 H9         -0.9800    5.6710    2.8070 h1        1 P03      0.040700
     35 H9A        -2.0250    4.6130    3.4450 h1        1 P03      0.040700
     36 H10         0.3000    5.6230    4.7510 h1        1 P03      0.036700
     37 H10A       -0.6240    4.4910    5.3760 h1        1 P03      0.036700
@<TRIPOS>BOND
     1    1    2 1   
     2    1    3 1   
     3    1   16 1   
     4    1   17 1   
     5    2   18 1   
     6    3    4 1   
     7    3   19 1   
     8    3   20 1   
     9    4    5 1   
    10    5    7 1   
    11    5   21 1   
    12    5   22 1   
    13    6    9 1   
    14    6   11 1   
    15    7    9 1   
    16    7   23 1   
    17    7   24 1   
    18    8   13 1   
    19    8   14 1   
    20    9   25 1   
    21    9   26 1   
    22   10   15 1   
    23   10   27 1   
    24   11   12 1   
    25   11   28 1   
    26   11   29 1   
    27   12   13 1   
    28   12   30 1   
    29   12   31 1   
    30   13   32 1   
    31   13   33 1   
    32   14   15 1   
    33   14   34 1   
    34   14   35 1   
    35   15   36 1   
    36   15   37 1   
@<TRIPOS>SUBSTRUCTURE
     1 P03         1 TEMP              0 ****  ****    0 ROOT
