@<TRIPOS>MOLECULE
P03
   37    36     1     0     0
SMALL
bcc


@<TRIPOS>ATOM
      1 C1          0.1210    0.2980    0.0530 c3        1 P03      0.132400
      2 O1          1.5310    0.2520    0.1210 oh        1 P03     -0.599800
      3 C2         -0.5120    0.1570    1.4340 c3        1 P03      0.086400
      4 O2         -0.1490    1.3320    2.1570 os        1 P03     -0.433600
      5 C3         -0.6330    1.3130    3.4980 c3        1 P03      0.134400
      6 O3         -0.2170    3.9200    6.0990 os        1 P03     -0.418600
      7 C4         -0.1880    2.6170    4.1340 c3        1 P03     -0.088400
      8 O4          0.0990    7.0040    9.6520 os        1 P03     -0.433600
      9 C5         -0.6630    2.6710    5.5740 c3        1 P03      0.132400
     10 O5         -0.3190    9.7220   10.4080 oh        1 P03     -0.599800
     11 C6         -0.5960    4.0960    7.4620 c3        1 P03      0.132400
     12 C7         -0.0660    5.4550    7.8820 c3        1 P03     -0.088400
     13 C8         -0.4230    5.7160    9.3330 c3        1 P03      0.134400
     14 C9         -0.1580    7.3720   11.0060 c3        1 P03      0.086400
     15 C10         0.4020    8.7810   11.1740 c3        1 P03      0.132400
     16 H1         -0.1700   -0.5750   -0.5890 h1        1 P03      0.053700
     17 H1A        -0.2120    1.2570   -0.4250 h1        1 P03      0.053700
     18 HO1         1.8070    0.9610    0.7170 ho        1 P03      0.414000
     19 H2         -1.6280    0.0900    1.3520 h1        1 P03      0.038200
     20 H2A        -0.1170   -0.7500    1.9620 h1        1 P03      0.038200
     21 H3         -1.7530    1.2270    3.4920 h1        1 P03      0.027200
     22 H3A        -0.2020    0.4300    4.0410 h1        1 P03      0.027200
     23 H4          0.9280    2.7010    4.0960 hc        1 P03      0.070200
     24 H4A        -0.6050    3.4850    3.5610 hc        1 P03      0.070200
     25 H5         -0.2250    1.8300    6.1760 h1        1 P03      0.025700
     26 H5A        -1.7830    2.6160    5.6330 h1        1 P03      0.025700
     27 HO5        -0.2780    9.4260    9.4890 ho        1 P03      0.414000
     28 H6         -0.1480    3.2770    8.0870 h1        1 P03      0.025700
     29 H6A        -1.7140    4.0530    7.5520 h1        1 P03      0.025700
     30 H7          1.0460    5.4900    7.7480 hc        1 P03      0.070200
     31 H7A        -0.5040    6.2530    7.2290 hc        1 P03      0.070200
     32 H8         -1.5360    5.7140    9.4830 h1        1 P03      0.027200
     33 H8A         0.0380    4.9460   10.0080 h1        1 P03      0.027200
     34 H9         -1.2630    7.3570   11.2000 h1        1 P03      0.038200
     35 H9A         0.3570    6.6570   11.6990 h1        1 P03      0.038200
     36 H10         1.4870    8.7990   10.8880 h1        1 P03      0.053700
     37 H10A        0.2790    9.1140   12.2390 h1        1 P03      0.053700
@<TRIPOS>BOND
     1    1    2 1   
     2    1    3 1   
     3    1   16 1   
     4    1   17 1   
     5    2   18 1   
     6    3    4 1   
     7    3   19 1   
     8    3   20 1   
     9    4    5 1   
    10    5    7 1   
    11    5   21 1   
    12    5   22 1   
    13    6    9 1   
    14    6   11 1   
    15    7    9 1   
    16    7   23 1   
    17    7   24 1   
    18    8   13 1   
    19    8   14 1   
    20    9   25 1   
    21    9   26 1   
    22   10   15 1   
    23   10   27 1   
    24   11   12 1   
    25   11   28 1   
    26   11   29 1   
    27   12   13 1   
    28   12   30 1   
    29   12   31 1   
    30   13   32 1   
    31   13   33 1   
    32   14   15 1   
    33   14   34 1   
    34   14   35 1   
    35   15   36 1   
    36   15   37 1   
@<TRIPOS>SUBSTRUCTURE
     1 P03         1 TEMP              0 ****  ****    0 ROOT
