@<TRIPOS>MOLECULE
P03
   37    36     1     0     0
SMALL
bcc


@<TRIPOS>ATOM
      1 C1          0.0970    0.3110    0.0450 c3        1 P03      0.132400
      2 O1          1.5060    0.2580    0.1090 oh        1 P03     -0.599800
      3 C2         -0.5350    0.1690    1.4260 c3        1 P03      0.086400
      4 O2         -0.1650    1.3400    2.1510 os        1 P03     -0.433600
      5 C3         -0.6460    1.3200    3.4940 c3        1 P03      0.134400
      6 O3         -0.2160    3.9200    6.0990 os        1 P03     -0.418600
      7 C4         -0.1960    2.6220    4.1310 c3        1 P03     -0.088400
      8 O4          0.1130    6.9980    9.6570 os        1 P03     -0.433600
      9 C5         -0.6640    2.6720    5.5730 c3        1 P03      0.132400
     10 O5         -0.3140    9.7110   10.4220 oh        1 P03     -0.599800
     11 C6         -0.5870    4.0920    7.4640 c3        1 P03      0.132400
     12 C7         -0.0580    5.4510    7.8840 c3        1 P03     -0.088400
     13 C8         -0.4050    5.7080    9.3380 c3        1 P03      0.134400
     14 C9         -0.1340    7.3610   11.0140 c3        1 P03      0.086400
     15 C10         0.4190    8.7730   11.1800 c3        1 P03      0.132400
     16 H1         -0.2000   -0.5590   -0.5990 h1        1 P03      0.053700
     17 H1A        -0.2340    1.2720   -0.4310 h1        1 P03      0.053700
     18 HO1         1.7860    0.9640    0.7060 ho        1 P03      0.414000
     19 H2         -1.6510    0.1070    1.3470 h1        1 P03      0.038200
     20 H2A        -0.1420   -0.7420    1.9510 h1        1 P03      0.038200
     21 H3         -1.7660    1.2370    3.4900 h1        1 P03      0.027200
     22 H3A        -0.2150    0.4350    4.0340 h1        1 P03      0.027200
     23 H4          0.9210    2.7030    4.0890 hc        1 P03      0.070200
     24 H4A        -0.6130    3.4920    3.5620 hc        1 P03      0.070200
     25 H5         -0.2240    1.8300    6.1710 h1        1 P03      0.025700
     26 H5A        -1.7840    2.6180    5.6370 h1        1 P03      0.025700
     27 HO5        -0.2790    9.4180    9.5020 ho        1 P03      0.414000
     28 H6         -0.1340    3.2730    8.0850 h1        1 P03      0.025700
     29 H6A        -1.7050    4.0470    7.5610 h1        1 P03      0.025700
     30 H7          1.0530    5.4900    7.7420 hc        1 P03      0.070200
     31 H7A        -0.5020    6.2510    7.2370 hc        1 P03      0.070200
     32 H8         -1.5170    5.7000    9.4970 h1        1 P03      0.027200
     33 H8A         0.0640    4.9390   10.0080 h1        1 P03      0.027200
     34 H9         -1.2370    7.3400   11.2170 h1        1 P03      0.038200
     35 H9A         0.3900    6.6470   11.7000 h1        1 P03      0.038200
     36 H10         1.5020    8.7970   10.8850 h1        1 P03      0.053700
     37 H10A        0.3040    9.1020   12.2470 h1        1 P03      0.053700
@<TRIPOS>BOND
     1    1    2 1   
     2    1    3 1   
     3    1   16 1   
     4    1   17 1   
     5    2   18 1   
     6    3    4 1   
     7    3   19 1   
     8    3   20 1   
     9    4    5 1   
    10    5    7 1   
    11    5   21 1   
    12    5   22 1   
    13    6    9 1   
    14    6   11 1   
    15    7    9 1   
    16    7   23 1   
    17    7   24 1   
    18    8   13 1   
    19    8   14 1   
    20    9   25 1   
    21    9   26 1   
    22   10   15 1   
    23   10   27 1   
    24   11   12 1   
    25   11   28 1   
    26   11   29 1   
    27   12   13 1   
    28   12   30 1   
    29   12   31 1   
    30   13   32 1   
    31   13   33 1   
    32   14   15 1   
    33   14   34 1   
    34   14   35 1   
    35   15   36 1   
    36   15   37 1   
@<TRIPOS>SUBSTRUCTURE
     1 P03         1 TEMP              0 ****  ****    0 ROOT
