@<TRIPOS>MOLECULE
P03
   37    36     1     0     0
SMALL
bcc


@<TRIPOS>ATOM
      1 C1         -6.9850   -0.7220   -0.3820 c3        1 P03      0.132400
      2 O1         -7.0020   -1.3750    0.8690 oh        1 P03     -0.599800
      3 C2         -5.9820    0.4280   -0.4020 c3        1 P03      0.086400
      4 O2         -4.6930   -0.1710   -0.2930 os        1 P03     -0.433600
      5 C3         -3.6480    0.7990   -0.2440 c3        1 P03      0.134400
      6 O3          0.0000    0.1960   -0.0000 os        1 P03     -0.418600
      7 C4         -2.3470    0.0240   -0.1460 c3        1 P03     -0.088400
      8 O4          4.6920   -0.1740    0.2950 os        1 P03     -0.433600
      9 C5         -1.1800    0.9930   -0.0810 c3        1 P03      0.132400
     10 O5          7.0000   -1.3870   -0.8600 oh        1 P03     -0.599800
     11 C6          1.1810    0.9920    0.0760 c3        1 P03      0.132400
     12 C7          2.3460    0.0230    0.1470 c3        1 P03     -0.088400
     13 C8          3.6480    0.7960    0.2410 c3        1 P03      0.134400
     14 C9          5.9820    0.4240    0.4010 c3        1 P03      0.086400
     15 C10         6.9840   -0.7270    0.3880 c3        1 P03      0.132400
     16 H1         -6.7450   -1.4540   -1.1980 h1        1 P03      0.053700
     17 H1A        -8.0240   -0.3210   -0.5180 h1        1 P03      0.053700
     18 HO1        -6.1010   -1.6810    1.0390 ho        1 P03      0.414000
     19 H2         -6.0560    1.0000   -1.3630 h1        1 P03      0.038200
     20 H2A        -6.1540    1.1200    0.4640 h1        1 P03      0.038200
     21 H3         -3.6750    1.4270   -1.1750 h1        1 P03      0.027200
     22 H3A        -3.7930    1.4630    0.6500 h1        1 P03      0.027200
     23 H4         -2.3550   -0.6260    0.7670 hc        1 P03      0.070200
     24 H4A        -2.2340   -0.6510   -1.0330 hc        1 P03      0.070200
     25 H5         -1.2530    1.6530    0.8250 h1        1 P03      0.025700
     26 H5A        -1.1380    1.6370   -0.9990 h1        1 P03      0.025700
     27 HO5         6.0990   -1.6920   -1.0280 ho        1 P03      0.414000
     28 H6          1.2540    1.6470   -0.8330 h1        1 P03      0.025700
     29 H6A         1.1390    1.6420    0.9910 h1        1 P03      0.025700
     30 H7          2.2330   -0.6480    1.0370 hc        1 P03      0.070200
     31 H7A         2.3540   -0.6330   -0.7620 hc        1 P03      0.070200
     32 H8          3.6760    1.4300    1.1670 h1        1 P03      0.027200
     33 H8A         3.7940    1.4550   -0.6570 h1        1 P03      0.027200
     34 H9          6.1540    1.1110   -0.4690 h1        1 P03      0.038200
     35 H9A         6.0570    1.0020    1.3590 h1        1 P03      0.038200
     36 H10         6.7430   -1.4540    1.2070 h1        1 P03      0.053700
     37 H10A        8.0240   -0.3260    0.5210 h1        1 P03      0.053700
@<TRIPOS>BOND
     1    1    2 1   
     2    1    3 1   
     3    1   16 1   
     4    1   17 1   
     5    2   18 1   
     6    3    4 1   
     7    3   19 1   
     8    3   20 1   
     9    4    5 1   
    10    5    7 1   
    11    5   21 1   
    12    5   22 1   
    13    6    9 1   
    14    6   11 1   
    15    7    9 1   
    16    7   23 1   
    17    7   24 1   
    18    8   13 1   
    19    8   14 1   
    20    9   25 1   
    21    9   26 1   
    22   10   15 1   
    23   10   27 1   
    24   11   12 1   
    25   11   28 1   
    26   11   29 1   
    27   12   13 1   
    28   12   30 1   
    29   12   31 1   
    30   13   32 1   
    31   13   33 1   
    32   14   15 1   
    33   14   34 1   
    34   14   35 1   
    35   15   36 1   
    36   15   37 1   
@<TRIPOS>SUBSTRUCTURE
     1 P03         1 TEMP              0 ****  ****    0 ROOT
