@<TRIPOS>MOLECULE
P04
   48    52     1     0     0
SMALL
bcc


@<TRIPOS>ATOM
      1 N01        -0.1810   -0.2550   -0.0440 nc        1 P04     -0.573100
      2 C02         1.1680   -0.1370   -0.0490 cd        1 P04      0.394500
      3 C03         1.6970    0.2310    1.2480 cd        1 P04     -0.285800
      4 C04         0.5560    0.3250    2.0800 cc        1 P04      0.434500
      5 N05        -0.5710    0.0070    1.2190 na        1 P04     -0.172600
      6 N06         0.3930    0.6400    3.4030 nc        1 P04     -0.755000
      7 C07        -0.8880    0.7520    3.8430 cd        1 P04      0.915900
      8 N08        -2.0450    0.4720    3.0730 nd        1 P04     -0.827000
      9 C09        -1.8770    0.1360    1.7730 cc        1 P04      0.845400
     10 N10        -2.9740   -0.0420    0.9230 nu        1 P04     -0.809900
     11 C11        -4.2810   -0.2200    1.4620 cx        1 P04      0.160500
     12 C12        -5.3970   -0.7510    0.5840 cx        1 P04     -0.144400
     13 C13        -4.8890   -1.5870    1.7210 cx        1 P04     -0.144400
     14 N17        -1.1330    1.2260    5.1510 nu        1 P04     -0.700300
     15 C18        -0.1180    1.1880    6.1390 ca        1 P04      0.154600
     16 C19         1.1600    1.7130    5.8820 ca        1 P04     -0.143000
     17 C20         2.2070    1.5270    6.8080 ca        1 P04      0.083600
     18 C21         1.9130    0.9770    8.0750 ca        1 P04     -0.187000
     19 C22         0.6140    0.5730    8.3650 ca        1 P04     -0.090000
     20 C23        -0.3960    0.6410    7.4120 ca        1 P04     -0.195000
     21 N27         3.5420    1.8120    6.4630 ns        1 P04     -0.481100
     22 C28         3.9180    2.4680    5.2810 c         1 P04      0.668100
     23 O29         3.3180    3.4810    4.8880 o         1 P04     -0.556100
     24 C30         5.1170    1.9120    4.5270 c3        1 P04     -0.154400
     25 C31         4.7640    1.6000    3.0810 c3        1 P04     -0.069400
     26 C32         3.3520    1.0730    2.9210 c3        1 P04     -0.090400
     27 C33         3.1140    0.4750    1.5490 c3        1 P04      0.017800
     28 H02         1.7480   -0.3100   -0.9590 h4        1 P04      0.052800
     29 HN10       -2.7990   -0.4880    0.0460 hn        1 P04      0.449800
     30 H11        -4.5300    0.5950    2.1810 h1        1 P04      0.119700
     31 H12        -6.3850   -0.2640    0.6640 hc        1 P04      0.080200
     32 H12A       -5.1810   -1.0710   -0.4510 hc        1 P04      0.080200
     33 H13        -4.3110   -2.5000    1.4910 hc        1 P04      0.080200
     34 H13A       -5.5110   -1.7140    2.6240 hc        1 P04      0.080200
     35 HN17       -2.0600    1.0710    5.4930 hn        1 P04      0.441800
     36 H19         1.3650    2.2530    4.9410 ha        1 P04      0.183000
     37 H21         2.7020    0.8610    8.8320 ha        1 P04      0.135000
     38 H22         0.3870    0.1660    9.3630 ha        1 P04      0.133000
     39 H23        -1.4000    0.2650    7.6570 ha        1 P04      0.132000
     40 HN27        4.2090    1.1880    6.8600 hn        1 P04      0.308500
     41 H30         5.9270    2.6870    4.5570 hc        1 P04      0.061700
     42 H30A        5.5150    0.9860    5.0180 hc        1 P04      0.061700
     43 H31         5.5020    0.8510    2.6910 hc        1 P04      0.048200
     44 H31A        4.8750    2.5330    2.4670 hc        1 P04      0.048200
     45 H32         2.6400    1.9280    3.0850 hc        1 P04      0.063700
     46 H32A        3.1410    0.3010    3.7060 hc        1 P04      0.063700
     47 H33         3.6810   -0.4930    1.4630 hc        1 P04      0.041700
     48 H33A        3.5310    1.1680    0.7660 hc        1 P04      0.041700
@<TRIPOS>BOND
     1    1    2 2   
     2    1    5 1   
     3    2    3 1   
     4    2   28 1   
     5    3    4 2   
     6    3   27 1   
     7    4    5 1   
     8    4    6 1   
     9    5    9 1   
    10    6    7 2   
    11    7    8 1   
    12    7   14 1   
    13    8    9 2   
    14    9   10 1   
    15   10   11 1   
    16   10   29 1   
    17   11   12 1   
    18   11   13 1   
    19   11   30 1   
    20   12   13 1   
    21   12   31 1   
    22   12   32 1   
    23   13   33 1   
    24   13   34 1   
    25   14   15 1   
    26   14   35 1   
    27   15   16 ar  
    28   15   20 ar  
    29   16   17 ar  
    30   16   36 1   
    31   17   18 ar  
    32   17   21 1   
    33   18   19 ar  
    34   18   37 1   
    35   19   20 ar  
    36   19   38 1   
    37   20   39 1   
    38   21   22 1   
    39   21   40 1   
    40   22   23 2   
    41   22   24 1   
    42   24   25 1   
    43   24   41 1   
    44   24   42 1   
    45   25   26 1   
    46   25   43 1   
    47   25   44 1   
    48   26   27 1   
    49   26   45 1   
    50   26   46 1   
    51   27   47 1   
    52   27   48 1   
@<TRIPOS>SUBSTRUCTURE
     1 P04         1 TEMP              0 ****  ****    0 ROOT
