@<TRIPOS>MOLECULE
P04
   51    55     1     0     0
SMALL
bcc


@<TRIPOS>ATOM
      1 N01        -0.8580    0.3520    0.2760 nc        1 P04     -0.480100
      2 C02         0.4840    0.4080    0.1040 cd        1 P04      0.444500
      3 C03         1.2080    0.4440    1.3720 cd        1 P04     -0.089800
      4 C04         0.1970    0.4000    2.3560 cc        1 P04      0.320500
      5 N05        -1.0790    0.3450    1.5970 na        1 P04     -0.138600
      6 N06         0.1990    0.4120    3.7240 nc        1 P04     -0.566000
      7 C07        -0.9990    0.4090    4.3200 cd        1 P04      0.702900
      8 N08        -2.2650    0.3700    3.6880 nd        1 P04     -0.700000
      9 C09        -2.2590    0.3370    2.3460 cc        1 P04      0.736400
     10 N10        -3.5670    0.2790    1.6240 n4        1 P04     -0.719700
     11 C11        -3.9540   -1.1190    1.3130 cx        1 P04     -0.038500
     12 C12        -5.0560   -1.3730    0.2940 cx        1 P04     -0.078400
     13 C13        -3.6460   -1.7430   -0.0350 cx        1 P04     -0.078400
     14 N17        -1.0230    0.4340    5.8210 n4        1 P04     -0.601100
     15 C18         0.0320    1.2900    6.3940 ca        1 P04     -0.032400
     16 C19         1.3750    0.8760    6.3480 ca        1 P04     -0.060000
     17 C20         2.3660    1.7350    6.8570 ca        1 P04     -0.018400
     18 C21         2.0110    2.9600    7.4570 ca        1 P04     -0.027000
     19 C22         0.6670    3.3280    7.5250 ca        1 P04     -0.071000
     20 C23        -0.3300    2.5150    6.9880 ca        1 P04     -0.049000
     21 N27         3.7780    1.3630    6.7450 n4        1 P04     -0.573200
     22 C28         4.3930    1.7950    5.3860 c         1 P04      0.557100
     23 O29         4.3070    2.9830    5.1490 o         1 P04     -0.369100
     24 C30         5.0330    0.7040    4.5780 c3        1 P04     -0.145400
     25 C31         4.6000    0.7840    3.1220 c3        1 P04     -0.091400
     26 C32         3.1080    0.5710    2.9800 c3        1 P04     -0.084400
     27 C33         2.6650    0.5320    1.5310 c3        1 P04     -0.040200
     28 H02         0.9300    0.4240   -0.9050 h4        1 P04      0.126800
     29 HN10       -3.5050    0.8310    0.7500 hn        1 P04      0.498300
     30 H11        -3.9100   -1.7420    2.2360 hx        1 P04      0.152700
     31 H12        -5.5330   -0.5290   -0.2420 hc        1 P04      0.129950
     32 H12A       -5.7980   -2.1600    0.5470 hc        1 P04      0.129950
     33 H13        -3.1070   -1.1630   -0.8110 hc        1 P04      0.129950
     34 H13A       -3.3390   -2.8100   -0.0410 hc        1 P04      0.129950
     35 HN17       -0.8960   -0.5380    6.1520 hn        1 P04      0.497300
     36 H19         1.6530   -0.1000    5.9110 ha        1 P04      0.175000
     37 H21         2.7780    3.6460    7.8720 ha        1 P04      0.205000
     38 H22         0.3890    4.2870    8.0090 ha        1 P04      0.219000
     39 H23        -1.3830    2.8510    7.0460 ha        1 P04      0.192000
     40 HN27        4.3030    1.8340    7.4990 hn        1 P04      0.475800
     41 H30         4.8190   -0.3190    4.9860 hc        1 P04      0.121200
     42 H30A        6.1520    0.8700    4.6410 hc        1 P04      0.121200
     43 H31         5.1660   -0.0060    2.5540 hc        1 P04      0.104700
     44 H31A        4.8930    1.7800    2.6910 hc        1 P04      0.104700
     45 H32         2.5850    1.4140    3.5090 hc        1 P04      0.038700
     46 H32A        2.8200   -0.3920    3.4810 hc        1 P04      0.038700
     47 H33         3.0300    1.4570    0.9950 hc        1 P04      0.114200
     48 H33A        3.1420   -0.3490    1.0110 hc        1 P04      0.114200
     49 H102       -4.3040    0.6920    2.2240 hn        1 P04      0.498300
     50 H172       -1.9480    0.7750    6.1380 hn        1 P04      0.497300
     51 H272        3.8820    0.3490    6.8680 hn        1 P04      0.475800
@<TRIPOS>BOND
     1    1    2 2   
     2    1    5 1   
     3    2    3 1   
     4    2   28 1   
     5    3    4 2   
     6    3   27 1   
     7    4    5 1   
     8    4    6 1   
     9    5    9 1   
    10    6    7 2   
    11    7    8 1   
    12    7   14 1   
    13    8    9 2   
    14    9   10 1   
    15   10   11 1   
    16   10   29 1   
    17   10   49 1   
    18   11   12 1   
    19   11   13 1   
    20   11   30 1   
    21   12   13 1   
    22   12   31 1   
    23   12   32 1   
    24   13   33 1   
    25   13   34 1   
    26   14   15 1   
    27   14   35 1   
    28   14   50 1   
    29   15   16 ar  
    30   15   20 ar  
    31   16   17 ar  
    32   16   36 1   
    33   17   18 ar  
    34   17   21 1   
    35   18   19 ar  
    36   18   37 1   
    37   19   20 ar  
    38   19   38 1   
    39   20   39 1   
    40   21   22 1   
    41   21   40 1   
    42   21   51 1   
    43   22   23 2   
    44   22   24 1   
    45   24   25 1   
    46   24   41 1   
    47   24   42 1   
    48   25   26 1   
    49   25   43 1   
    50   25   44 1   
    51   26   27 1   
    52   26   45 1   
    53   26   46 1   
    54   27   47 1   
    55   27   48 1   
@<TRIPOS>SUBSTRUCTURE
     1 P04         1 TEMP              0 ****  ****    0 ROOT
