@<TRIPOS>MOLECULE
P05
   50    47     1     0     0
SMALL
bcc


@<TRIPOS>ATOM
      1 N21        -2.5630    1.4060    1.3990 n3        1 P05     -0.340000
      2 C8         -1.1630    1.5780    1.3770 c3        1 P05     -0.045000
      3 C9         -0.8260    2.8680    0.6730 c2        1 P05      0.323000
      4 O25        -0.8670    3.9270    1.2860 o         1 P05     -0.370000
      5 C7         -0.6220    1.6340    2.8260 c3        1 P05     -0.157000
      6 C4         -0.8620    0.2740    3.5280 c1        1 P05     -0.080000
      7 C3         -1.9880    0.0870    4.3100 c1        1 P05     -0.136000
      8 C5          0.0880   -0.7120    3.4500 c1        1 P05     -0.128750
      9 C2         -2.1540   -1.0960    5.0120 c1        1 P05     -0.128750
     10 C6         -0.0800   -1.8890    4.1500 c1        1 P05     -0.128750
     11 C1         -1.2080   -2.0760    4.9320 c1        1 P05     -0.128750
     12 N22        -0.5200    2.8620   -0.7120 n         1 P05     -0.314000
     13 C13        -0.4250    1.5540   -1.6740 c3        1 P05      0.021000
     14 C14         1.0300    0.9790   -1.8220 c2        1 P05      0.277000
     15 O26         1.9990    1.6590   -1.4770 o         1 P05     -0.355000
     16 C12        -0.9400    1.9720   -2.7970 c3        1 P05     -0.163000
     17 C11        -0.6970    3.4960   -2.8280 c3        1 P05     -0.171000
     18 C10        -0.2710    3.8790   -1.4370 c3        1 P05     -0.021000
     19 C15         2.4450   -1.1020   -2.0730 c3        1 P05      0.002000
     20 C16         2.1710   -2.6150   -2.2440 c2        1 P05     -0.079000
     21 C17         2.6920   -3.2790   -3.2930 c2        1 P05     -0.175000
     22 C18         2.4660   -4.6430   -3.4330 c1        1 P05     -0.074000
     23 C19         1.2010   -4.6170   -1.4600 c1        1 P05     -0.074000
     24 C20         1.4210   -3.2810   -1.3210 c1        1 P05     -0.167000
     25 N23         1.2370   -0.3480   -2.3950 n         1 P05     -0.371000
     26 N24         1.7330   -5.2930   -2.5300 n1        1 P05     -0.135000
     27 HN21       -2.9140    1.6110    0.5580 hn        1 P05      0.154000
     28 HN2A       -2.7600    0.5370    1.6080 hn        1 P05      0.154000
     29 H8         -0.7300    0.7950    0.8790 h1        1 P05      0.121000
     30 H7          0.3510    1.8270    2.8070 hc        1 P05      0.114000
     31 H7A        -1.0760    2.3290    3.3110 hc        1 P05      0.114000
     32 H3         -2.6710    0.7960    4.3690 ha        1 P05      0.130000
     33 H5          0.8890   -0.5800    2.8960 ha        1 P05      0.135000
     34 H2         -2.9680   -1.2320    5.5780 ha        1 P05      0.135000
     35 H6          0.6010   -2.5970    4.0920 ha        1 P05      0.135000
     36 H1         -1.3280   -2.9220    5.4360 ha        1 P05      0.135000
     37 H13        -0.9050    0.7940   -1.3100 h1        1 P05      0.128000
     38 H12        -0.4970    1.5460   -3.5470 hc        1 P05      0.099000
     39 H12A       -1.9110    1.7790   -2.8190 hc        1 P05      0.099000
     40 H11        -1.5080    3.9560   -3.0650 hc        1 P05      0.095500
     41 H11A        0.0020    3.7080   -3.4600 hc        1 P05      0.095500
     42 H10         0.6850    4.0790   -1.4220 h1        1 P05      0.101000
     43 H10A       -0.7830    4.6510   -1.1260 h1        1 P05      0.101000
     44 H15         3.1930   -0.8230   -2.6940 h1        1 P05      0.113500
     45 H15A        2.7050   -0.9220   -1.1500 h1        1 P05      0.113500
     46 H17         3.2390   -2.7910   -3.9680 ha        1 P05      0.141000
     47 H18         2.8570   -5.1410   -4.2200 ha        1 P05      0.159000
     48 H19         0.6360   -5.1170   -0.7630 ha        1 P05      0.166000
     49 H20         1.0240   -2.7750   -0.5210 ha        1 P05      0.159000
     50 HN23        0.5710   -0.7360   -2.9180 hn        1 P05      0.220000
@<TRIPOS>BOND
     1    1    2 1   
     2    1   27 1   
     3    1   28 1   
     4    2    3 1   
     5    2    5 1   
     6    2   29 1   
     7    3    4 1   
     8    3   12 1   
     9    5    6 1   
    10    5   30 1   
    11    5   31 1   
    12    6    7 1   
    13    7   32 1   
    14    8   10 1   
    15    8   33 1   
    16    9   11 1   
    17    9   34 1   
    18   10   35 1   
    19   11   36 1   
    20   12   13 1   
    21   12   18 1   
    22   13   14 1   
    23   13   16 1   
    24   13   37 1   
    25   14   15 1   
    26   14   25 1   
    27   16   17 1   
    28   16   38 1   
    29   16   39 1   
    30   17   18 1   
    31   17   40 1   
    32   17   41 1   
    33   18   42 1   
    34   18   43 1   
    35   19   20 1   
    36   19   25 1   
    37   19   44 1   
    38   19   45 1   
    39   20   21 1   
    40   20   24 1   
    41   21   22 1   
    42   21   46 1   
    43   22   47 1   
    44   23   26 1   
    45   23   48 1   
    46   24   49 1   
    47   25   50 1   
@<TRIPOS>SUBSTRUCTURE
     1 P05         1 TEMP              0 ****  ****    0 ROOT
