@<TRIPOS>MOLECULE
P05
   50    52     1     0     0
SMALL
bcc


@<TRIPOS>ATOM
      1 N21        -2.2330    2.1970   -0.1440 n3        1 P05     -0.888800
      2 C8         -2.2120    0.7620    0.0130 c3        1 P05      0.123500
      3 C9         -0.7980    0.2130    0.3370 c         1 P05      0.614100
      4 O25        -0.0120    0.8840    1.0430 o         1 P05     -0.639100
      5 C7         -3.1440    0.2730    1.1410 c3        1 P05     -0.029100
      6 C4         -4.5680    0.2720    0.7130 ca        1 P05     -0.086300
      7 C3         -5.1890   -0.9250    0.3380 ca        1 P05     -0.117500
      8 C5         -5.3060    1.4620    0.6980 ca        1 P05     -0.117500
      9 C2         -6.5280   -0.9330   -0.0470 ca        1 P05     -0.130500
     10 C6         -6.6450    1.4510    0.3100 ca        1 P05     -0.130500
     11 C1         -7.2580    0.2550   -0.0620 ca        1 P05     -0.126000
     12 N22        -0.3930   -0.9900   -0.2030 n         1 P05     -0.455800
     13 C13         0.8510   -1.6400    0.1970 c3        1 P05      0.031700
     14 C14         2.0730   -1.1600   -0.6220 c         1 P05      0.650100
     15 O26         2.7800   -1.9640   -1.2630 o         1 P05     -0.619100
     16 C12         0.6380   -3.1600    0.0260 c3        1 P05     -0.088400
     17 C11        -0.6730   -3.3300   -0.7330 c3        1 P05     -0.090400
     18 C10        -1.2950   -1.9300   -0.8450 c3        1 P05      0.085000
     19 C15         3.5100    0.7400   -1.2410 c3        1 P05      0.128300
     20 C16         4.7300    0.8100   -0.3650 ca        1 P05     -0.083300
     21 C17         5.4180   -0.3610   -0.0230 ca        1 P05     -0.233300
     22 C18         6.5710   -0.2520    0.7730 ca        1 P05      0.389200
     23 C19         6.3810    2.0370    0.8890 ca        1 P05      0.389200
     24 C20         5.2170    2.0350    0.0990 ca        1 P05     -0.233300
     25 N23         2.3410    0.1920   -0.6090 n         1 P05     -0.552900
     26 N24         7.0540    0.9210    1.2280 nb        1 P05     -0.663000
     27 HN21       -1.9330    2.6510    0.6980 hn        1 P05      0.362800
     28 HN2A       -1.6340    2.4750   -0.8970 hn        1 P05      0.362800
     29 H8         -2.5670    0.3210   -0.9670 h1        1 P05      0.082700
     30 H7         -3.0170    0.9230    2.0490 hc        1 P05      0.059700
     31 H7A        -2.8350   -0.7660    1.4350 hc        1 P05      0.059700
     32 H3         -4.6180   -1.8660    0.3510 ha        1 P05      0.134000
     33 H5         -4.8210    2.4080    0.9820 ha        1 P05      0.134000
     34 H2         -7.0090   -1.8780   -0.3390 ha        1 P05      0.132000
     35 H6         -7.2180    2.3900    0.2980 ha        1 P05      0.132000
     36 H1         -8.3150    0.2480   -0.3660 ha        1 P05      0.132000
     37 H13         1.0730   -1.3910    1.2780 h1        1 P05      0.085700
     38 H12         0.5810   -3.6400    1.0330 hc        1 P05      0.075700
     39 H12A        1.4910   -3.6220   -0.5330 hc        1 P05      0.075700
     40 H11        -1.3630   -4.0220   -0.1920 hc        1 P05      0.058200
     41 H11A       -0.4900   -3.7520   -1.7520 hc        1 P05      0.058200
     42 H10        -1.4220   -1.6370   -1.9250 h1        1 P05      0.051200
     43 H10A       -2.3090   -1.9060   -0.3550 h1        1 P05      0.051200
     44 H15         3.2470    1.7790   -1.5950 h1        1 P05      0.070200
     45 H15A        3.7600    0.1070   -2.1440 h1        1 P05      0.070200
     46 H17         5.0590   -1.3400   -0.3750 ha        1 P05      0.153000
     47 H18         7.1420   -1.1510    1.0650 h4        1 P05      0.022100
     48 H19         6.7980    2.9850    1.2750 h4        1 P05      0.022100
     49 H20         4.7090    2.9780   -0.1430 ha        1 P05      0.153000
     50 HN23        1.8720    0.7660    0.0580 hn        1 P05      0.337500
@<TRIPOS>BOND
     1    1    2 1   
     2    1   27 1   
     3    1   28 1   
     4    2    3 1   
     5    2    5 1   
     6    2   29 1   
     7    3    4 2   
     8    3   12 1   
     9    5    6 1   
    10    5   30 1   
    11    5   31 1   
    12    6    7 ar  
    13    6    8 ar  
    14    7    9 ar  
    15    7   32 1   
    16    8   10 ar  
    17    8   33 1   
    18    9   11 ar  
    19    9   34 1   
    20   10   11 ar  
    21   10   35 1   
    22   11   36 1   
    23   12   13 1   
    24   12   18 1   
    25   13   14 1   
    26   13   16 1   
    27   13   37 1   
    28   14   15 2   
    29   14   25 1   
    30   16   17 1   
    31   16   38 1   
    32   16   39 1   
    33   17   18 1   
    34   17   40 1   
    35   17   41 1   
    36   18   42 1   
    37   18   43 1   
    38   19   20 1   
    39   19   25 1   
    40   19   44 1   
    41   19   45 1   
    42   20   21 ar  
    43   20   24 ar  
    44   21   22 ar  
    45   21   46 1   
    46   22   26 ar  
    47   22   47 1   
    48   23   24 ar  
    49   23   26 ar  
    50   23   48 1   
    51   24   49 1   
    52   25   50 1   
@<TRIPOS>SUBSTRUCTURE
     1 P05         1 TEMP              0 ****  ****    0 ROOT
