@<TRIPOS>MOLECULE
P06
   55    58     1     0     0
SMALL
bcc


@<TRIPOS>ATOM
      1 C1         -0.1180   -0.2890    0.4190 ca        1 P06      0.869900
      2 C2          2.0480   -0.3570    1.2880 ca        1 P06      0.570800
      3 N3          1.2500   -0.1490    0.2140 nb        1 P06     -0.739000
      4 C4          1.5230   -0.7100    2.5560 ca        1 P06     -0.430600
      5 N6         -0.7090   -0.6570    1.6270 nb        1 P06     -0.749000
      6 C7          0.1290   -0.8470    2.6540 ca        1 P06      0.470200
      7 N9         -0.9630    0.0220   -0.6500 nv        1 P06     -0.924500
      8 C12         3.4870   -0.2120    1.1510 cc        1 P06     -0.266900
      9 S13         4.4750    0.0950    2.4840 ss        1 P06     -0.073300
     10 C14         5.8680    0.1400    1.4780 cc        1 P06      0.417700
     11 N15         5.6240   -0.0670    0.1830 nd        1 P06     -0.621000
     12 C16         4.2590   -0.2690   -0.0160 cd        1 P06      0.441800
     13 C17         7.2300    0.3950    2.0570 c3        1 P06     -0.083300
     14 C18         7.1110    0.5740    3.5660 c3        1 P06     -0.091767
     15 C22         8.1430   -0.7880    1.7580 c3        1 P06     -0.091767
     16 C26         7.8170    1.6600    1.4420 c3        1 P06     -0.091767
     17 C30         3.7570   -0.5290   -1.3670 ca        1 P06     -0.115500
     18 C31         3.4080    0.1910   -3.6960 ca        1 P06      0.112600
     19 C32         3.8910    0.4480   -2.3750 ca        1 P06      0.128900
     20 C33         2.8130   -1.0590   -3.9600 ca        1 P06     -0.131000
     21 C35         3.1550   -1.7540   -1.6660 ca        1 P06     -0.089000
     22 C37         2.6880   -2.0090   -2.9510 ca        1 P06     -0.130000
     23 F39         4.4860    1.6330   -2.1010 f         1 P06     -0.130900
     24 N40         3.5560    1.1630   -4.6990 nu        1 P06     -0.772500
     25 S42         2.5110    1.5410   -5.8850 sy        1 P06      1.516200
     26 C43         1.4740    2.6690   -5.1150 ca        1 P06     -0.435500
     27 C44         1.1480    4.8490   -3.9970 ca        1 P06     -0.207000
     28 C46         1.9800    3.8800   -4.5820 ca        1 P06      0.259900
     29 C47        -0.2220    4.6190   -3.9250 ca        1 P06     -0.022000
     30 C49         0.0770    2.4750   -5.0070 ca        1 P06      0.259900
     31 C50        -0.7650    3.4410   -4.4220 ca        1 P06     -0.207000
     32 F52        -0.4900    1.3410   -5.4720 f         1 P06     -0.114400
     33 F53         3.3110    4.1210   -4.6280 f         1 P06     -0.114400
     34 O54         3.2170    2.2230   -6.8900 o         1 P06     -0.635300
     35 O55         1.7520    0.4320   -6.2880 o         1 P06     -0.635300
     36 H1          2.1760   -0.8780    3.4190 ha        1 P06      0.154000
     37 H2         -0.3480   -1.1320    3.6110 h4        1 P06      0.027100
     38 H3         -0.5520    0.0350   -1.5540 hn        1 P06      0.429300
     39 H4         -1.8950   -0.3190   -0.5930 hn        1 P06      0.429300
     40 H5          8.1210    0.7680    4.0020 hc        1 P06      0.045700
     41 H6          6.6930   -0.3470    4.0410 hc        1 P06      0.045700
     42 H7          6.4490    1.4410    3.8090 hc        1 P06      0.045700
     43 H8          9.1460   -0.6120    2.2160 hc        1 P06      0.045700
     44 H9          8.2690   -0.9150    0.6560 hc        1 P06      0.045700
     45 H10         7.7160   -1.7280    2.1820 hc        1 P06      0.045700
     46 H11         8.8170    1.8660    1.8940 hc        1 P06      0.045700
     47 H12         7.1490    2.5330    1.6330 hc        1 P06      0.045700
     48 H13         7.9390    1.5360    0.3390 hc        1 P06      0.045700
     49 H14         2.4300   -1.2910   -4.9700 ha        1 P06      0.175000
     50 H15         3.0520   -2.5140   -0.8760 ha        1 P06      0.144000
     51 H16         2.2200   -2.9780   -3.1810 ha        1 P06      0.142000
     52 H17         4.3670    1.7320   -4.5630 hn        1 P06      0.467800
     53 H18         1.5900    5.7760   -3.6020 ha        1 P06      0.162000
     54 H19        -0.8800    5.3760   -3.4670 ha        1 P06      0.150000
     55 H20        -1.8470    3.2490   -4.3670 ha        1 P06      0.162000
@<TRIPOS>BOND
     1    1    3 ar  
     2    1    5 ar  
     3    1    7 1   
     4    2    3 ar  
     5    2    4 ar  
     6    2    8 1   
     7    4    6 ar  
     8    4   36 1   
     9    5    6 ar  
    10    6   37 1   
    11    7   38 1   
    12    7   39 1   
    13    8    9 1   
    14    8   12 2   
    15    9   10 1   
    16   10   11 2   
    17   10   13 1   
    18   11   12 1   
    19   12   17 1   
    20   13   14 1   
    21   13   15 1   
    22   13   16 1   
    23   14   40 1   
    24   14   41 1   
    25   14   42 1   
    26   15   43 1   
    27   15   44 1   
    28   15   45 1   
    29   16   46 1   
    30   16   47 1   
    31   16   48 1   
    32   17   19 ar  
    33   17   21 ar  
    34   18   19 ar  
    35   18   20 ar  
    36   18   24 1   
    37   19   23 1   
    38   20   22 ar  
    39   20   49 1   
    40   21   22 ar  
    41   21   50 1   
    42   22   51 1   
    43   24   25 1   
    44   24   52 1   
    45   25   26 1   
    46   25   34 2   
    47   25   35 2   
    48   26   28 ar  
    49   26   30 ar  
    50   27   28 ar  
    51   27   29 ar  
    52   27   53 1   
    53   28   33 1   
    54   29   31 ar  
    55   29   54 1   
    56   30   31 ar  
    57   30   32 1   
    58   31   55 1   
@<TRIPOS>SUBSTRUCTURE
     1 P06         1 TEMP              0 ****  ****    0 ROOT
