@<TRIPOS>MOLECULE
P06
   55    58     1     0     0
SMALL
bcc


@<TRIPOS>ATOM
      1 C1         -0.0170   -0.9440    0.5990 ca        1 P06      0.871900
      2 C2          2.0830   -0.0890    1.1480 ca        1 P06      0.568800
      3 N3          1.3670   -1.0360    0.4980 nb        1 P06     -0.742000
      4 C4          1.4670    0.9300    1.9130 ca        1 P06     -0.419600
      5 N6         -0.7000    0.0140    1.3490 nb        1 P06     -0.749000
      6 C7          0.0630    0.9190    1.9740 ca        1 P06      0.467200
      7 N9         -0.7780   -1.8410   -0.1510 nh        1 P06     -0.930500
      8 C12         3.5360   -0.1220    1.0770 cc        1 P06     -0.263900
      9 S13         4.5050    0.0250    2.4470 ss        1 P06     -0.074300
     10 C14         5.9280   -0.0660    1.4840 cc        1 P06      0.415700
     11 N15         5.7040   -0.2000    0.1770 nd        1 P06     -0.617000
     12 C16         4.3320   -0.2410   -0.0670 cd        1 P06      0.434800
     13 C17         7.2900    0.0050    2.1140 c3        1 P06     -0.083300
     14 C18         7.1410    0.1520    3.6240 c3        1 P06     -0.091100
     15 C22         8.0640   -1.2700    1.8030 c3        1 P06     -0.091100
     16 C26         8.0450    1.2080    1.5610 c3        1 P06     -0.091100
     17 C30         3.8440   -0.3740   -1.4410 ca        1 P06     -0.131500
     18 C31         3.5200    0.5730   -3.6920 ca        1 P06      0.117600
     19 C32         3.9760    0.7020   -2.3440 ca        1 P06      0.115900
     20 C33         2.9590   -0.6560   -4.0920 ca        1 P06     -0.137000
     21 C35         3.2730   -1.5740   -1.8710 ca        1 P06     -0.078000
     22 C37         2.8360   -1.7040   -3.1860 ca        1 P06     -0.126000
     23 F39         4.5460    1.8620   -1.9360 f         1 P06     -0.134900
     24 N40         3.6580    1.6490   -4.5850 nh        1 P06     -0.771500
     25 S42         2.6950    2.0560   -5.8290 sy        1 P06      1.518200
     26 C43         1.3960    2.8550   -5.0460 ca        1 P06     -0.438500
     27 C44         0.5660    4.7320   -3.6690 ca        1 P06     -0.208000
     28 C46         1.6160    4.0260   -4.2770 ca        1 P06      0.261900
     29 C47        -0.7400    4.2720   -3.8110 ca        1 P06     -0.022000
     30 C49         0.0540    2.4210   -5.1530 ca        1 P06      0.261900
     31 C50        -1.0050    3.1230   -4.5440 ca        1 P06     -0.208000
     32 F52        -0.2460    1.3080   -5.8550 f         1 P06     -0.112900
     33 F53         2.8780    4.4850   -4.1120 f         1 P06     -0.112900
     34 O54         3.3790    3.0020   -6.6120 o         1 P06     -0.634800
     35 O55         2.1910    0.9310   -6.4970 o         1 P06     -0.634800
     36 H1          2.0580    1.6950    2.4280 ha        1 P06      0.158000
     37 H2         -0.4860    1.6790    2.5620 h4        1 P06      0.027100
     38 H3         -0.3180   -2.6500   -0.4950 hn        1 P06      0.431300
     39 H4         -1.7340   -1.9410    0.0990 hn        1 P06      0.431300
     40 H5          8.1500    0.2070    4.0980 hc        1 P06      0.045478
     41 H6          6.5800    1.0850    3.8750 hc        1 P06      0.045478
     42 H7          6.5970   -0.7250    4.0520 hc        1 P06      0.045478
     43 H8          9.0650   -1.2300    2.2970 hc        1 P06      0.045478
     44 H9          7.5130   -2.1630    2.1810 hc        1 P06      0.045478
     45 H10         8.2120   -1.3780    0.7020 hc        1 P06      0.045478
     46 H11         9.0460    1.2780    2.0500 hc        1 P06      0.045478
     47 H12         7.4810    2.1500    1.7620 hc        1 P06      0.045478
     48 H13         8.1900    1.1040    0.4590 hc        1 P06      0.045478
     49 H14         2.6090   -0.7990   -5.1310 ha        1 P06      0.177000
     50 H15         3.1690   -2.4100   -1.1630 ha        1 P06      0.155000
     51 H16         2.3900   -2.6540   -3.5220 ha        1 P06      0.142000
     52 H17         4.3980    2.2690   -4.3240 hn        1 P06      0.467800
     53 H18         0.7880    5.6390   -3.0880 ha        1 P06      0.162000
     54 H19        -1.5680    4.8230   -3.3360 ha        1 P06      0.149000
     55 H20        -2.0330    2.7480   -4.6580 ha        1 P06      0.162000
@<TRIPOS>BOND
     1    1    3 ar  
     2    1    5 ar  
     3    1    7 1   
     4    2    3 ar  
     5    2    4 ar  
     6    2    8 1   
     7    4    6 ar  
     8    4   36 1   
     9    5    6 ar  
    10    6   37 1   
    11    7   38 1   
    12    7   39 1   
    13    8    9 1   
    14    8   12 2   
    15    9   10 1   
    16   10   11 2   
    17   10   13 1   
    18   11   12 1   
    19   12   17 1   
    20   13   14 1   
    21   13   15 1   
    22   13   16 1   
    23   14   40 1   
    24   14   41 1   
    25   14   42 1   
    26   15   43 1   
    27   15   44 1   
    28   15   45 1   
    29   16   46 1   
    30   16   47 1   
    31   16   48 1   
    32   17   19 ar  
    33   17   21 ar  
    34   18   19 ar  
    35   18   20 ar  
    36   18   24 1   
    37   19   23 1   
    38   20   22 ar  
    39   20   49 1   
    40   21   22 ar  
    41   21   50 1   
    42   22   51 1   
    43   24   25 1   
    44   24   52 1   
    45   25   26 1   
    46   25   34 2   
    47   25   35 2   
    48   26   28 ar  
    49   26   30 ar  
    50   27   28 ar  
    51   27   29 ar  
    52   27   53 1   
    53   28   33 1   
    54   29   31 ar  
    55   29   54 1   
    56   30   31 ar  
    57   30   32 1   
    58   31   55 1   
@<TRIPOS>SUBSTRUCTURE
     1 P06         1 TEMP              0 ****  ****    0 ROOT
