@<TRIPOS>MOLECULE
P08
   51    54     1     0     0
SMALL
bcc


@<TRIPOS>ATOM
      1 CAN         0.2520   -0.3280   -0.3180 c3        1 P08      0.143800
      2 CAL         1.5800   -1.0610   -0.5480 c3        1 P08      0.092900
      3 OAQ         2.3280   -1.1600    0.6600 os        1 P08     -0.408600
      4 CAM         1.5980   -1.7950    1.7030 c3        1 P08      0.092900
      5 CAO         0.2630   -1.0880    1.9720 c3        1 P08      0.143800
      6 NBA        -0.5460   -0.8670    0.7760 nh        1 P08     -0.611400
      7 CAU        -1.4940   -1.8670    0.4830 cc        1 P08      0.328100
      8 CAJ        -2.3910   -2.3820    1.3730 cd        1 P08     -0.374200
      9 CAW        -3.3950   -3.3580    0.9850 c         1 P08      0.599900
     10 OAC        -4.1930   -3.8600    1.7910 o         1 P08     -0.555100
     11 OAR        -1.4830   -2.2240   -0.8680 os        1 P08     -0.252200
     12 CAY        -2.4580   -3.1050   -1.3080 ca        1 P08      0.159100
     13 CAX        -3.3950   -3.6980   -0.4480 ca        1 P08     -0.205600
     14 CAK        -4.3260   -4.6040   -0.9730 ca        1 P08     -0.046000
     15 CAS        -4.3250   -4.9130   -2.3320 ca        1 P08     -0.106300
     16 CAA        -5.2960   -5.8810   -2.8910 c3        1 P08     -0.052800
     17 CAI        -3.3880   -4.3000   -3.1770 ca        1 P08     -0.083000
     18 CAV        -2.4540   -3.3890   -2.6900 ca        1 P08     -0.107300
     19 CAZ        -1.4640   -2.7250   -3.6200 c3        1 P08      0.248800
     20 CAB        -2.2370   -1.9230   -4.6730 c3        1 P08     -0.128100
     21 NAP        -0.5300   -3.7080   -4.1490 nh        1 P08     -0.720600
     22 CAT         0.4930   -3.2920   -5.0170 ca        1 P08      0.145600
     23 CAG         1.0620   -4.2290   -5.9160 ca        1 P08     -0.188500
     24 CAE         2.1500   -3.8780   -6.7060 ca        1 P08     -0.095000
     25 CAD         2.6960   -2.5970   -6.6390 ca        1 P08     -0.170000
     26 CAF         2.1400   -1.6630   -5.7680 ca        1 P08     -0.095000
     27 CAH         1.0520   -1.9950   -4.9660 ca        1 P08     -0.188500
     28 HAN1        0.4690    0.7420   -0.0350 h1        1 P08      0.075700
     29 HAN2       -0.3420   -0.3310   -1.2730 h1        1 P08      0.075700
     30 HAL1        2.2390   -0.4690   -1.2340 h1        1 P08      0.063700
     31 HAL2        1.4010   -2.0850   -0.9700 h1        1 P08      0.063700
     32 HAM1        1.4330   -2.8750    1.4440 h1        1 P08      0.063700
     33 HAM2        2.2660   -1.7130    2.6000 h1        1 P08      0.063700
     34 HAO1        0.4700   -0.0630    2.3930 h1        1 P08      0.075700
     35 HAO2       -0.3160   -1.6770    2.7330 h1        1 P08      0.075700
     36 HAJ        -2.4010   -2.0630    2.4260 ha        1 P08      0.170000
     37 HAK        -5.0550   -5.0650   -0.2850 ha        1 P08      0.164000
     38 HAA1       -6.0820   -6.1440   -2.1410 hc        1 P08      0.048033
     39 HAA2       -4.7710   -6.8220   -3.1940 hc        1 P08      0.048033
     40 HAA3       -5.7990   -5.4560   -3.7950 hc        1 P08      0.048033
     41 HAI        -3.3980   -4.5430   -4.2520 ha        1 P08      0.137000
     42 HAZ        -0.8450   -1.9900   -3.0180 h1        1 P08      0.076700
     43 HAB1       -2.8770   -2.5890   -5.2990 hc        1 P08      0.046700
     44 HAB2       -1.5260   -1.3810   -5.3430 hc        1 P08      0.046700
     45 HAB3       -2.8910   -1.1780   -4.1620 hc        1 P08      0.046700
     46 HAP        -0.9870   -4.5430   -4.4590 hn        1 P08      0.391800
     47 HAG         0.6520   -5.2470   -5.9870 ha        1 P08      0.129500
     48 HAH         0.6390   -1.2340   -4.2890 ha        1 P08      0.129500
     49 HAE         2.5810   -4.6220   -7.3930 ha        1 P08      0.129500
     50 HAD         3.5550   -2.3270   -7.2690 ha        1 P08      0.132000
     51 HAF         2.5630   -0.6490   -5.7090 ha        1 P08      0.129500
@<TRIPOS>BOND
     1    1    2 1   
     2    1    6 1   
     3    1   28 1   
     4    1   29 1   
     5    2    3 1   
     6    2   30 1   
     7    2   31 1   
     8    3    4 1   
     9    4    5 1   
    10    4   32 1   
    11    4   33 1   
    12    5    6 1   
    13    5   34 1   
    14    5   35 1   
    15    6    7 1   
    16    7    8 2   
    17    7   11 1   
    18    8    9 1   
    19    8   36 1   
    20    9   10 2   
    21    9   13 1   
    22   11   12 1   
    23   12   13 ar  
    24   12   18 ar  
    25   13   14 ar  
    26   14   15 ar  
    27   14   37 1   
    28   15   16 1   
    29   15   17 ar  
    30   16   38 1   
    31   16   39 1   
    32   16   40 1   
    33   17   18 ar  
    34   17   41 1   
    35   18   19 1   
    36   19   20 1   
    37   19   21 1   
    38   19   42 1   
    39   20   43 1   
    40   20   44 1   
    41   20   45 1   
    42   21   22 1   
    43   21   46 1   
    44   22   23 ar  
    45   22   27 ar  
    46   23   24 ar  
    47   23   47 1   
    48   24   25 ar  
    49   24   49 1   
    50   25   26 ar  
    51   25   50 1   
    52   26   27 ar  
    53   26   51 1   
    54   27   48 1   
@<TRIPOS>SUBSTRUCTURE
     1 P08         1 TEMP              0 ****  ****    0 ROOT
