@<TRIPOS>MOLECULE
P08
   51    54     1     0     0
SMALL
bcc


@<TRIPOS>ATOM
      1 CAN         0.2430   -0.3280   -0.3150 c3        1 P08      0.143800
      2 CAL         1.5730   -1.0590   -0.5400 c3        1 P08      0.092900
      3 OAQ         2.3170   -1.1590    0.6700 os        1 P08     -0.408600
      4 CAM         1.5840   -1.7940    1.7110 c3        1 P08      0.092900
      5 CAO         0.2470   -1.0870    1.9750 c3        1 P08      0.143800
      6 NBA        -0.5570   -0.8680    0.7760 nh        1 P08     -0.611400
      7 CAU        -1.5040   -1.8680    0.4800 cc        1 P08      0.328100
      8 CAJ        -2.4030   -2.3840    1.3680 cd        1 P08     -0.374200
      9 CAW        -3.4050   -3.3610    0.9760 c         1 P08      0.599900
     10 OAC        -4.2050   -3.8640    1.7800 o         1 P08     -0.555100
     11 OAR        -1.4880   -2.2240   -0.8710 os        1 P08     -0.252200
     12 CAY        -2.4620   -3.1070   -1.3130 ca        1 P08      0.159100
     13 CAX        -3.4000   -3.7010   -0.4570 ca        1 P08     -0.205600
     14 CAK        -4.3280   -4.6080   -0.9850 ca        1 P08     -0.046000
     15 CAS        -4.3230   -4.9170   -2.3440 ca        1 P08     -0.106300
     16 CAA        -5.2910   -5.8870   -2.9050 c3        1 P08     -0.052800
     17 CAI        -3.3830   -4.3030   -3.1860 ca        1 P08     -0.083000
     18 CAV        -2.4520   -3.3900   -2.6960 ca        1 P08     -0.107300
     19 CAZ        -1.4610   -2.7250   -3.6230 c3        1 P08      0.248800
     20 CAB        -2.2310   -1.9250   -4.6790 c3        1 P08     -0.128100
     21 NAP        -0.5230   -3.7070   -4.1480 nu        1 P08     -0.720600
     22 CAT         0.5030   -3.2880   -5.0120 ca        1 P08      0.145600
     23 CAG         1.0770   -4.2240   -5.9090 ca        1 P08     -0.188500
     24 CAE         2.1670   -3.8730   -6.6950 ca        1 P08     -0.095000
     25 CAD         2.7110   -2.5900   -6.6260 ca        1 P08     -0.170000
     26 CAF         2.1500   -1.6580   -5.7560 ca        1 P08     -0.095000
     27 CAH         1.0600   -1.9900   -4.9590 ca        1 P08     -0.188500
     28 HAN1       -0.3470   -0.3310   -1.2720 h1        1 P08      0.075700
     29 HAN2        0.4590    0.7420   -0.0310 h1        1 P08      0.075700
     30 HAL1        2.2340   -0.4670   -1.2250 h1        1 P08      0.063700
     31 HAL2        1.3960   -2.0830   -0.9630 h1        1 P08      0.063700
     32 HAM1        1.4210   -2.8730    1.4510 h1        1 P08      0.063700
     33 HAM2        2.2490   -1.7110    2.6100 h1        1 P08      0.063700
     34 HAO1        0.4530   -0.0620    2.3970 h1        1 P08      0.075700
     35 HAO2       -0.3330   -1.6770    2.7350 h1        1 P08      0.075700
     36 HAJ        -2.4170   -2.0650    2.4210 ha        1 P08      0.170000
     37 HAK        -5.0590   -5.0690   -0.2990 ha        1 P08      0.164000
     38 HAA1       -5.7670   -5.4770   -3.8300 hc        1 P08      0.048033
     39 HAA2       -6.0970   -6.1260   -2.1690 hc        1 P08      0.048033
     40 HAA3       -4.7680   -6.8400   -3.1740 hc        1 P08      0.048033
     41 HAI        -3.3910   -4.5450   -4.2610 ha        1 P08      0.137000
     42 HAZ        -0.8440   -1.9890   -3.0180 h1        1 P08      0.076700
     43 HAB1       -2.8680   -2.5920   -5.3060 hc        1 P08      0.046700
     44 HAB2       -2.8880   -1.1800   -4.1700 hc        1 P08      0.046700
     45 HAB3       -1.5180   -1.3810   -5.3460 hc        1 P08      0.046700
     46 HAP        -0.9770   -4.5420   -4.4600 hn        1 P08      0.391800
     47 HAG         0.6680   -5.2440   -5.9810 ha        1 P08      0.129500
     48 HAH         0.6420   -1.2300   -4.2840 ha        1 P08      0.129500
     49 HAE         2.6030   -4.6160   -7.3800 ha        1 P08      0.129500
     50 HAD         3.5720   -2.3190   -7.2520 ha        1 P08      0.132000
     51 HAF         2.5710   -0.6420   -5.6970 ha        1 P08      0.129500
@<TRIPOS>BOND
     1    1    2 1   
     2    1    6 1   
     3    1   28 1   
     4    1   29 1   
     5    2    3 1   
     6    2   30 1   
     7    2   31 1   
     8    3    4 1   
     9    4    5 1   
    10    4   32 1   
    11    4   33 1   
    12    5    6 1   
    13    5   34 1   
    14    5   35 1   
    15    6    7 1   
    16    7    8 2   
    17    7   11 1   
    18    8    9 1   
    19    8   36 1   
    20    9   10 2   
    21    9   13 1   
    22   11   12 1   
    23   12   13 ar  
    24   12   18 ar  
    25   13   14 ar  
    26   14   15 ar  
    27   14   37 1   
    28   15   16 1   
    29   15   17 ar  
    30   16   38 1   
    31   16   39 1   
    32   16   40 1   
    33   17   18 ar  
    34   17   41 1   
    35   18   19 1   
    36   19   20 1   
    37   19   21 1   
    38   19   42 1   
    39   20   43 1   
    40   20   44 1   
    41   20   45 1   
    42   21   22 1   
    43   21   46 1   
    44   22   23 ar  
    45   22   27 ar  
    46   23   24 ar  
    47   23   47 1   
    48   24   25 ar  
    49   24   49 1   
    50   25   26 ar  
    51   25   50 1   
    52   26   27 ar  
    53   26   51 1   
    54   27   48 1   
@<TRIPOS>SUBSTRUCTURE
     1 P08         1 TEMP              0 ****  ****    0 ROOT
