@<TRIPOS>MOLECULE
P08
   52    55     1     0     0
SMALL
bcc


@<TRIPOS>ATOM
      1 CAN         0.3220   -0.5090   -0.5980 c3        1 P08      0.142300
      2 CAL         1.6620   -1.1970   -0.8910 c3        1 P08      0.094400
      3 OAQ         2.4710   -1.2950    0.2700 os        1 P08     -0.390600
      4 CAM         1.8110   -1.9320    1.3600 c3        1 P08      0.094400
      5 CAO         0.4750   -1.2560    1.6920 c3        1 P08      0.142300
      6 NBA        -0.3960   -1.0680    0.5350 nh        1 P08     -0.610400
      7 CAU        -1.3610   -2.0620    0.3120 cc        1 P08      0.319100
      8 CAJ        -2.2230   -2.5400    1.2520 cd        1 P08     -0.341200
      9 CAW        -3.2680   -3.5040    0.9410 c         1 P08      0.592900
     10 OAC        -3.9790   -4.0380    1.7990 o         1 P08     -0.505100
     11 OAR        -1.4110   -2.4880   -1.0340 os        1 P08     -0.310200
     12 CAY        -2.5170   -3.2320   -1.4170 ca        1 P08      0.159100
     13 CAX        -3.4260   -3.7800   -0.5020 ca        1 P08     -0.196600
     14 CAK        -4.4840   -4.5630   -0.9740 ca        1 P08     -0.011000
     15 CAS        -4.6380   -4.8000   -2.3440 ca        1 P08     -0.090300
     16 CAA        -5.7710   -5.6200   -2.8330 c3        1 P08     -0.065800
     17 CAI        -3.7250   -4.2420   -3.2460 ca        1 P08     -0.057000
     18 CAV        -2.6610   -3.4490   -2.8050 ca        1 P08     -0.214300
     19 CAZ        -1.7040   -2.7980   -3.7530 c3        1 P08      0.217800
     20 CAB        -2.2090   -2.7310   -5.1840 c3        1 P08     -0.122100
     21 NAP        -0.3680   -3.5270   -3.6540 n4        1 P08     -0.640400
     22 CAT         0.6520   -3.0080   -4.5640 ca        1 P08     -0.051400
     23 CAG         1.0710   -3.7850   -5.6590 ca        1 P08     -0.107500
     24 CAE         2.0590   -3.2890   -6.5080 ca        1 P08     -0.102500
     25 CAD         2.6250   -2.0350   -6.2790 ca        1 P08     -0.074000
     26 CAF         2.2060   -1.2670   -5.1900 ca        1 P08     -0.102500
     27 CAH         1.2220   -1.7440   -4.3270 ca        1 P08     -0.107500
     28 HAN1       -0.3230   -0.5290   -1.5180 h1        1 P08      0.082950
     29 HAN2        0.5220    0.5700   -0.3290 h1        1 P08      0.082950
     30 HAL1        2.2720   -0.5780   -1.6020 h1        1 P08      0.056200
     31 HAL2        1.4910   -2.2210   -1.3210 h1        1 P08      0.056200
     32 HAM1        2.5270   -1.8160    2.2170 h1        1 P08      0.056200
     33 HAM2        1.6660   -3.0190    1.1250 h1        1 P08      0.056200
     34 HAO1       -0.0500   -1.8540    2.4860 h1        1 P08      0.082950
     35 HAO2        0.6750   -0.2220    2.0960 h1        1 P08      0.082950
     36 HAJ        -2.1820   -2.1900    2.2960 ha        1 P08      0.189000
     37 HAK        -5.1950   -4.9910   -0.2420 ha        1 P08      0.186000
     38 HAA1       -5.9730   -6.4710   -2.1350 hc        1 P08      0.063033
     39 HAA2       -5.5630   -6.0370   -3.8490 hc        1 P08      0.063033
     40 HAA3       -6.6960   -4.9920   -2.8940 hc        1 P08      0.063033
     41 HAI        -3.8650   -4.4280   -4.3230 ha        1 P08      0.150000
     42 HAZ        -1.4900   -1.7420   -3.3930 hx        1 P08      0.109700
     43 HAB1       -1.5190   -2.1190   -5.8160 hc        1 P08      0.076700
     44 HAB2       -3.2140   -2.2380   -5.1790 hc        1 P08      0.076700
     45 HAB3       -2.3100   -3.7440   -5.6450 hc        1 P08      0.076700
     46 HAP        -0.5220   -4.5220   -3.8500 hn        1 P08      0.455300
     47 HAG         0.6360   -4.7780   -5.8580 ha        1 P08      0.152500
     48 HAH         0.9070   -1.1310   -3.4670 ha        1 P08      0.152500
     49 HAE         2.3920   -3.8980   -7.3660 ha        1 P08      0.170000
     50 HAD         3.4070   -1.6500   -6.9560 ha        1 P08      0.171000
     51 HAF         2.6550   -0.2770   -5.0080 ha        1 P08      0.170000
     52 HAP2       -0.0340   -3.4310   -2.6840 hn        1 P08      0.455300
@<TRIPOS>BOND
     1    1    2 1   
     2    1    6 1   
     3    1   28 1   
     4    1   29 1   
     5    2    3 1   
     6    2   30 1   
     7    2   31 1   
     8    3    4 1   
     9    4    5 1   
    10    4   32 1   
    11    4   33 1   
    12    5    6 1   
    13    5   34 1   
    14    5   35 1   
    15    6    7 1   
    16    7    8 2   
    17    7   11 1   
    18    8    9 1   
    19    8   36 1   
    20    9   10 2   
    21    9   13 1   
    22   11   12 1   
    23   12   13 ar  
    24   12   18 ar  
    25   13   14 ar  
    26   14   15 ar  
    27   14   37 1   
    28   15   16 1   
    29   15   17 ar  
    30   16   38 1   
    31   16   39 1   
    32   16   40 1   
    33   17   18 ar  
    34   17   41 1   
    35   18   19 1   
    36   19   20 1   
    37   19   21 1   
    38   19   42 1   
    39   20   43 1   
    40   20   44 1   
    41   20   45 1   
    42   21   22 1   
    43   21   46 1   
    44   21   52 1   
    45   22   23 ar  
    46   22   27 ar  
    47   23   24 ar  
    48   23   47 1   
    49   24   25 ar  
    50   24   49 1   
    51   25   26 ar  
    52   25   50 1   
    53   26   27 ar  
    54   26   51 1   
    55   27   48 1   
@<TRIPOS>SUBSTRUCTURE
     1 P08         1 TEMP              0 ****  ****    0 ROOT
