@<TRIPOS>MOLECULE
P08
   51    49     1     0     0
SMALL
bcc


@<TRIPOS>ATOM
      1 CAN         1.0710    1.4180    3.7170 c3        1 P08     -0.080000
      2 CAL         1.3000    2.3090    4.9390 c3        1 P08     -0.029000
      3 OAQ         0.5530    3.5420    4.8720 os        1 P08     -0.265000
      4 CAM        -0.8200    3.3340    4.6090 c3        1 P08     -0.029000
      5 CAO        -1.0500    2.4340    3.3750 c3        1 P08     -0.080000
      6 NBA        -0.3060    1.2080    3.4480 n3        1 P08     -0.235000
      7 CAU        -0.7310    0.0610    2.6880 c2        1 P08      0.223000
      8 CAJ        -1.3500   -1.0900    3.3780 c1        1 P08     -0.377000
      9 CAW        -1.7610   -2.2570    2.6050 c1        1 P08      0.325000
     10 OAC        -2.3810   -3.1710    3.1510 o         1 P08     -0.320000
     11 OAR        -0.3900   -0.0430    1.2860 os        1 P08     -0.166000
     12 CAY        -0.9390   -1.1750    0.4620 c2        1 P08      0.099000
     13 CAX        -1.5490   -2.2750    1.1010 c2        1 P08     -0.183000
     14 CAK        -1.9170   -3.3900    0.3650 c1        1 P08     -0.049000
     15 CAS        -1.6810   -3.4280   -1.0280 c1        1 P08     -0.101000
     16 CAA        -2.1320   -4.6390   -1.8460 c3        1 P08     -0.177000
     17 CAI        -1.0790   -2.3430   -1.6640 c1        1 P08     -0.063000
     18 CAV        -0.7060   -1.2110   -0.9180 c1        1 P08     -0.098000
     19 CAZ         0.0240   -0.0810   -1.5840 c3        1 P08      0.049000
     20 CAB        -0.9220    1.0730   -1.7950 c3        1 P08     -0.229000
     21 NAP         0.5240   -0.5170   -2.8350 n3        1 P08     -0.294000
     22 CAT         1.4970    0.2500   -3.5140 c2        1 P08      0.068000
     23 CAG         1.1960    0.8000   -4.7660 c2        1 P08     -0.194000
     24 CAE         2.2010    1.4130   -5.5190 c1        1 P08     -0.095000
     25 CAD         3.5030    1.4780   -5.0230 c1        1 P08     -0.134000
     26 CAF         3.8040    0.9290   -3.7710 c1        1 P08     -0.134000
     27 CAH         2.8040    0.3160   -3.0180 c1        1 P08     -0.185000
     28 HAN1        1.5030    0.5460    3.8750 h1        1 P08      0.100000
     29 HAN2        1.4860    1.8430    2.9300 h1        1 P08      0.100000
     30 HAL1        1.0230    1.8020    5.7720 h1        1 P08      0.101250
     31 HAL2        2.2800    2.5270    5.0010 h1        1 P08      0.101250
     32 HAM1       -1.2170    2.9210    5.3700 h1        1 P08      0.101250
     33 HAM2       -1.2530    4.2060    4.4570 h1        1 P08      0.101250
     34 HAO1       -0.7790    2.9190    2.5790 h1        1 P08      0.100000
     35 HAO2       -2.0290    2.2140    3.3050 h1        1 P08      0.100000
     36 HAJ        -1.6070   -1.0110    4.2690 ha        1 P08      0.167000
     37 HAK        -2.3050   -4.1620    0.8160 ha        1 P08      0.162000
     38 HAA1       -2.5230   -4.3330   -2.7070 hc        1 P08      0.086667
     39 HAA2       -1.3980   -5.1890   -2.0160 hc        1 P08      0.086667
     40 HAA3       -2.8130   -5.1440   -1.3360 hc        1 P08      0.086667
     41 HAI        -0.9150   -2.3710   -2.6270 ha        1 P08      0.144000
     42 HAZ         0.7910    0.2150   -0.9990 h1        1 P08      0.105000
     43 HAB1       -1.4620    1.1740   -1.0430 hc        1 P08      0.086000
     44 HAB2       -0.4130    1.8870   -1.9390 hc        1 P08      0.086000
     45 HAB3       -1.4790    0.8970   -2.5710 hc        1 P08      0.086000
     46 HAP         0.1640   -1.2350   -3.2340 hn        1 P08      0.194000
     47 HAG         0.2390    0.7480   -5.1330 ha        1 P08      0.128000
     48 HAH         3.0180   -0.0720   -2.1300 ha        1 P08      0.142000
     49 HAE         1.9950    1.7920   -6.3810 ha        1 P08      0.129000
     50 HAD         4.2040    1.9050   -5.5490 ha        1 P08      0.130500
     51 HAF         4.7270    0.9750   -3.4210 ha        1 P08      0.130500
@<TRIPOS>BOND
     1    1    2 1   
     2    1    6 1   
     3    1   28 1   
     4    1   29 1   
     5    2    3 1   
     6    2   30 1   
     7    2   31 1   
     8    3    4 1   
     9    4    5 1   
    10    4   32 1   
    11    4   33 1   
    12    5    6 1   
    13    5   34 1   
    14    5   35 1   
    15    6    7 1   
    16    7    8 1   
    17    7   11 1   
    18    8   36 1   
    19    9   10 1   
    20    9   13 1   
    21   11   12 1   
    22   12   13 1   
    23   12   18 1   
    24   13   14 1   
    25   14   37 1   
    26   15   16 1   
    27   15   17 1   
    28   16   38 1   
    29   16   39 1   
    30   16   40 1   
    31   17   41 1   
    32   18   19 1   
    33   19   20 1   
    34   19   21 1   
    35   19   42 1   
    36   20   43 1   
    37   20   44 1   
    38   20   45 1   
    39   21   22 1   
    40   21   46 1   
    41   22   23 1   
    42   22   27 1   
    43   23   24 1   
    44   23   47 1   
    45   24   49 1   
    46   25   26 1   
    47   25   50 1   
    48   26   51 1   
    49   27   48 1   
@<TRIPOS>SUBSTRUCTURE
     1 P08         1 TEMP              0 ****  ****    0 ROOT
