@<TRIPOS>MOLECULE
P08
   51    54     1     0     0
SMALL
bcc


@<TRIPOS>ATOM
      1 CAN         1.9260   -2.4370   -0.9090 c3        1 P08      0.143800
      2 CAL         1.2660   -3.1860    0.2550 c3        1 P08      0.092900
      3 OAQ         2.2390   -3.8260    1.0730 os        1 P08     -0.408600
      4 CAM         3.2150   -2.9190    1.5720 c3        1 P08      0.092900
      5 CAO         3.9080   -2.1520    0.4360 c3        1 P08      0.143800
      6 NBA         2.9870   -1.5230   -0.5060 nh        1 P08     -0.611400
      7 CAU         2.6480   -0.1840   -0.2320 cc        1 P08      0.328100
      8 CAJ         3.5410    0.8110    0.0410 cd        1 P08     -0.374200
      9 CAW         3.1280    2.1900    0.2400 c         1 P08      0.599900
     10 OAC         3.9250    3.0980    0.5230 o         1 P08     -0.555100
     11 OAR         1.2750    0.0480   -0.3570 os        1 P08     -0.252200
     12 CAY         0.8320    1.3560   -0.2380 ca        1 P08      0.159100
     13 CAX         1.6830    2.4270    0.0700 ca        1 P08     -0.205600
     14 CAK         1.1440    3.7130    0.2040 ca        1 P08     -0.046000
     15 CAS        -0.2220    3.9290    0.0320 ca        1 P08     -0.106300
     16 CAA        -0.8010    5.2830    0.1880 c3        1 P08     -0.052800
     17 CAI        -1.0560    2.8470   -0.2880 ca        1 P08     -0.083000
     18 CAV        -0.5510    1.5570   -0.4360 ca        1 P08     -0.107300
     19 CAZ        -1.4630    0.4080   -0.8000 c3        1 P08      0.248800
     20 CAB        -2.1130    0.7020   -2.1560 c3        1 P08     -0.128100
     21 NAP        -2.3910    0.1360    0.2880 nh        1 P08     -0.720600
     22 CAT        -3.3120   -0.9180    0.1640 ca        1 P08      0.145600
     23 CAG        -4.5080   -0.8860    0.9240 ca        1 P08     -0.188500
     24 CAE        -5.3840   -1.9640    0.9090 ca        1 P08     -0.095000
     25 CAD        -5.1100   -3.0940    0.1380 ca        1 P08     -0.170000
     26 CAF        -3.9430   -3.1350   -0.6210 ca        1 P08     -0.095000
     27 CAH        -3.0510   -2.0660   -0.6180 ca        1 P08     -0.188500
     28 HAN1        2.4170   -3.1870   -1.5940 h1        1 P08      0.075700
     29 HAN2        1.1370   -1.8870   -1.4910 h1        1 P08      0.075700
     30 HAL1        0.6460   -2.4870    0.8760 h1        1 P08      0.063700
     31 HAL2        0.6310   -4.0270   -0.1310 h1        1 P08      0.063700
     32 HAM1        2.7340   -2.2110    2.2970 h1        1 P08      0.063700
     33 HAM2        3.9550   -3.5710    2.1050 h1        1 P08      0.063700
     34 HAO1        4.5980   -1.3850    0.8820 h1        1 P08      0.075700
     35 HAO2        4.5210   -2.8760   -0.1720 h1        1 P08      0.075700
     36 HAJ         4.6200    0.6110    0.1050 ha        1 P08      0.170000
     37 HAK         1.8260    4.5450    0.4490 ha        1 P08      0.164000
     38 HAA1       -1.4730    5.5250   -0.6730 hc        1 P08      0.048033
     39 HAA2       -1.4060    5.3360    1.1290 hc        1 P08      0.048033
     40 HAA3       -0.0010    6.0620    0.2410 hc        1 P08      0.048033
     41 HAI        -2.1340    3.0270   -0.4310 ha        1 P08      0.137000
     42 HAZ        -0.8310   -0.5270   -0.9190 h1        1 P08      0.076700
     43 HAB1       -1.3150    0.8570   -2.9210 hc        1 P08      0.046700
     44 HAB2       -2.7520   -0.1580   -2.4720 hc        1 P08      0.046700
     45 HAB3       -2.7460    1.6190   -2.1120 hc        1 P08      0.046700
     46 HAP        -2.8030    0.9700    0.6580 hn        1 P08      0.391800
     47 HAG        -4.7470   -0.0070    1.5420 ha        1 P08      0.129500
     48 HAH        -2.1400   -2.1320   -1.2290 ha        1 P08      0.129500
     49 HAE        -6.3040   -1.9220    1.5110 ha        1 P08      0.129500
     50 HAD        -5.8080   -3.9420    0.1310 ha        1 P08      0.132000
     51 HAF        -3.7190   -4.0210   -1.2340 ha        1 P08      0.129500
@<TRIPOS>BOND
     1    1    2 1   
     2    1    6 1   
     3    1   28 1   
     4    1   29 1   
     5    2    3 1   
     6    2   30 1   
     7    2   31 1   
     8    3    4 1   
     9    4    5 1   
    10    4   32 1   
    11    4   33 1   
    12    5    6 1   
    13    5   34 1   
    14    5   35 1   
    15    6    7 1   
    16    7    8 2   
    17    7   11 1   
    18    8    9 1   
    19    8   36 1   
    20    9   10 2   
    21    9   13 1   
    22   11   12 1   
    23   12   13 ar  
    24   12   18 ar  
    25   13   14 ar  
    26   14   15 ar  
    27   14   37 1   
    28   15   16 1   
    29   15   17 ar  
    30   16   38 1   
    31   16   39 1   
    32   16   40 1   
    33   17   18 ar  
    34   17   41 1   
    35   18   19 1   
    36   19   20 1   
    37   19   21 1   
    38   19   42 1   
    39   20   43 1   
    40   20   44 1   
    41   20   45 1   
    42   21   22 1   
    43   21   46 1   
    44   22   23 ar  
    45   22   27 ar  
    46   23   24 ar  
    47   23   47 1   
    48   24   25 ar  
    49   24   49 1   
    50   25   26 ar  
    51   25   50 1   
    52   26   27 ar  
    53   26   51 1   
    54   27   48 1   
@<TRIPOS>SUBSTRUCTURE
     1 P08         1 TEMP              0 ****  ****    0 ROOT
