@<TRIPOS>MOLECULE
P09
   45    47     1     0     0
SMALL
bcc


@<TRIPOS>ATOM
      1 CAA        -7.7310    1.9700   -0.3640 c3        1 P09     -0.039800
      2 CAB        -8.0860   -0.8220    0.3280 c3        1 P09     -0.048800
      3 OAC         4.9600   -1.9300   -1.6120 o         1 P09     -0.813300
      4 OAD         2.7200    0.3530    2.0270 o         1 P09     -0.633100
      5 OAE         3.5170   -0.4650   -2.4830 o         1 P09     -0.813300
      6 CAF         6.9090    1.7380   -0.3030 ca        1 P09     -0.126000
      7 CAG         6.2450    2.2820    0.8000 ca        1 P09     -0.173000
      8 CAH         6.2930    0.7540   -1.0650 ca        1 P09     -0.125000
      9 CAI         4.9720    1.8330    1.1250 ca        1 P09     -0.096000
     10 CAJ        -5.2610    1.6080   -0.3200 ca        1 P09     -0.095000
     11 CAK         0.0260   -0.0920    1.2680 ca        1 P09     -0.173000
     12 CAL        -0.0240   -0.6410   -1.1060 ca        1 P09     -0.173000
     13 CAM        -4.1410    0.8020   -0.1420 ca        1 P09     -0.189000
     14 CAN        -1.3040   -0.4780    1.3780 ca        1 P09     -0.109000
     15 CAO        -1.3520   -1.0220   -0.9920 ca        1 P09     -0.109000
     16 CAP        -5.6100   -1.0810    0.3480 ca        1 P09     -0.162000
     17 OAR        -3.2870   -1.4460    0.3950 os        1 P09     -0.251200
     18 CAT         2.9740    0.4500    0.8060 c         1 P09      0.690700
     19 CAU        -6.5530    1.0950   -0.1700 ca        1 P09     -0.126300
     20 CAV        -6.7240   -0.2610    0.1660 ca        1 P09     -0.055300
     21 CAW         0.6930   -0.1530    0.0210 ca        1 P09      0.103600
     22 CAX        -1.9910   -0.9360    0.2510 ca        1 P09      0.011100
     23 CAY        -4.3200   -0.5450    0.1930 ca        1 P09      0.134100
     24 CAZ         4.9980    0.3000   -0.7600 ca        1 P09     -0.071600
     25 CBA         4.3380    0.8500    0.3430 ca        1 P09     -0.138600
     26 HAA        -8.3780    1.5750   -1.1880 hc        1 P09      0.034700
     27 HAAA       -8.3470    2.0070    0.5700 hc        1 P09      0.034700
     28 HAAB       -7.4250    3.0130   -0.6260 hc        1 P09      0.034700
     29 HAB        -8.6660   -0.7090   -0.6220 hc        1 P09      0.039367
     30 HABA       -8.0520   -1.9060    0.5950 hc        1 P09      0.039367
     31 HABB       -8.6350   -0.2750    1.1360 hc        1 P09      0.039367
     32 HAF         7.9190    2.0860   -0.5610 ha        1 P09      0.112000
     33 HAG         6.7300    3.0550    1.4110 ha        1 P09      0.113000
     34 HAH         6.8140    0.3020   -1.9230 ha        1 P09      0.141000
     35 HAI         4.4470    2.2350    2.0060 ha        1 P09      0.133000
     36 HAJ        -5.1240    2.6680   -0.5840 ha        1 P09      0.127000
     37 HAK         0.5630    0.2530    2.1660 ha        1 P09      0.168000
     38 HAL         0.4870   -0.7320   -2.0810 ha        1 P09      0.168000
     39 HAM        -3.1270    1.2110   -0.2620 ha        1 P09      0.156000
     40 HAN        -1.8150   -0.4330    2.3510 ha        1 P09      0.135500
     41 HAO        -1.9000   -1.4040   -1.8660 ha        1 P09      0.135500
     42 HAP        -5.7240   -2.1420    0.6100 ha        1 P09      0.144000
     43 HNAQ        2.3320    0.2540   -1.1330 hn        1 P09      0.381500
     44 NAQ         2.0020    0.2900   -0.1740 n         1 P09     -0.461100
     45 CAS         4.4420   -0.7870   -1.6750 c         1 P09      0.906200
@<TRIPOS>BOND
     1    1   19 1   
     2    1   26 1   
     3    1   27 1   
     4    1   28 1   
     5    2   20 1   
     6    2   29 1   
     7    2   30 1   
     8    2   31 1   
     9    3   45 1   
    10    4   18 2   
    11    5   45 1   
    12    6    7 ar  
    13    6    8 ar  
    14    6   32 1   
    15    7    9 ar  
    16    7   33 1   
    17    8   24 ar  
    18    8   34 1   
    19    9   25 ar  
    20    9   35 1   
    21   10   13 ar  
    22   10   19 ar  
    23   10   36 1   
    24   11   14 ar  
    25   11   21 ar  
    26   11   37 1   
    27   12   15 ar  
    28   12   21 ar  
    29   12   38 1   
    30   13   23 ar  
    31   13   39 1   
    32   14   22 ar  
    33   14   40 1   
    34   15   22 ar  
    35   15   41 1   
    36   16   20 ar  
    37   16   23 ar  
    38   16   42 1   
    39   17   22 1   
    40   17   23 1   
    41   18   25 1   
    42   18   44 1   
    43   19   20 ar  
    44   21   44 1   
    45   24   25 ar  
    46   24   45 1   
    47   43   44 1   
@<TRIPOS>SUBSTRUCTURE
     1 P09         1 TEMP              0 ****  ****    0 ROOT
