@<TRIPOS>MOLECULE
P09
   45    44     1     0     0
SMALL
bcc


@<TRIPOS>ATOM
      1 CAA         0.9940   -1.2370    0.8420 c3        1 P09     -0.174000
      2 CAB         1.3340    1.5730    1.4700 c3        1 P09     -0.176000
      3 OAC        11.5680   -2.3270   -2.8450 o         1 P09     -0.487500
      4 OAD         8.5620    2.2380   -2.4870 o         1 P09     -0.361000
      5 OAE        10.3110   -1.9240   -1.0100 o         1 P09     -0.487500
      6 CAF        15.3370    1.0500   -0.1350 c1        1 P09     -0.241000
      7 CAG        16.3800    1.3800    0.3510 c1        1 P09     -0.241000
      8 CAH        12.4750    0.3190   -1.5150 c1        1 P09      0.073000
      9 CAI        10.3670    0.8090   -4.1520 c2        1 P09     -0.168000
     10 CAJ         3.1180   -1.7130    2.0630 ca        1 P09     -0.118000
     11 CAK         7.1320    2.1460    0.0070 c2        1 P09     -0.291000
     12 CAL         7.5690   -0.0670    1.0530 c2        1 P09     -0.056000
     13 CAM         4.2280   -1.3070    2.7980 ca        1 P09     -0.142000
     14 CAN         6.1650    2.5250    0.9100 c1        1 P09     -0.166000
     15 CAO         7.0740    0.2120    2.2280 c1        1 P09     -0.244000
     16 CAP         3.4420    0.9980    2.6690 ca        1 P09     -0.118000
     17 OAR         5.3990    0.4850    3.9450 os        1 P09     -0.173000
     18 CAT         9.1940    1.2550   -2.0530 c2        1 P09      0.345000
     19 CAU         2.1640   -0.7850    1.6300 ca        1 P09     -0.081000
     20 CAV         2.3280    0.5780    1.9350 ca        1 P09     -0.063000
     21 CAW         7.8320    0.9400    0.0070 c2        1 P09      0.157000
     22 CAX         6.6970    0.4010    3.4640 c2        1 P09      0.040000
     23 CAY         4.3780    0.0510    3.1000 ca        1 P09      0.045000
     24 CAZ        11.3670   -0.0310   -2.0800 c2        1 P09     -0.490000
     25 CBA        10.3400    0.6630   -2.8200 c2        1 P09     -0.021000
     26 HAA         0.9930   -2.3460    0.7120 hc        1 P09      0.079667
     27 HAAA        1.0050   -0.7610   -0.1710 hc        1 P09      0.079667
     28 HAAB        0.0430   -0.9390    1.3530 hc        1 P09      0.079667
     29 HAB         1.2540    1.5440    0.3540 hc        1 P09      0.082333
     30 HABA        0.3260    1.3430    1.8970 hc        1 P09      0.082333
     31 HABB        1.6220    2.6090    1.7760 hc        1 P09      0.082333
     32 HAF        11.1720    0.3770   -4.7610 ha        1 P09      0.126500
     33 HAG         9.5840    1.3590   -4.6900 ha        1 P09      0.126500
     34 HAH        14.3990    0.7530   -0.5720 ha        1 P09      0.235000
     35 HAI        17.3010    1.6710    0.7820 ha        1 P09      0.235000
     36 HAJ         2.9930   -2.7780    1.8160 ha        1 P09      0.130000
     37 HAK         7.4070    2.9080   -0.7520 ha        1 P09      0.178000
     38 HAL         7.8040   -1.1210    0.7900 ha        1 P09      0.167000
     39 HAM         4.9820   -2.0330    3.1320 ha        1 P09      0.144000
     40 HAN         7.3840    0.5770    4.3110 h4        1 P09      0.175000
     41 HAO         5.4960    1.7970    1.3900 ha        1 P09      0.056000
     42 HAP         3.5960    2.0620    2.9040 ha        1 P09      0.158000
     43 HNAQ        9.4170   -0.1980   -0.6170 hn        1 P09      0.296000
     44 NAQ         8.8710    0.6250   -0.8470 ns        1 P09     -0.302000
     45 CAS        11.0580   -1.6150   -1.9660 c2        1 P09      0.428000
@<TRIPOS>BOND
     1    1   19 1   
     2    1   26 1   
     3    1   27 1   
     4    1   28 1   
     5    2   20 1   
     6    2   29 1   
     7    2   30 1   
     8    2   31 1   
     9    3   45 1   
    10    4   18 1   
    11    5   45 1   
    12    6    7 1   
    13    6   34 1   
    14    7   35 1   
    15    8   24 1   
    16    9   25 1   
    17    9   32 1   
    18    9   33 1   
    19   10   13 1   
    20   10   19 1   
    21   10   36 1   
    22   11   14 1   
    23   11   21 1   
    24   11   37 1   
    25   12   15 1   
    26   12   21 1   
    27   12   38 1   
    28   13   23 1   
    29   13   39 1   
    30   14   41 1   
    31   15   22 1   
    32   16   20 1   
    33   16   23 1   
    34   16   42 1   
    35   17   22 1   
    36   17   23 1   
    37   18   25 1   
    38   18   44 1   
    39   19   20 1   
    40   21   44 1   
    41   22   40 1   
    42   24   25 1   
    43   24   45 1   
    44   43   44 1   
@<TRIPOS>SUBSTRUCTURE
     1 P09         1 TEMP              0 ****  ****    0 ROOT
