@<TRIPOS>MOLECULE
P09
   46    45     1     0     0
SMALL
bcc


@<TRIPOS>ATOM
      1 CAA        -0.4470   -0.7060    1.6880 c3        1 P09     -0.219000
      2 CAB         1.2920    1.5680    2.2120 c1        1 P09      0.401000
      3 OAC        16.2770    3.3040    0.6900 o         1 P09     -0.244000
      4 OAD        11.8420    3.4030    0.6990 o         1 P09     -0.274000
      5 OAE        14.0620    3.5440    0.8340 os        1 P09     -0.236000
      6 CAF        13.8920   -0.9800   -1.7290 c2        1 P09     -0.183000
      7 CAG        12.9900   -0.0610   -2.0920 c2        1 P09     -0.154000
      8 CAH        15.5100    0.7170   -0.9550 c1        1 P09      0.332000
      9 CAI        12.4770    0.9780   -1.2190 c2        1 P09     -0.031000
     10 CAJ         1.5130   -1.7560    0.5890 c2        1 P09     -0.161000
     11 CAK         8.0870    1.1150    0.9820 c2        1 P09     -0.189000
     12 CAL         7.0210    1.5170   -0.9950 c1        1 P09     -0.151000
     13 CAM         2.8320   -1.8050    0.3770 c2        1 P09     -0.164000
     14 CAN         7.0330    0.2470    1.3170 c2        1 P09     -0.117000
     15 CAO         6.0830    0.7330   -0.7200 c1        1 P09     -0.150000
     16 CAP         3.1110    0.5190    1.2390 c1        1 P09     -0.026000
     17 OAR         4.9820   -0.9240    0.7640 os        1 P09     -0.178000
     18 CAT        12.9060    2.9090    0.3600 c2        1 P09      0.359000
     19 CAU         0.7840   -0.4770    0.8330 c3        1 P09     -0.026000
     20 CAV         1.6970    0.5540    1.4350 c2        1 P09     -0.475000
     21 CAW         8.1470    1.8430   -0.2530 c2        1 P09      0.120000
     22 CAX         5.9380    0.0040    0.4470 c2        1 P09      0.131000
     23 CAY         3.6440   -0.5490    0.3700 c3        1 P09      0.015000
     24 CAZ        14.7590    1.6810   -0.4260 c2        1 P09     -0.454000
     25 CBA        13.2900    1.7530   -0.4850 c2        1 P09     -0.117000
     26 HAA        -1.1200   -1.4520    1.2020 hc        1 P09      0.084000
     27 HAAA        0.4500   -0.0790   -0.1730 hc        1 P09      0.107000
     28 HAAB       -1.0110    0.2500    1.8170 hc        1 P09      0.084000
     29 HAB        -0.1630   -1.0910    2.6970 hc        1 P09      0.084000
     30 HABA       -0.4260    0.9390    3.8900 ha        1 P09      0.001750
     31 HABB       -0.4290    1.6090    4.0000 ha        1 P09      0.001750
     32 HAF        14.2420   -1.1180   -0.6930 ha        1 P09      0.137500
     33 HAG        11.3810    1.1390   -1.2180 ha        1 P09      0.189000
     34 HAH        14.2800   -1.7220   -2.4420 ha        1 P09      0.137500
     35 HAI        12.5830   -0.0340   -3.1200 ha        1 P09      0.154000
     36 HAJ         0.8960   -2.6680    0.5850 ha        1 P09      0.138000
     37 HAK         8.8980    1.2600    1.7110 ha        1 P09      0.149000
     38 HAL         2.0220   -5.2640    0.1480 ha        1 P09      0.001750
     39 HAM         3.3810   -2.7440    0.2110 ha        1 P09      0.154000
     40 HAN         7.0390   -0.2660    2.2900 ha        1 P09      0.159000
     41 HAO         2.0550   -4.5900    0.2080 ha        1 P09      0.001750
     42 HAP         3.6830   -0.1210   -0.6840 h1        1 P09      0.146000
     43 HNAQ        8.9550    3.3480   -1.3080 hn        1 P09      0.201000
     44 HAQ2        9.7660    2.9890    0.1020 hn        1 P09      0.201000
     45 NAQ         9.2100    2.6400   -0.6530 n3        1 P09     -0.327000
     46 CAS        15.1920    2.8530    0.3690 c2        1 P09      0.387000
@<TRIPOS>BOND
     1    1   19 1   
     2    1   26 1   
     3    1   28 1   
     4    1   29 1   
     5    2   20 1   
     6    3   46 1   
     7    4   18 1   
     8    5   18 1   
     9    5   46 1   
    10    6    7 1   
    11    6   32 1   
    12    6   34 1   
    13    7    9 1   
    14    7   35 1   
    15    8   24 1   
    16    9   25 1   
    17    9   33 1   
    18   10   13 1   
    19   10   19 1   
    20   10   36 1   
    21   11   14 1   
    22   11   21 1   
    23   11   37 1   
    24   12   15 1   
    25   12   21 1   
    26   13   23 1   
    27   13   39 1   
    28   14   22 1   
    29   14   40 1   
    30   15   22 1   
    31   16   20 1   
    32   16   23 1   
    33   17   22 1   
    34   17   23 1   
    35   18   25 1   
    36   19   20 1   
    37   19   27 1   
    38   21   45 1   
    39   23   42 1   
    40   24   25 1   
    41   24   46 1   
    42   30   31 1   
    43   38   41 1   
    44   43   45 1   
    45   44   45 1   
@<TRIPOS>SUBSTRUCTURE
     1 P09         1 TEMP              0 ****  ****    0 ROOT
