@<TRIPOS>MOLECULE
P09
   45    40     1     0     0
SMALL
bcc


@<TRIPOS>ATOM
      1 CAA        -6.2450   -2.6620   -3.7590 c3        1 P09     -0.169500
      2 CAB        -5.0630    0.1650   -4.7230 c3        1 P09     -0.169500
      3 OAC         5.5000   -1.7000    2.5140 o         1 P09     -0.549000
      4 OAD         3.7360   -0.0490    1.1080 o         1 P09     -0.394000
      5 OAE         6.7230   -0.2760    1.3240 o         1 P09     -0.549000
      6 CAF         5.6470    1.8950    5.2520 c1        1 P09     -0.144500
      7 CAG         4.7310    2.8190    4.7660 c1        1 P09     -0.144500
      8 CAH         6.0210    0.7920    4.4550 c1        1 P09     -0.125000
      9 CAI         4.1780    2.6530    3.4770 c1        1 P09     -0.095000
     10 CAJ        -4.2110   -2.7760   -2.2270 c1        1 P09     -0.129000
     11 CAK        -0.1450    0.4550    1.5580 c1        1 P09     -0.172000
     12 CAL         1.2800    0.7040   -0.3690 c1        1 P09     -0.144500
     13 CAM        -3.0440   -2.2180   -1.6660 c1        1 P09     -0.148500
     14 CAN        -1.1580   -0.0830    0.7360 c1        1 P09     -0.148500
     15 CAO         0.2850    0.1730   -1.1890 c1        1 P09     -0.144500
     16 CAP        -3.4500   -0.1820   -2.9250 c1        1 P09     -0.129000
     17 NAQ         2.0820    1.4510    1.8430 n         1 P09     -0.314000
     18 OAR        -1.6770    0.0460   -1.8210 os        1 P09     -0.164000
     19 CAS         5.9300   -0.5060    2.3010 c2        1 P09      0.354000
     20 CAT         3.4550    0.9170    1.8280 c2        1 P09      0.364000
     21 CAU        -4.9860   -2.0310   -3.1310 c2        1 P09     -0.083500
     22 CAV        -4.6020   -0.7330   -3.4770 c2        1 P09     -0.083500
     23 CAW         1.0580    0.8430    1.0070 c1        1 P09      0.110000
     24 CAX        -0.9380   -0.2220   -0.6360 c1        1 P09      0.027000
     25 CAY        -2.6610   -0.9460   -2.0020 c1        1 P09      0.027000
     26 CAZ         5.4740    0.6350    3.1910 c2        1 P09     -0.051000
     27 CBA         4.5480    1.5740    2.7030 c2        1 P09     -0.118000
     28 HAA        -6.5630   -3.3800   -3.1860 hc        1 P09      0.076000
     29 HAAA       -6.9600   -1.9680   -3.8500 hc        1 P09      0.076000
     30 HAAB       -6.0230   -3.0240   -4.6460 hc        1 P09      0.076000
     31 HAB        -4.7230    1.0230   -4.6270 hc        1 P09      0.076000
     32 HABA       -6.0380    0.2040   -4.7550 hc        1 P09      0.076000
     33 HABB       -4.7130   -0.2450   -5.5840 hc        1 P09      0.076000
     34 HAF         5.9880    1.9710    6.2070 ha        1 P09      0.132250
     35 HAG         4.4680    3.5860    5.3170 ha        1 P09      0.132250
     36 HAH         6.6110    0.0890    4.8290 ha        1 P09      0.141000
     37 HAI         3.5750    3.2620    3.1530 ha        1 P09      0.133000
     38 HAJ        -4.4820   -3.6840   -1.9850 ha        1 P09      0.136500
     39 HAK        -0.2960    0.5550    2.5250 ha        1 P09      0.165000
     40 HAL         2.0610    1.0600   -0.7530 ha        1 P09      0.132250
     41 HAM        -2.4730   -2.7710   -1.0290 ha        1 P09      0.149000
     42 HAN        -1.9710   -0.4370    1.1360 ha        1 P09      0.149000
     43 HAO         0.4030    0.1820   -2.1730 ha        1 P09      0.132250
     44 HAP        -3.1850    0.7020   -3.1600 ha        1 P09      0.136500
     45 HNAQ        1.8530    2.1360    2.4420 hn        1 P09      0.294000
@<TRIPOS>BOND
     1    1   21 1   
     2    1   28 1   
     3    1   29 1   
     4    1   30 1   
     5    2   22 1   
     6    2   31 1   
     7    2   32 1   
     8    2   33 1   
     9    3   19 1   
    10    4   20 1   
    11    5   19 1   
    12    6    7 1   
    13    6   34 1   
    14    7   35 1   
    15    8   26 1   
    16    8   36 1   
    17    9   27 1   
    18    9   37 1   
    19   10   21 1   
    20   10   38 1   
    21   11   23 1   
    22   11   39 1   
    23   12   15 1   
    24   12   40 1   
    25   13   25 1   
    26   13   41 1   
    27   14   24 1   
    28   14   42 1   
    29   15   43 1   
    30   16   22 1   
    31   16   44 1   
    32   17   20 1   
    33   17   23 1   
    34   17   45 1   
    35   18   24 1   
    36   18   25 1   
    37   19   26 1   
    38   20   27 1   
    39   21   22 1   
    40   26   27 1   
@<TRIPOS>SUBSTRUCTURE
     1 P09         1 TEMP              0 ****  ****    0 ROOT
