@<TRIPOS>MOLECULE
P09
   45    46     1     0     0
SMALL
bcc


@<TRIPOS>ATOM
      1 CAA        -0.4680   -0.4940    0.3210 c3        1 P09     -0.165000
      2 CAB         0.0670    0.0000    3.1280 c3        1 P09     -0.173000
      3 OAC        14.4090    0.1080    0.8520 o         1 P09     -0.493000
      4 OAD         9.6860    1.4010   -1.7920 o         1 P09     -0.381000
      5 OAE        12.3680    0.0830    1.8000 o         1 P09     -0.493000
      6 CAF        14.8400    0.7190   -2.2310 c2        1 P09     -0.166000
      7 CAG        13.7560    1.2420   -2.8090 c2        1 P09     -0.177000
      8 CAH        12.6460   -1.7630   -0.8010 c1        1 P09      0.125000
      9 CAI        12.4290    1.3220   -2.2480 c2        1 P09     -0.063000
     10 CAJ         1.9460   -0.0700   -0.1530 ca        1 P09     -0.107000
     11 CAK         7.5660    1.0160   -0.2400 c3        1 P09     -0.225000
     12 CAL         8.2690    0.2110    2.0210 c2        1 P09     -0.359000
     13 CAM         3.2410    0.2450    0.2490 ca        1 P09     -0.185000
     14 CAN         6.1920    0.9650    0.2110 c1        1 P09     -0.080000
     15 CAO         6.9640    0.1860    2.4840 c1        1 P09     -0.102000
     16 CAP         2.4580    0.3870    2.5510 ca        1 P09     -0.151000
     17 OAR         4.7250    0.8430    2.1190 os        1 P09     -0.157000
     18 CAT        10.4360    0.8530   -0.9590 c2        1 P09      0.344000
     19 CAU         0.9020   -0.1570    0.7710 ca        1 P09     -0.114000
     20 CAV         1.1630    0.0810    2.1340 ca        1 P09     -0.057000
     21 CAW         8.6400    0.5390    0.7080 c2        1 P09      0.165000
     22 CAX         5.8770    0.2760    1.4690 c3        1 P09     -0.064000
     23 CAY         3.4980    0.4690    1.6070 ca        1 P09      0.079000
     24 CAZ        12.5140   -0.4950   -0.5410 c2        1 P09     -0.503000
     25 CBA        11.8770    0.5780   -1.2630 c2        1 P09     -0.027000
     26 HAA        -0.5090   -0.6370   -0.7860 hc        1 P09      0.073000
     27 HAAA       -1.1810    0.3230    0.5990 hc        1 P09      0.073000
     28 HAAB       -0.8180   -1.4370    0.8120 hc        1 P09      0.073000
     29 HAB        -0.3990   -1.0170    3.1090 hc        1 P09      0.077333
     30 HABA       -0.7280    0.7500    2.8870 hc        1 P09      0.077333
     31 HABB        0.4400    0.2000    4.1620 hc        1 P09      0.077333
     32 HAF        14.8330    0.2780   -1.2180 ha        1 P09      0.139000
     33 HAG        11.7880    2.0900   -2.7290 ha        1 P09      0.130000
     34 HAH        15.8130    0.7160   -2.7420 ha        1 P09      0.139000
     35 HAI        13.8320    1.6870   -3.8190 ha        1 P09      0.102000
     36 HAJ         1.7430   -0.2460   -1.2200 ha        1 P09      0.122000
     37 HAK         7.7850    2.0950   -0.5210 hc        1 P09      0.181000
     38 HAL         9.0590   -0.0270    2.7570 ha        1 P09      0.164000
     39 HAM         4.0520    0.3480   -0.4890 ha        1 P09      0.166000
     40 HAN         7.6250    0.4600   -1.2260 hc        1 P09      0.181000
     41 HAO         5.6550   -0.8050    1.1760 h1        1 P09      0.151000
     42 HAP         2.6830    0.5730    3.6110 ha        1 P09      0.148000
     43 HNAQ       10.6270    0.1300    0.9760 hn        1 P09      0.316000
     44 NAQ         9.9400    0.4590    0.2970 n         1 P09     -0.285000
     45 CAS        13.1750   -0.0550    0.8520 c2        1 P09      0.423000
@<TRIPOS>BOND
     1    1   19 1   
     2    1   26 1   
     3    1   27 1   
     4    1   28 1   
     5    2   20 1   
     6    2   29 1   
     7    2   30 1   
     8    2   31 1   
     9    3   45 1   
    10    4   18 1   
    11    5   45 1   
    12    6    7 1   
    13    6   32 1   
    14    6   34 1   
    15    7    9 1   
    16    7   35 1   
    17    8   24 1   
    18    9   25 1   
    19    9   33 1   
    20   10   13 1   
    21   10   19 1   
    22   10   36 1   
    23   11   14 1   
    24   11   21 1   
    25   11   37 1   
    26   11   40 1   
    27   12   15 1   
    28   12   21 1   
    29   12   38 1   
    30   13   23 1   
    31   13   39 1   
    32   14   22 1   
    33   15   22 1   
    34   16   20 1   
    35   16   23 1   
    36   16   42 1   
    37   17   22 1   
    38   17   23 1   
    39   18   25 1   
    40   18   44 1   
    41   19   20 1   
    42   21   44 1   
    43   22   41 1   
    44   24   25 1   
    45   24   45 1   
    46   43   44 1   
@<TRIPOS>SUBSTRUCTURE
     1 P09         1 TEMP              0 ****  ****    0 ROOT
