@<TRIPOS>MOLECULE
P0A
   23    21     1     0     0
SMALL
bcc


@<TRIPOS>ATOM
      1 C          -2.6960   -0.7840   -1.7260 c1        1 P0A      0.776000
      2 N          -0.7110   -1.9450   -2.3970 nh        1 P0A     -0.485100
      3 O          -3.3260   -1.7550   -1.2310 o         1 P0A     -0.827000
      4 CA         -1.1850   -0.7840   -1.7260 c2        1 P0A      0.141200
      5 CB         -0.6810   -0.7840   -0.3010 c3        1 P0A     -0.144700
      6 OAB         3.3000    0.9050    3.2320 o         1 P0A     -0.868800
      7 OAD         1.6120    2.1450    3.8390 o         1 P0A     -0.868800
      8 CAF         0.7950    0.3610    1.3160 c3        1 P0A     -0.064400
      9 CAG         0.2500    0.3910   -0.0950 c3        1 P0A     -0.077400
     10 CAH         1.7350    1.5300    1.5180 c3        1 P0A     -0.182400
     11 CAJ         2.2440    1.5260    2.9420 c         1 P0A      0.904600
     12 OXT        -3.3260    0.1880   -2.2210 o         1 P0A     -0.827000
     13 HN          0.0190   -1.7300   -2.8990 hn        1 P0A      0.172200
     14 HNA        -1.3670   -2.2720   -2.9390 hn        1 P0A      0.172200
     15 HA         -0.8600    0.0130   -2.1860 h4        1 P0A     -0.050200
     16 HB         -1.4380   -0.7100    0.3120 hc        1 P0A      0.040700
     17 HBA        -0.2000   -1.6150   -0.1260 hc        1 P0A      0.040700
     18 HAF         1.2790   -0.4740    1.4600 hc        1 P0A      0.036200
     19 HAFA        0.0570    0.4230    1.9510 hc        1 P0A      0.036200
     20 HAG        -0.2390    1.2230   -0.2380 hc        1 P0A      0.023200
     21 HAGA        0.9890    0.3350   -0.7310 hc        1 P0A      0.023200
     22 HAH         1.2580    2.3640    1.3450 hc        1 P0A      0.014700
     23 HAHA        2.4880    1.4520    0.9030 hc        1 P0A      0.014700
@<TRIPOS>BOND
     1    1    3 2   
     2    1   12 2   
     3    2    4 2   
     4    2   13 1   
     5    2   14 1   
     6    4    5 1   
     7    4   15 1   
     8    5    9 1   
     9    5   16 1   
    10    5   17 1   
    11    6   11 1   
    12    7   11 1   
    13    8    9 1   
    14    8   10 1   
    15    8   18 1   
    16    8   19 1   
    17    9   20 1   
    18    9   21 1   
    19   10   11 1   
    20   10   22 1   
    21   10   23 1   
@<TRIPOS>SUBSTRUCTURE
     1 P0A         1 TEMP              0 ****  ****    0 ROOT
