@<TRIPOS>MOLECULE
P0A
   23    22     1     0     0
SMALL
bcc


@<TRIPOS>ATOM
      1 C           3.5500    0.4040    0.1710 c         1 P0A      0.889600
      2 N           2.4890   -1.8530   -0.2670 n3        1 P0A     -0.898800
      3 O           4.4450    0.0820   -0.6670 o         1 P0A     -0.858800
      4 CA          2.3290   -0.5510    0.3700 c3        1 P0A      0.029500
      5 CB          1.0550    0.1940   -0.0400 c3        1 P0A     -0.069400
      6 OAB        -4.1460    0.3160   -1.3660 o         1 P0A     -0.868800
      7 OAD        -4.8970    0.4560    0.7230 o         1 P0A     -0.868800
      8 CAF        -1.4640    0.2170   -0.0400 c3        1 P0A     -0.064400
      9 CAG        -0.2100   -0.5360    0.3600 c3        1 P0A     -0.077400
     10 CAH        -2.7140   -0.5080    0.4040 c3        1 P0A     -0.182400
     11 CAJ        -4.0000    0.1440   -0.1190 c         1 P0A      0.904600
     12 OXT         3.6080    1.4470    0.8810 o         1 P0A     -0.858800
     13 HN          2.0200   -1.8460   -1.1550 hn        1 P0A      0.327300
     14 HNA         3.4700   -1.9830   -0.4620 hn        1 P0A      0.327300
     15 HA          2.2670   -0.7570    1.4790 h1        1 P0A      0.039700
     16 HB          1.0860    1.2010    0.4550 hc        1 P0A      0.040700
     17 HBA         1.0540    0.3680   -1.1480 hc        1 P0A      0.040700
     18 HAF        -1.4460    1.2430    0.4120 hc        1 P0A      0.036200
     19 HAFA       -1.4960    0.3480   -1.1530 hc        1 P0A      0.036200
     20 HAG        -0.2290   -1.5530   -0.1140 hc        1 P0A      0.023200
     21 HAGA       -0.2080   -0.6950    1.4710 hc        1 P0A      0.023200
     22 HAH        -2.6900   -1.5620    0.0240 hc        1 P0A      0.014700
     23 HAHA       -2.7530   -0.5490    1.5220 hc        1 P0A      0.014700
@<TRIPOS>BOND
     1    1    3 1   
     2    1    4 1   
     3    1   12 1   
     4    2    4 1   
     5    2   13 1   
     6    2   14 1   
     7    4    5 1   
     8    4   15 1   
     9    5    9 1   
    10    5   16 1   
    11    5   17 1   
    12    6   11 1   
    13    7   11 1   
    14    8    9 1   
    15    8   10 1   
    16    8   18 1   
    17    8   19 1   
    18    9   20 1   
    19    9   21 1   
    20   10   11 1   
    21   10   22 1   
    22   10   23 1   
@<TRIPOS>SUBSTRUCTURE
     1 P0A         1 TEMP              0 ****  ****    0 ROOT
