@<TRIPOS>MOLECULE
P0C
   35    37     1     0     0
SMALL
bcc


@<TRIPOS>ATOM
      1 C14        -0.0080   -0.0140   -0.1880 cc        1 P0C     -0.224000
      2 C16         0.9010   -0.3110    1.8870 cd        1 P0C     -0.032600
      3 C17         1.1220   -0.5420    3.3270 c3        1 P0C     -0.046800
      4 O01        -1.4010    1.0070   -7.0690 oh        1 P0C     -0.589800
      5 C02        -0.3840    0.7350   -6.1250 c3        1 P0C      0.136100
      6 C03        -0.4950   -0.7530   -5.7510 c3        1 P0C      0.099100
      7 C04         0.8350   -1.4890   -5.9090 c3        1 P0C      0.108400
      8 O05         0.6890   -2.8610   -5.6080 oh        1 P0C     -0.595800
      9 O06        -0.9250   -0.8480   -4.3830 os        1 P0C     -0.425600
     10 C07        -0.9280    0.4310   -3.7390 c3        1 P0C      0.274500
     11 C08        -0.5380    1.5090   -4.7970 c3        1 P0C      0.080100
     12 O09        -1.6040    2.4290   -4.9340 oh        1 P0C     -0.595800
     13 N10        -0.1020    0.3960   -2.5340 n         1 P0C     -0.380000
     14 C11         1.3500    0.4370   -2.5890 c         1 P0C      0.827900
     15 N12         2.1340    0.2960   -1.4290 nd        1 P0C     -0.389400
     16 C13         1.4720    0.0830   -0.2910 cc        1 P0C      0.153700
     17 C15        -0.3040   -0.2650    1.2090 cc        1 P0C     -0.168000
     18 N18         1.9850   -0.0950    0.9950 na        1 P0C     -0.245100
     19 C19        -0.7340    0.1210   -1.3400 cd        1 P0C      0.085600
     20 O20         1.8790    0.6280   -3.7040 o         1 P0C     -0.637500
     21 H1          0.1380   -0.6850    3.8370 hc        1 P0C      0.058700
     22 H2          1.6430    0.3310    3.7950 hc        1 P0C      0.058700
     23 H3          1.7460   -1.4560    3.4930 hc        1 P0C      0.058700
     24 H5          0.6160    0.9680   -6.5840 h1        1 P0C      0.070700
     25 H6         -1.3030   -1.2630   -6.3470 h1        1 P0C      0.103700
     26 H7          1.6190   -1.0230   -5.2520 h1        1 P0C      0.069200
     27 H8          1.1610   -1.4590   -6.9820 h1        1 P0C      0.069200
     28 H9          0.3680   -2.9170   -4.6990 ho        1 P0C      0.408000
     29 H10        -2.0030    0.6040   -3.4190 h2        1 P0C      0.086700
     30 H11         0.4190    2.0380   -4.5430 h1        1 P0C      0.099700
     31 H12        -1.4520    3.1350   -4.2950 ho        1 P0C      0.415000
     32 H14        -1.2970   -0.3910    1.6300 ha        1 P0C      0.162000
     33 H15         2.9400   -0.1180    1.2370 hn        1 P0C      0.315700
     34 H16        -1.8370    0.0290   -1.3500 h4        1 P0C      0.165000
     35 H4         -1.5980    1.9530   -7.0280 ho        1 P0C      0.424000
@<TRIPOS>BOND
     1    1   16 1   
     2    1   17 1   
     3    1   19 2   
     4    2    3 1   
     5    2   17 2   
     6    2   18 1   
     7    3   21 1   
     8    3   22 1   
     9    3   23 1   
    10    4    5 1   
    11    4   35 1   
    12    5    6 1   
    13    5   11 1   
    14    5   24 1   
    15    6    7 1   
    16    6    9 1   
    17    6   25 1   
    18    7    8 1   
    19    7   26 1   
    20    7   27 1   
    21    8   28 1   
    22    9   10 1   
    23   10   11 1   
    24   10   13 1   
    25   10   29 1   
    26   11   12 1   
    27   11   30 1   
    28   12   31 1   
    29   13   14 1   
    30   13   19 1   
    31   14   15 1   
    32   14   20 2   
    33   15   16 2   
    34   16   18 1   
    35   17   32 1   
    36   18   33 1   
    37   19   34 1   
@<TRIPOS>SUBSTRUCTURE
     1 P0C         1 TEMP              0 ****  ****    0 ROOT
