@<TRIPOS>MOLECULE
P0C
   35    37     1     0     0
SMALL
bcc


@<TRIPOS>ATOM
      1 C14        -0.0090    0.0260   -0.1890 cc        1 P0C     -0.224000
      2 C16         0.8990   -0.2650    1.8880 cd        1 P0C     -0.032600
      3 C17         1.1210   -0.4910    3.3290 c3        1 P0C     -0.046800
      4 O01        -1.3970    1.0270   -7.0730 oh        1 P0C     -0.589800
      5 C02        -0.3830    0.7580   -6.1270 c3        1 P0C      0.136100
      6 C03        -0.4920   -0.7290   -5.7490 c3        1 P0C      0.099100
      7 C04         0.8390   -1.4640   -5.9030 c3        1 P0C      0.108400
      8 O05         0.6940   -2.8350   -5.6000 oh        1 P0C     -0.595800
      9 O06        -0.9230   -0.8200   -4.3810 os        1 P0C     -0.425600
     10 C07        -0.9290    0.4610   -3.7410 c3        1 P0C      0.274500
     11 C08        -0.5400    1.5360   -4.8020 c3        1 P0C      0.080100
     12 O09        -1.6070    2.4540   -4.9420 oh        1 P0C     -0.595800
     13 N10        -0.1030    0.4300   -2.5350 n         1 P0C     -0.380000
     14 C11         1.3490    0.4730   -2.5890 c         1 P0C      0.827900
     15 N12         2.1320    0.3370   -1.4290 nd        1 P0C     -0.389400
     16 C13         1.4710    0.1250   -0.2910 cc        1 P0C      0.153700
     17 C15        -0.3050   -0.2220    1.2090 cc        1 P0C     -0.168000
     18 N18         1.9830   -0.0490    0.9960 na        1 P0C     -0.245100
     19 C19        -0.7340    0.1580   -1.3410 cd        1 P0C      0.085600
     20 O20         1.8780    0.6620   -3.7050 o         1 P0C     -0.637500
     21 H1          1.6400    0.3840    3.7950 hc        1 P0C      0.058700
     22 H2          0.1360   -0.6350    3.8380 hc        1 P0C      0.058700
     23 H3          1.7460   -1.4040    3.4980 hc        1 P0C      0.058700
     24 H5          0.6180    0.9910   -6.5840 h1        1 P0C      0.070700
     25 H6         -1.2990   -1.2420   -6.3440 h1        1 P0C      0.103700
     26 H7          1.1660   -1.4360   -6.9770 h1        1 P0C      0.069200
     27 H8          1.6220   -0.9960   -5.2470 h1        1 P0C      0.069200
     28 H9          0.3720   -2.8890   -4.6910 ho        1 P0C      0.408000
     29 H10        -2.0040    0.6330   -3.4220 h2        1 P0C      0.086700
     30 H11         0.4150    2.0680   -4.5470 h1        1 P0C      0.099700
     31 H12        -1.4580    3.1620   -4.3040 ho        1 P0C      0.415000
     32 H14        -1.2980   -0.3490    1.6300 ha        1 P0C      0.162000
     33 H15         2.9380   -0.0700    1.2390 hn        1 P0C      0.315700
     34 H16        -1.8370    0.0630   -1.3510 h4        1 P0C      0.165000
     35 H4         -1.5960    1.9720   -7.0350 ho        1 P0C      0.424000
@<TRIPOS>BOND
     1    1   16 1   
     2    1   17 1   
     3    1   19 2   
     4    2    3 1   
     5    2   17 2   
     6    2   18 1   
     7    3   21 1   
     8    3   22 1   
     9    3   23 1   
    10    4    5 1   
    11    4   35 1   
    12    5    6 1   
    13    5   11 1   
    14    5   24 1   
    15    6    7 1   
    16    6    9 1   
    17    6   25 1   
    18    7    8 1   
    19    7   26 1   
    20    7   27 1   
    21    8   28 1   
    22    9   10 1   
    23   10   11 1   
    24   10   13 1   
    25   10   29 1   
    26   11   12 1   
    27   11   30 1   
    28   12   31 1   
    29   13   14 1   
    30   13   19 1   
    31   14   15 1   
    32   14   20 2   
    33   15   16 2   
    34   16   18 1   
    35   17   32 1   
    36   18   33 1   
    37   19   34 1   
@<TRIPOS>SUBSTRUCTURE
     1 P0C         1 TEMP              0 ****  ****    0 ROOT
