@<TRIPOS>MOLECULE
P0C
   35    37     1     0     0
SMALL
bcc


@<TRIPOS>ATOM
      1 C14        -0.0250   -0.0510   -0.1820 cc        1 P0C     -0.225000
      2 C16         0.9080   -0.3900    1.8760 cd        1 P0C     -0.034600
      3 C17         1.1460   -0.6530    3.3080 c3        1 P0C     -0.046800
      4 O01        -0.8480    1.3490   -7.1230 oh        1 P0C     -0.589800
      5 C02        -0.1470    0.8650   -5.9990 c3        1 P0C      0.097100
      6 C03        -0.4310   -0.6190   -5.7180 c3        1 P0C      0.070100
      7 C04         0.8310   -1.4780   -5.7730 c3        1 P0C      0.113400
      8 O05         0.5240   -2.8390   -5.5560 oh        1 P0C     -0.596800
      9 O06        -1.0190   -0.7290   -4.4120 os        1 P0C     -0.429600
     10 C07        -0.9850    0.5180   -3.7060 c3        1 P0C      0.300500
     11 C08        -0.5650    1.6220   -4.7180 c3        1 P0C      0.089100
     12 O09        -1.7300    2.3990   -4.9440 oh        1 P0C     -0.607800
     13 N10        -0.1460    0.4150   -2.5140 n         1 P0C     -0.377000
     14 C11         1.3040    0.4910   -2.5800 c         1 P0C      0.828900
     15 N12         2.1010    0.3280   -1.4330 nd        1 P0C     -0.389400
     16 C13         1.4520    0.0700   -0.2960 cc        1 P0C      0.154700
     17 C15        -0.3040   -0.3420    1.2100 cc        1 P0C     -0.166000
     18 N18         1.9800   -0.1400    0.9790 na        1 P0C     -0.245100
     19 C19        -0.7640    0.1130   -1.3220 cd        1 P0C      0.090600
     20 O20         1.8160    0.7240   -3.6960 o         1 P0C     -0.641500
     21 H1          0.1680   -0.8210    3.8230 hc        1 P0C      0.058033
     22 H2          1.6610    0.2140    3.7930 hc        1 P0C      0.058033
     23 H3          1.7820   -1.5640    3.4450 hc        1 P0C      0.058033
     24 H5          0.9390    1.0400   -6.2300 h1        1 P0C      0.119700
     25 H6         -1.2070   -1.0330   -6.4210 h1        1 P0C      0.083700
     26 H7          1.5810   -1.1150   -5.0190 h1        1 P0C      0.070200
     27 H8          1.2720   -1.4380   -6.8050 h1        1 P0C      0.070200
     28 H9          0.1110   -2.8980   -4.6850 ho        1 P0C      0.408000
     29 H10        -2.0540    0.6960   -3.3700 h2        1 P0C      0.099700
     30 H11         0.2660    2.2730   -4.3410 h1        1 P0C      0.096700
     31 H12        -1.4960    3.0550   -5.6140 ho        1 P0C      0.426000
     32 H14        -1.2910   -0.4920    1.6370 ha        1 P0C      0.162000
     33 H15         2.9370   -0.1340    1.2160 hn        1 P0C      0.315700
     34 H16        -1.8670    0.0180   -1.3230 h4        1 P0C      0.165000
     35 H4         -1.7900    1.1850   -6.9740 ho        1 P0C      0.412000
@<TRIPOS>BOND
     1    1   16 1   
     2    1   17 1   
     3    1   19 2   
     4    2    3 1   
     5    2   17 2   
     6    2   18 1   
     7    3   21 1   
     8    3   22 1   
     9    3   23 1   
    10    4    5 1   
    11    4   35 1   
    12    5    6 1   
    13    5   11 1   
    14    5   24 1   
    15    6    7 1   
    16    6    9 1   
    17    6   25 1   
    18    7    8 1   
    19    7   26 1   
    20    7   27 1   
    21    8   28 1   
    22    9   10 1   
    23   10   11 1   
    24   10   13 1   
    25   10   29 1   
    26   11   12 1   
    27   11   30 1   
    28   12   31 1   
    29   13   14 1   
    30   13   19 1   
    31   14   15 1   
    32   14   20 2   
    33   15   16 2   
    34   16   18 1   
    35   17   32 1   
    36   18   33 1   
    37   19   34 1   
@<TRIPOS>SUBSTRUCTURE
     1 P0C         1 TEMP              0 ****  ****    0 ROOT
