@<TRIPOS>MOLECULE
P0D
   39    39     1     0     0
SMALL
bcc


@<TRIPOS>ATOM
      1 O2          4.0250    1.5630    0.2420 o         1 P0D     -0.840300
      2 C           3.3920    0.4770    0.2460 c         1 P0D      0.913600
      3 O1          3.3840   -0.2750   -0.7990 o         1 P0D     -0.840300
      4 C2'         2.5830    0.0210    1.4740 c3        1 P0D     -0.148700
      5 C1'         3.3140   -1.0580    2.2450 c3        1 P0D     -0.404600
      6 P1          2.4760   -2.4950    2.3230 p5        1 P0D      1.527100
      7 O1P         1.0280   -2.3150    2.0400 o         1 P0D     -0.939300
      8 C2          4.4940   -3.5830    0.9280 c3        1 P0D     -0.151100
      9 C1          3.0040   -3.4080    0.9240 c3        1 P0D     -0.136700
     10 N1          2.4320   -2.7770   -0.2710 nz        1 P0D     -0.861600
     11 O2P         2.9440   -3.3080    3.5090 os        1 P0D     -0.757800
     12 P2          3.8990   -4.7100    4.3920 p5        1 P0D      1.389900
     13 O4P         3.6080   -4.5190    5.8350 o         1 P0D     -0.901167
     14 O3P         5.2390   -4.2910    3.8690 o         1 P0D     -0.901167
     15 O5P         3.2550   -5.8350    3.6540 o         1 P0D     -0.901167
     16 C3'         2.2590    1.2140    2.3710 c3        1 P0D     -0.024100
     17 C31         1.1400    2.0470    1.8470 ca        1 P0D     -0.047300
     18 C33         1.3920    3.0500    0.8990 ca        1 P0D     -0.122500
     19 C35         0.3540    3.8600    0.4420 ca        1 P0D     -0.150000
     20 C36        -0.9440    3.6750    0.9180 ca        1 P0D     -0.162000
     21 C34        -1.2030    2.6680    1.8460 ca        1 P0D     -0.150000
     22 C32        -0.1680    1.8560    2.3080 ca        1 P0D     -0.122500
     23 H2          1.6060   -0.4020    1.0970 hc        1 P0D      0.070700
     24 H3          4.3390   -1.1900    1.8080 hc        1 P0D      0.103200
     25 H4          3.5240   -0.7090    3.2930 hc        1 P0D      0.103200
     26 H8          2.5500   -4.4370    1.0530 hx        1 P0D      0.129700
     27 H9          1.4360   -2.6060   -0.0670 hn        1 P0D      0.448133
     28 H10         2.9100   -1.8270   -0.4320 hn        1 P0D      0.448133
     29 H14         1.9860    0.8520    3.3980 hc        1 P0D      0.052700
     30 H15         3.1850    1.8460    2.4600 hc        1 P0D      0.052700
     31 H16         2.4200    3.1580    0.5070 ha        1 P0D      0.162000
     32 H17         0.5590    4.6410   -0.3030 ha        1 P0D      0.108000
     33 H18        -1.7600    4.3150    0.5560 ha        1 P0D      0.100000
     34 H19        -2.2270    2.5070    2.2120 ha        1 P0D      0.108000
     35 H20        -0.3770    1.0470    3.0250 ha        1 P0D      0.162000
     36 H5          4.8010   -4.4570    0.3040 hc        1 P0D      0.079367
     37 H6          5.0520   -2.6920    0.5470 hc        1 P0D      0.079367
     38 H13         2.5350   -3.3550   -1.0940 hn        1 P0D      0.448133
     39 H7          4.8050   -3.8060    2.0110 hc        1 P0D      0.079367
@<TRIPOS>BOND
     1    1    2 1   
     2    2    3 1   
     3    2    4 1   
     4    4    5 1   
     5    4   16 1   
     6    4   23 1   
     7    5    6 1   
     8    5   24 1   
     9    5   25 1   
    10    6    7 2   
    11    6    9 1   
    12    6   11 1   
    13    8    9 1   
    14    8   36 1   
    15    8   37 1   
    16    8   39 1   
    17    9   10 1   
    18    9   26 1   
    19   10   27 1   
    20   10   28 1   
    21   10   38 1   
    22   11   12 1   
    23   12   13 1   
    24   12   14 1   
    25   12   15 1   
    26   16   17 1   
    27   16   29 1   
    28   16   30 1   
    29   17   18 ar  
    30   17   22 ar  
    31   18   19 ar  
    32   18   31 1   
    33   19   20 ar  
    34   19   32 1   
    35   20   21 ar  
    36   20   33 1   
    37   21   22 ar  
    38   21   34 1   
    39   22   35 1   
@<TRIPOS>SUBSTRUCTURE
     1 P0D         1 TEMP              0 ****  ****    0 ROOT
