@<TRIPOS>MOLECULE
P0D
   39    39     1     0     0
SMALL
bcc


@<TRIPOS>ATOM
      1 O2          3.9400    1.5320    0.0930 o         1 P0D     -0.840300
      2 C           3.3330    0.4330    0.1660 c         1 P0D      0.913600
      3 O1          3.3170   -0.3680   -0.8410 o         1 P0D     -0.840300
      4 C2'         2.5630    0.0210    1.4350 c3        1 P0D     -0.148700
      5 C1'         3.3380   -1.0020    2.2390 c3        1 P0D     -0.404600
      6 P1          2.5360   -2.4530    2.4070 p5        1 P0D      1.527100
      7 O1P         1.0780   -2.3190    2.1510 o         1 P0D     -0.939300
      8 C2          4.5460   -3.5620    1.0160 c3        1 P0D     -0.151100
      9 C1          3.0520   -3.4210    1.0400 c3        1 P0D     -0.136700
     10 N1          2.4380   -2.8620   -0.1690 n4        1 P0D     -0.861600
     11 O2P         3.0510   -3.1960    3.6180 os        1 P0D     -0.757800
     12 P2          4.0600   -4.5320    4.5440 p5        1 P0D      1.389900
     13 O4P         3.7980   -4.2760    5.9840 o         1 P0D     -0.901167
     14 O3P         5.3770   -4.1090    3.9690 o         1 P0D     -0.901167
     15 O5P         3.4250   -5.7050    3.8780 o         1 P0D     -0.901167
     16 C3'         2.2330    1.2480    2.2800 c3        1 P0D     -0.024100
     17 C31         1.0830    2.0300    1.7440 ca        1 P0D     -0.047300
     18 C33         1.2880    2.9910    0.7430 ca        1 P0D     -0.122500
     19 C35         0.2210    3.7530    0.2730 ca        1 P0D     -0.150000
     20 C36        -1.0610    3.5630    0.7890 ca        1 P0D     -0.162000
     21 C34        -1.2740    2.5970    1.7710 ca        1 P0D     -0.150000
     22 C32        -0.2090    1.8320    2.2460 ca        1 P0D     -0.122500
     23 H2          1.5880   -0.4430    1.1020 hc        1 P0D      0.070700
     24 H3          3.5640   -0.5980    3.2620 hc        1 P0D      0.103200
     25 H4          4.3550   -1.1330    1.7830 hc        1 P0D      0.103200
     26 H5          5.0730   -2.6790    0.5790 hc        1 P0D      0.079367
     27 H6          4.8590   -4.4590    0.4280 hc        1 P0D      0.079367
     28 H7          4.8880   -3.7250    2.1000 hc        1 P0D      0.079367
     29 H8          2.6260   -4.4530    1.2310 hx        1 P0D      0.129700
     30 H9          2.8890   -1.9110   -0.3880 hn        1 P0D      0.448133
     31 H10         2.5340   -3.4780   -0.9650 hn        1 P0D      0.448133
     32 H14         1.9930    0.9310    3.3300 hc        1 P0D      0.052700
     33 H15         3.1460    1.9050    2.3150 hc        1 P0D      0.052700
     34 H16         2.3040    3.1030    0.3210 ha        1 P0D      0.162000
     35 H17         0.3910    4.5010   -0.5140 ha        1 P0D      0.108000
     36 H18        -1.9000    4.1660    0.4180 ha        1 P0D      0.100000
     37 H19        -2.2840    2.4320    2.1700 ha        1 P0D      0.108000
     38 H20        -0.3820    1.0540    3.0060 ha        1 P0D      0.162000
     39 H13         1.4430   -2.7040    0.0510 hn        1 P0D      0.448133
@<TRIPOS>BOND
     1    1    2 1   
     2    2    3 1   
     3    2    4 1   
     4    4    5 1   
     5    4   16 1   
     6    4   23 1   
     7    5    6 1   
     8    5   24 1   
     9    5   25 1   
    10    6    7 2   
    11    6    9 1   
    12    6   11 1   
    13    8    9 1   
    14    8   26 1   
    15    8   27 1   
    16    8   28 1   
    17    9   10 1   
    18    9   29 1   
    19   10   30 1   
    20   10   31 1   
    21   10   39 1   
    22   11   12 1   
    23   12   13 1   
    24   12   14 1   
    25   12   15 1   
    26   16   17 1   
    27   16   32 1   
    28   16   33 1   
    29   17   18 ar  
    30   17   22 ar  
    31   18   19 ar  
    32   18   34 1   
    33   19   20 ar  
    34   19   35 1   
    35   20   21 ar  
    36   20   36 1   
    37   21   22 ar  
    38   21   37 1   
    39   22   38 1   
@<TRIPOS>SUBSTRUCTURE
     1 P0D         1 TEMP              0 ****  ****    0 ROOT
