@<TRIPOS>MOLECULE
P0D
   38    38     1     0     0
SMALL
bcc


@<TRIPOS>ATOM
      1 O2          3.1590   -3.1500    0.1850 o         1 P0D     -0.882300
      2 C           1.8910   -3.0360    0.2180 c         1 P0D      0.909600
      3 O1          1.1480   -4.0620    0.1510 o         1 P0D     -0.882300
      4 C2'         1.2680   -1.6210    0.3130 c3        1 P0D     -0.132700
      5 C1'        -0.2000   -1.6590    0.6800 c3        1 P0D     -0.409600
      6 P1         -1.1400   -0.6260   -0.2280 p5        1 P0D      1.568100
      7 O1P        -0.7600   -0.5470   -1.6540 o         1 P0D     -0.941300
      8 C2         -3.0700   -1.4830    1.3180 c3        1 P0D     -0.134100
      9 C1         -2.6880   -1.3710   -0.1390 c3        1 P0D     -0.125700
     10 N1         -2.8010   -2.5790   -0.9320 n3        1 P0D     -0.893800
     11 O2P        -1.3040    0.7060    0.5300 os        1 P0D     -0.803800
     12 P2         -1.5900    2.0310    1.7350 p5        1 P0D      1.438900
     13 O4P        -2.3080    1.2260    2.7810 o         1 P0D     -0.934167
     14 O3P        -0.1790    2.4270    2.0540 o         1 P0D     -0.934167
     15 O5P        -2.4260    3.0340    1.0080 o         1 P0D     -0.934167
     16 C3'         2.0760   -0.7690    1.2980 c3        1 P0D     -0.032100
     17 C31         2.9520    0.2400    0.6360 ca        1 P0D     -0.049300
     18 C33         4.0960   -0.1790   -0.0560 ca        1 P0D     -0.123500
     19 C35         4.9600    0.7590   -0.6170 ca        1 P0D     -0.169000
     20 C36         4.6840    2.1220   -0.5000 ca        1 P0D     -0.185000
     21 C34         3.5330    2.5390    0.1670 ca        1 P0D     -0.169000
     22 C32         2.6600    1.6090    0.7350 ca        1 P0D     -0.123500
     23 H2          1.3530   -1.1830   -0.7230 hc        1 P0D      0.073700
     24 H3         -0.5310   -2.7290    0.5700 hc        1 P0D      0.092200
     25 H4         -0.3230   -1.4330    1.7720 hc        1 P0D      0.092200
     26 H5         -2.8000   -0.5040    1.8370 hc        1 P0D      0.050700
     27 H6         -4.1650   -1.6610    1.4440 hc        1 P0D      0.050700
     28 H7         -2.5340   -2.3240    1.8240 hc        1 P0D      0.050700
     29 H8         -3.4200   -0.6450   -0.6070 h1        1 P0D      0.077700
     30 H9         -1.9680   -2.6680   -1.4920 hn        1 P0D      0.329300
     31 H10        -2.8590   -3.3880   -0.3380 hn        1 P0D      0.329300
     32 H14         1.3930   -0.2310    2.0120 hc        1 P0D      0.054700
     33 H15         2.7300   -1.4520    1.9070 hc        1 P0D      0.054700
     34 H16         4.2700   -1.2680   -0.1560 ha        1 P0D      0.215000
     35 H17         5.8550    0.4250   -1.1590 ha        1 P0D      0.093500
     36 H18         5.3640    2.8610   -0.9430 ha        1 P0D      0.073000
     37 H19         3.2960    3.6100    0.2400 ha        1 P0D      0.093500
     38 H20         1.7220    1.9470    1.2460 ha        1 P0D      0.215000
@<TRIPOS>BOND
     1    1    2 1   
     2    2    3 1   
     3    2    4 1   
     4    4    5 1   
     5    4   16 1   
     6    4   23 1   
     7    5    6 1   
     8    5   24 1   
     9    5   25 1   
    10    6    7 2   
    11    6    9 1   
    12    6   11 1   
    13    8    9 1   
    14    8   26 1   
    15    8   27 1   
    16    8   28 1   
    17    9   10 1   
    18    9   29 1   
    19   10   30 1   
    20   10   31 1   
    21   11   12 1   
    22   12   13 1   
    23   12   14 1   
    24   12   15 1   
    25   16   17 1   
    26   16   32 1   
    27   16   33 1   
    28   17   18 ar  
    29   17   22 ar  
    30   18   19 ar  
    31   18   34 1   
    32   19   20 ar  
    33   19   35 1   
    34   20   21 ar  
    35   20   36 1   
    36   21   22 ar  
    37   21   37 1   
    38   22   38 1   
@<TRIPOS>SUBSTRUCTURE
     1 P0D         1 TEMP              0 ****  ****    0 ROOT
