@<TRIPOS>MOLECULE
P0D
   39    39     1     0     0
SMALL
bcc


@<TRIPOS>ATOM
      1 O2          3.9540    1.5410    0.1220 o         1 P0D     -0.840300
      2 C           3.3300    0.4500    0.1770 c         1 P0D      0.913600
      3 O1          3.2860   -0.3260   -0.8480 o         1 P0D     -0.840300
      4 C2'         2.5720    0.0190    1.4470 c3        1 P0D     -0.148700
      5 C1'         3.3420   -1.0350    2.2150 c3        1 P0D     -0.404600
      6 P1          2.5190   -2.4760    2.3600 p5        1 P0D      1.527100
      7 O1P         1.0590   -2.3130    2.1290 o         1 P0D     -0.939300
      8 C2          4.4900   -3.5820    0.9130 c3        1 P0D     -0.151100
      9 C1          2.9990   -3.4180    0.9630 c3        1 P0D     -0.136700
     10 N1          2.3760   -2.8210   -0.2230 n4        1 P0D     -0.861600
     11 O2P         3.0400   -3.2570    3.5450 os        1 P0D     -0.757800
     12 P2          4.0400   -4.6300    4.4230 p5        1 P0D      1.389900
     13 O4P         3.8040   -4.4050    5.8720 o         1 P0D     -0.901167
     14 O3P         5.3550   -4.2150    3.8380 o         1 P0D     -0.901167
     15 O5P         3.3760   -5.7770    3.7390 o         1 P0D     -0.901167
     16 C3'         2.2740    1.2320    2.3260 c3        1 P0D     -0.024100
     17 C31         1.1290    2.0440    1.8260 ca        1 P0D     -0.047300
     18 C33         1.3360    3.0250    0.8450 ca        1 P0D     -0.122500
     19 C35         0.2750    3.8160    0.4090 ca        1 P0D     -0.150000
     20 C36        -1.0020    3.6340    0.9400 ca        1 P0D     -0.162000
     21 C34        -1.2170    2.6480    1.9020 ca        1 P0D     -0.150000
     22 C32        -0.1580    1.8550    2.3420 ca        1 P0D     -0.122500
     23 H2          1.5850   -0.4200    1.1180 hc        1 P0D      0.070700
     24 H3          3.5890   -0.6590    3.2440 hc        1 P0D      0.103200
     25 H4          4.3500   -1.1710    1.7410 hc        1 P0D      0.103200
     26 H8          2.5590   -4.4480    1.1350 hx        1 P0D      0.129700
     27 H9          2.8400   -1.8730   -0.4260 hn        1 P0D      0.448133
     28 H10         2.4510   -3.4190   -1.0350 hn        1 P0D      0.448133
     29 H14         2.0440    0.8920    3.3720 hc        1 P0D      0.052700
     30 H15         3.1980    1.8720    2.3640 hc        1 P0D      0.052700
     31 H16         2.3470    3.1310    0.4100 ha        1 P0D      0.162000
     32 H17         0.4450    4.5800   -0.3620 ha        1 P0D      0.108000
     33 H18        -1.8370    4.2590    0.5950 ha        1 P0D      0.100000
     34 H19        -2.2250    2.4900    2.3110 ha        1 P0D      0.108000
     35 H20        -0.3330    1.0620    3.0860 ha        1 P0D      0.162000
     36 H5          5.0250   -2.6970    0.4890 hc        1 P0D      0.079367
     37 H6          4.7800   -4.4690    0.2980 hc        1 P0D      0.079367
     38 H13         1.3870   -2.6530    0.0150 hn        1 P0D      0.448133
     39 H7          4.8450   -3.7780    1.9870 hc        1 P0D      0.079367
@<TRIPOS>BOND
     1    1    2 1   
     2    2    3 1   
     3    2    4 1   
     4    4    5 1   
     5    4   16 1   
     6    4   23 1   
     7    5    6 1   
     8    5   24 1   
     9    5   25 1   
    10    6    7 2   
    11    6    9 1   
    12    6   11 1   
    13    8    9 1   
    14    8   36 1   
    15    8   37 1   
    16    8   39 1   
    17    9   10 1   
    18    9   26 1   
    19   10   27 1   
    20   10   28 1   
    21   10   38 1   
    22   11   12 1   
    23   12   13 1   
    24   12   14 1   
    25   12   15 1   
    26   16   17 1   
    27   16   29 1   
    28   16   30 1   
    29   17   18 ar  
    30   17   22 ar  
    31   18   19 ar  
    32   18   31 1   
    33   19   20 ar  
    34   19   32 1   
    35   20   21 ar  
    36   20   33 1   
    37   21   22 ar  
    38   21   34 1   
    39   22   35 1   
@<TRIPOS>SUBSTRUCTURE
     1 P0D         1 TEMP              0 ****  ****    0 ROOT
