@<TRIPOS>MOLECULE
P0D
   38    35     1     0     0
SMALL
bcc


@<TRIPOS>ATOM
      1 O2         -1.6620   -0.3930   -1.6430 o         1 P0D     -0.623000
      2 C          -0.4490   -0.4590   -1.3150 c2        1 P0D      0.322000
      3 O1          0.4480   -0.3410   -2.1910 o         1 P0D     -0.623000
      4 C2'        -0.0680   -0.6630    0.1350 c3        1 P0D     -0.098000
      5 C1'        -0.5550    0.5120    0.9540 c3        1 P0D     -0.823000
      6 P1         -0.0800    2.0600    0.1330 p3        1 P0D      2.883000
      7 O1P         1.1830    1.8570   -0.6110 o         1 P0D     -1.235000
      8 C2         -1.0960    4.2020    1.4690 c3        1 P0D     -0.132000
      9 C1          0.1540    3.3590    1.3790 c2        1 P0D     -0.690000
     10 N1          1.2540    4.1800    1.0070 n3        1 P0D     -0.336000
     11 O2P        -1.2210    2.4950   -0.8720 os        1 P0D     -1.222000
     12 P2         -0.9410    3.0740   -2.3170 p5        1 P0D      1.626500
     13 O4P         0.5280    3.3960   -2.4550 o         1 P0D     -0.902833
     14 O3P        -1.3320    2.0490   -3.3550 o         1 P0D     -0.902833
     15 O5P        -1.7530    4.3310   -2.5210 o         1 P0D     -0.902833
     16 C3'        -0.7050   -1.9360    0.6500 c3        1 P0D     -0.150000
     17 C31         0.1140   -3.1270    0.2020 c2        1 P0D      0.024000
     18 C33         0.7750   -3.9040    1.1410 c2        1 P0D     -0.158000
     19 C35         1.4590   -5.0410    0.7410 c1        1 P0D     -0.162000
     20 C36         1.4810   -5.4030   -0.5970 c1        1 P0D     -0.172000
     21 C34         0.8200   -4.6260   -1.5350 c1        1 P0D     -0.172000
     22 C32         0.1360   -3.4880   -1.1360 c1        1 P0D     -0.116000
     23 H2          0.9030   -0.7320    0.2090 hc        1 P0D      0.101000
     24 H3         -1.5280    0.4710    1.0360 hc        1 P0D      0.108500
     25 H4         -0.1510    0.4780    1.8440 hc        1 P0D      0.108500
     26 H5         -1.1090    4.8480    0.7320 hc        1 P0D      0.033333
     27 H6         -1.1060    4.6820    2.3240 hc        1 P0D      0.033333
     28 H7         -1.8850    3.6240    1.4110 hc        1 P0D      0.033333
     29 H8          0.3340    2.9480    2.2480 h4        1 P0D      0.070000
     30 H9          1.2050    4.9770    1.4560 hn        1 P0D      0.127500
     31 H10         2.0370    3.7560    1.2220 hn        1 P0D      0.127500
     32 H14        -1.6130   -2.0130    0.2940 hc        1 P0D      0.115500
     33 H15        -0.7390   -1.9120    1.6270 hc        1 P0D      0.115500
     34 H16         0.7600   -3.6500    2.0830 ha        1 P0D      0.118000
     35 H17         1.9250   -5.5880    1.4020 ha        1 P0D      0.081000
     36 H18         1.9630   -6.2040   -0.8780 ha        1 P0D      0.087000
     37 H19         0.8360   -4.8800   -2.4770 ha        1 P0D      0.087000
     38 H20        -0.3240   -2.9380   -1.7980 ha        1 P0D      0.215000
@<TRIPOS>BOND
     1    1    2 1   
     2    2    3 1   
     3    2    4 1   
     4    4    5 1   
     5    4   16 1   
     6    4   23 1   
     7    5    6 1   
     8    5   24 1   
     9    5   25 1   
    10    6    7 1   
    11    6   11 1   
    12    8    9 1   
    13    8   26 1   
    14    8   27 1   
    15    8   28 1   
    16    9   10 1   
    17    9   29 1   
    18   10   30 1   
    19   10   31 1   
    20   11   12 1   
    21   12   13 1   
    22   12   14 1   
    23   12   15 1   
    24   16   17 1   
    25   16   32 1   
    26   16   33 1   
    27   17   18 1   
    28   17   22 1   
    29   18   19 1   
    30   18   34 1   
    31   19   35 1   
    32   20   21 1   
    33   20   36 1   
    34   21   37 1   
    35   22   38 1   
@<TRIPOS>SUBSTRUCTURE
     1 P0D         1 TEMP              0 ****  ****    0 ROOT
