@<TRIPOS>MOLECULE
P0E
  121   120     1     0     0
SMALL
bcc


@<TRIPOS>ATOM
      1 O1         16.3660    3.5240   -8.3860 os        1 P0E     -0.415900
      2 C2         15.4090    3.0160   -9.3380 c3        1 P0E      0.098100
      3 C3         15.9180    1.6620   -9.8320 c3        1 P0E      0.126400
      4 C4         14.0600    2.8940   -8.6030 c3        1 P0E      0.185400
      5 O5         16.3490    1.7880  -11.1970 os        1 P0E     -0.448900
      6 O6         13.9430    1.6610   -7.9780 os        1 P0E     -0.580200
      7 O7         13.1510    3.0000   -5.9610 o         1 P0E     -0.824500
      8 P8         13.3440    1.6150   -6.4360 p5        1 P0E      1.438800
      9 O9         14.0550    0.5310   -5.7390 o         1 P0E     -0.824500
     10 O10        11.8470    1.0530   -6.8470 os        1 P0E     -0.582200
     11 C11        17.0990    4.6230   -8.7080 c         1 P0E      0.643100
     12 O12        16.9490    5.1590   -9.8130 o         1 P0E     -0.583000
     13 C13        17.6810    1.8780  -11.4690 c         1 P0E      0.637100
     14 O14        18.5050    1.7410  -10.5620 o         1 P0E     -0.552000
     15 C15        18.0600    5.0530   -7.6390 c3        1 P0E     -0.123400
     16 C16        17.5720    4.7940   -6.2300 c3        1 P0E     -0.075400
     17 C17        16.2780    5.5190   -5.9310 c3        1 P0E     -0.082400
     18 C18        15.8300    5.2920   -4.5030 c3        1 P0E     -0.066400
     19 C19        14.3610    5.6200   -4.3480 c3        1 P0E     -0.102400
     20 C20        13.8890    5.3840   -2.9300 c3        1 P0E     -0.066400
     21 C21        12.4110    5.6760   -2.7660 c3        1 P0E     -0.044200
     22 C22        11.5450    4.6920   -3.4590 c2        1 P0E     -0.156200
     23 C23        10.2450    4.5310   -3.1870 c2        1 P0E     -0.215200
     24 C24        17.9430    2.1460  -12.9210 c3        1 P0E     -0.131400
     25 C25        19.2170    1.4720  -13.3800 c3        1 P0E     -0.078400
     26 C26        19.5540    1.8660  -14.8020 c3        1 P0E     -0.078400
     27 C27        20.8180    1.1800  -15.2740 c3        1 P0E     -0.079400
     28 C28        21.1610    1.5770  -16.6940 c3        1 P0E     -0.079400
     29 C29        22.4240    0.8890  -17.1660 c3        1 P0E     -0.077400
     30 C30        22.7650    1.2890  -18.5870 c3        1 P0E     -0.050200
     31 C31        23.9980    0.6290  -19.0770 c2        1 P0E     -0.168200
     32 C32        24.5060    0.8180  -20.2990 c2        1 P0E     -0.180200
     33 C33        23.8970    1.7100  -21.3140 c3        1 P0E     -0.048200
     34 C34         9.5090    5.2990   -2.1550 c3        1 P0E     -0.040200
     35 C35        24.6860    1.7340  -22.6070 c3        1 P0E     -0.076400
     36 C36        24.0420    2.6520  -23.6230 c3        1 P0E     -0.079400
     37 C37        24.8280    2.6780  -24.9160 c3        1 P0E     -0.078400
     38 C38        24.1840    3.5960  -25.9330 c3        1 P0E     -0.079400
     39 C39        24.9710    3.6220  -27.2260 c3        1 P0E     -0.079400
     40 C40        24.3280    4.5400  -28.2430 c3        1 P0E     -0.080400
     41 C41        25.1070    4.5700  -29.5330 c3        1 P0E     -0.092100
     42 C42         8.0230    5.0040   -2.1370 c3        1 P0E     -0.072400
     43 C43         7.7210    3.6350   -1.5640 c3        1 P0E     -0.081400
     44 C44         6.2360    3.3460   -1.5810 c3        1 P0E     -0.077400
     45 C45         5.9340    1.9780   -1.0070 c3        1 P0E     -0.081400
     46 C46         4.4560    1.6850   -1.0200 c3        1 P0E     -0.090100
     47 C47        11.7240   -0.3190   -7.0710 c3        1 P0E      0.144400
     48 C48        10.6240   -0.8740   -6.1640 c3        1 P0E      0.115400
     49 O49         9.4080   -0.1650   -6.3150 oh        1 P0E     -0.631800
     50 H2         15.2970    3.7320  -10.1980 h1        1 P0E      0.080700
     51 H31A       15.0720    0.9250   -9.8830 h1        1 P0E      0.098200
     52 H32A       16.7370    1.2730   -9.1750 h1        1 P0E      0.098200
     53 H41        13.2600    2.9840   -9.3950 h1        1 P0E      0.048200
     54 H42        13.9570    3.7310   -7.8550 h1        1 P0E      0.048200
     55 H151       19.0160    4.4910   -7.8160 hc        1 P0E      0.067200
     56 H152       18.2610    6.1470   -7.7880 hc        1 P0E      0.067200
     57 H161       17.4140    3.6910   -6.0900 hc        1 P0E      0.052700
     58 H162       18.3680    5.1210   -5.5110 hc        1 P0E      0.052700
     59 H171       15.4830    5.1390   -6.6320 hc        1 P0E      0.045700
     60 H172       16.3990    6.6180   -6.1210 hc        1 P0E      0.045700
     61 H181       16.4470    5.9170   -3.8050 hc        1 P0E      0.031700
     62 H182       15.9950    4.2170   -4.2240 hc        1 P0E      0.031700
     63 H191       13.7680    4.9630   -5.0510 hc        1 P0E      0.069700
     64 H192       14.1790    6.6880   -4.6360 hc        1 P0E      0.069700
     65 H201       14.4690    6.0370   -2.2240 hc        1 P0E      0.031200
     66 H202       14.0910    4.3180   -2.6460 hc        1 P0E      0.031200
     67 H211       12.1620    5.6960   -1.6690 hc        1 P0E      0.029700
     68 H212       12.1850    6.7020   -3.1680 hc        1 P0E      0.029700
     69 H22        12.0350    4.0850   -4.2520 ha        1 P0E      0.199000
     70 H23         9.6550    3.7880   -3.7480 ha        1 P0E      0.125000
     71 H241       18.0220    3.2600  -13.0420 hc        1 P0E      0.076200
     72 H242       17.0690    1.7970  -13.5310 hc        1 P0E      0.076200
     73 H251       19.0990    0.3580  -13.3130 hc        1 P0E      0.055700
     74 H252       20.0580    1.7560  -12.6920 hc        1 P0E      0.055700
     75 H261       19.6840    2.9790  -14.8640 hc        1 P0E      0.039200
     76 H262       18.7020    1.5950  -15.4810 hc        1 P0E      0.039200
     77 H271       21.6670    1.4480  -14.5920 hc        1 P0E      0.041700
     78 H272       20.6860    0.0670  -15.2160 hc        1 P0E      0.041700
     79 H281       20.3100    1.3100  -17.3750 hc        1 P0E      0.039200
     80 H282       21.2940    2.6890  -16.7510 hc        1 P0E      0.039200
     81 H291       23.2740    1.1560  -16.4850 hc        1 P0E      0.041700
     82 H292       22.2900   -0.2230  -17.1100 hc        1 P0E      0.041700
     83 H301       22.8920    2.4050  -18.6430 hc        1 P0E      0.047700
     84 H302       21.9070    1.0290  -19.2670 hc        1 P0E      0.047700
     85 H31        24.4980   -0.0480  -18.3650 ha        1 P0E      0.122000
     86 H32        25.4280    0.2980  -20.6050 ha        1 P0E      0.119000
     87 H331       23.8240    2.7530  -20.8980 hc        1 P0E      0.047700
     88 H332       22.8440    1.3740  -21.5220 hc        1 P0E      0.047700
     89 H341        9.6580    6.3990   -2.3370 hc        1 P0E      0.034200
     90 H342        9.9450    5.0780   -1.1410 hc        1 P0E      0.034200
     91 H351       25.7350    2.0760  -22.4010 hc        1 P0E      0.040200
     92 H352       24.7530    0.6960  -23.0260 hc        1 P0E      0.040200
     93 H361       22.9930    2.3100  -23.8280 hc        1 P0E      0.040700
     94 H362       23.9750    3.6900  -23.2030 hc        1 P0E      0.040700
     95 H371       24.8950    1.6400  -25.3360 hc        1 P0E      0.038700
     96 H372       25.8770    3.0200  -24.7110 hc        1 P0E      0.038700
     97 H381       23.1360    3.2540  -26.1370 hc        1 P0E      0.039700
     98 H382       24.1170    4.6340  -25.5120 hc        1 P0E      0.039700
     99 H391       26.0200    3.9640  -27.0210 hc        1 P0E      0.038700
    100 H392       25.0380    2.5840  -27.6460 hc        1 P0E      0.038700
    101 H401       24.2600    5.5780  -27.8200 hc        1 P0E      0.038700
    102 H402       23.2780    4.1980  -28.4450 hc        1 P0E      0.038700
    103 H411       25.1640    3.5490  -29.9820 hc        1 P0E      0.031700
    104 H412       24.6160    5.2520  -30.2680 hc        1 P0E      0.031700
    105 H413       26.1480    4.9320  -29.3560 hc        1 P0E      0.031700
    106 H421        7.6140    5.0720   -3.1800 hc        1 P0E      0.032200
    107 H422        7.5010    5.7850   -1.5230 hc        1 P0E      0.032200
    108 H431        8.1040    3.5760   -0.5110 hc        1 P0E      0.045200
    109 H432        8.2650    2.8530   -2.1580 hc        1 P0E      0.045200
    110 H441        5.6920    4.1300   -0.9900 hc        1 P0E      0.034200
    111 H442        5.8540    3.4030   -2.6340 hc        1 P0E      0.034200
    112 H451        6.3210    1.9210    0.0440 hc        1 P0E      0.041200
    113 H452        6.4790    1.1980   -1.6020 hc        1 P0E      0.041200
    114 H461        4.2570    0.6720   -0.5930 hc        1 P0E      0.028033
    115 H462        3.8980    2.4390   -0.4140 hc        1 P0E      0.028033
    116 H463        4.0590    1.7110   -2.0630 hc        1 P0E      0.028033
    117 H471       11.4210   -0.4780   -8.1450 h1        1 P0E      0.040700
    118 H472       12.6960   -0.8460   -6.8640 h1        1 P0E      0.040700
    119 H481       10.9460   -0.8250   -5.0890 h1        1 P0E      0.031200
    120 H482       10.3880   -1.9350   -6.4380 h1        1 P0E      0.031200
    121 H49         9.6430    0.7710   -6.3900 ho        1 P0E      0.425000
@<TRIPOS>BOND
     1    1    2 1   
     2    1   11 1   
     3    2    3 1   
     4    2    4 1   
     5    2   50 1   
     6    3    5 1   
     7    3   51 1   
     8    3   52 1   
     9    4    6 1   
    10    4   53 1   
    11    4   54 1   
    12    5   13 1   
    13    6    8 1   
    14    7    8 1   
    15    8    9 1   
    16    8   10 1   
    17   10   47 1   
    18   11   12 2   
    19   11   15 1   
    20   13   14 2   
    21   13   24 1   
    22   15   16 1   
    23   15   55 1   
    24   15   56 1   
    25   16   17 1   
    26   16   57 1   
    27   16   58 1   
    28   17   18 1   
    29   17   59 1   
    30   17   60 1   
    31   18   19 1   
    32   18   61 1   
    33   18   62 1   
    34   19   20 1   
    35   19   63 1   
    36   19   64 1   
    37   20   21 1   
    38   20   65 1   
    39   20   66 1   
    40   21   22 1   
    41   21   67 1   
    42   21   68 1   
    43   22   23 2   
    44   22   69 1   
    45   23   34 1   
    46   23   70 1   
    47   24   25 1   
    48   24   71 1   
    49   24   72 1   
    50   25   26 1   
    51   25   73 1   
    52   25   74 1   
    53   26   27 1   
    54   26   75 1   
    55   26   76 1   
    56   27   28 1   
    57   27   77 1   
    58   27   78 1   
    59   28   29 1   
    60   28   79 1   
    61   28   80 1   
    62   29   30 1   
    63   29   81 1   
    64   29   82 1   
    65   30   31 1   
    66   30   83 1   
    67   30   84 1   
    68   31   32 2   
    69   31   85 1   
    70   32   33 1   
    71   32   86 1   
    72   33   35 1   
    73   33   87 1   
    74   33   88 1   
    75   34   42 1   
    76   34   89 1   
    77   34   90 1   
    78   35   36 1   
    79   35   91 1   
    80   35   92 1   
    81   36   37 1   
    82   36   93 1   
    83   36   94 1   
    84   37   38 1   
    85   37   95 1   
    86   37   96 1   
    87   38   39 1   
    88   38   97 1   
    89   38   98 1   
    90   39   40 1   
    91   39   99 1   
    92   39  100 1   
    93   40   41 1   
    94   40  101 1   
    95   40  102 1   
    96   41  103 1   
    97   41  104 1   
    98   41  105 1   
    99   42   43 1   
   100   42  106 1   
   101   42  107 1   
   102   43   44 1   
   103   43  108 1   
   104   43  109 1   
   105   44   45 1   
   106   44  110 1   
   107   44  111 1   
   108   45   46 1   
   109   45  112 1   
   110   45  113 1   
   111   46  114 1   
   112   46  115 1   
   113   46  116 1   
   114   47   48 1   
   115   47  117 1   
   116   47  118 1   
   117   48   49 1   
   118   48  119 1   
   119   48  120 1   
   120   49  121 1   
@<TRIPOS>SUBSTRUCTURE
     1 P0E         1 TEMP              0 ****  ****    0 ROOT
