@<TRIPOS>MOLECULE
P0E
  121   120     1     0     0
SMALL
bcc


@<TRIPOS>ATOM
      1 O1         -1.1510   -0.7910    0.9990 os        1 P0E     -0.444900
      2 C2          0.2580   -1.1130    1.0520 c3        1 P0E      0.123100
      3 C3          0.6150   -1.1950    2.5340 c3        1 P0E      0.128400
      4 C4          0.4300   -2.4710    0.3590 c3        1 P0E      0.159400
      5 O5          0.9790    0.1190    2.9860 os        1 P0E     -0.439900
      6 O6          1.6700   -3.0180    0.6830 os        1 P0E     -0.570200
      7 O7          0.6420   -5.0340   -0.4280 o         1 P0E     -0.825000
      8 P8          1.9580   -4.4430   -0.1110 p5        1 P0E      1.431800
      9 O9          3.0870   -5.0920    0.5740 o         1 P0E     -0.825000
     10 O10         2.5160   -3.7780   -1.5150 os        1 P0E     -0.586200
     11 C11        -1.6220   -0.1350   -0.0990 c         1 P0E      0.639100
     12 O12        -0.8360    0.4670   -0.8350 o         1 P0E     -0.552000
     13 C13         0.2220    0.7290    3.9390 c         1 P0E      0.635100
     14 O14        -0.7090    0.1230    4.4740 o         1 P0E     -0.553000
     15 C15        -3.1160   -0.2040   -0.2390 c3        1 P0E     -0.127400
     16 C16        -3.6540   -1.6040   -0.0260 c3        1 P0E     -0.074400
     17 C17        -3.0500   -2.6010   -0.9930 c3        1 P0E     -0.087400
     18 C18        -3.4890   -4.0150   -0.6780 c3        1 P0E     -0.067400
     19 C19        -2.6530   -5.0250   -1.4380 c3        1 P0E     -0.105400
     20 C20        -3.1580   -6.4310   -1.1990 c3        1 P0E     -0.063400
     21 C21        -2.3850   -7.4660   -1.9940 c3        1 P0E     -0.045200
     22 C22        -1.0320   -7.7180   -1.4410 c2        1 P0E     -0.160200
     23 C23        -0.4270   -8.9100   -1.4370 c2        1 P0E     -0.213200
     24 C24         0.6800    2.1340    4.2020 c3        1 P0E     -0.131400
     25 C25         0.4940    2.5050    5.6570 c3        1 P0E     -0.078400
     26 C26         0.8250    3.9640    5.8880 c3        1 P0E     -0.078400
     27 C27         0.6570    4.3370    7.3460 c3        1 P0E     -0.078400
     28 C28         0.9820    5.7970    7.5790 c3        1 P0E     -0.079400
     29 C29         0.8140    6.1700    9.0360 c3        1 P0E     -0.077400
     30 C30         1.1400    7.6310    9.2670 c3        1 P0E     -0.050200
     31 C31         0.9830    8.0260   10.6860 c2        1 P0E     -0.168200
     32 C32         1.2110    9.2620   11.1430 c2        1 P0E     -0.180200
     33 C33         1.6490   10.3880   10.2850 c3        1 P0E     -0.048200
     34 C34        -1.0200  -10.1620   -1.9650 c3        1 P0E     -0.039200
     35 C35         1.8290   11.6720   11.0680 c3        1 P0E     -0.076400
     36 C36         2.2760   12.8030   10.1680 c3        1 P0E     -0.079400
     37 C37         2.4560   14.0880   10.9480 c3        1 P0E     -0.078400
     38 C38         2.9030   15.2190   10.0470 c3        1 P0E     -0.079400
     39 C39         3.0830   16.5040   10.8270 c3        1 P0E     -0.079400
     40 C40         3.5310   17.6370    9.9270 c3        1 P0E     -0.080400
     41 C41         3.7120   18.9180   10.6990 c3        1 P0E     -0.092100
     42 C42        -0.0860  -11.3520   -1.8570 c3        1 P0E     -0.072400
     43 C43         0.0730  -11.8220   -0.4270 c3        1 P0E     -0.081400
     44 C44         1.0320  -12.9900   -0.3340 c3        1 P0E     -0.078400
     45 C45         1.1880  -13.4620    1.0960 c3        1 P0E     -0.081400
     46 C46         2.1420  -14.6240    1.1950 c3        1 P0E     -0.090100
     47 C47         3.8700   -3.4470   -1.5720 c3        1 P0E      0.142400
     48 C48         4.5110   -4.1700   -2.7580 c3        1 P0E      0.116400
     49 O49         3.8200   -3.9170   -3.9670 oh        1 P0E     -0.630800
     50 H2          0.8600   -0.3160    0.5410 h1        1 P0E      0.089700
     51 H31A       -0.2290   -1.6190    3.1350 h1        1 P0E      0.098200
     52 H32A        1.5500   -1.8100    2.6500 h1        1 P0E      0.098200
     53 H41        -0.3830   -3.1800    0.6800 h1        1 P0E      0.045200
     54 H42         0.3670   -2.3310   -0.7560 h1        1 P0E      0.045200
     55 H151       -3.3780    0.1660   -1.2650 hc        1 P0E      0.065700
     56 H152       -3.5660    0.4940    0.5160 hc        1 P0E      0.065700
     57 H161       -4.7680   -1.5850   -0.1450 hc        1 P0E      0.048200
     58 H162       -3.4260   -1.9240    1.0260 hc        1 P0E      0.048200
     59 H171       -3.3380   -2.3380   -2.0440 hc        1 P0E      0.049700
     60 H172       -1.9270   -2.5430   -0.9290 hc        1 P0E      0.049700
     61 H181       -4.5740   -4.1380   -0.9340 hc        1 P0E      0.027700
     62 H182       -3.3830   -4.2070    0.4220 hc        1 P0E      0.027700
     63 H191       -1.5740   -4.9480   -1.1130 hc        1 P0E      0.075700
     64 H192       -2.6900   -4.7920   -2.5350 hc        1 P0E      0.075700
     65 H201       -3.0860   -6.6700   -0.1050 hc        1 P0E      0.026200
     66 H202       -4.2420   -6.4940   -1.4840 hc        1 P0E      0.026200
     67 H211       -2.2740   -7.1150   -3.0570 hc        1 P0E      0.031200
     68 H212       -2.9820   -8.4180   -2.0230 hc        1 P0E      0.031200
     69 H22        -0.5110   -6.8230   -1.0310 ha        1 P0E      0.205000
     70 H23         0.5900   -9.0000   -1.0200 ha        1 P0E      0.126000
     71 H241        0.0730    2.8110    3.5430 hc        1 P0E      0.075200
     72 H242        1.7560    2.2400    3.9020 hc        1 P0E      0.075200
     73 H251        1.1530    1.8610    6.2960 hc        1 P0E      0.055700
     74 H252       -0.5660    2.2960    5.9630 hc        1 P0E      0.055700
     75 H261        1.8800    4.1670    5.5660 hc        1 P0E      0.039200
     76 H262        0.1570    4.6060    5.2560 hc        1 P0E      0.039200
     77 H271       -0.3980    4.1300    7.6670 hc        1 P0E      0.041700
     78 H272        1.3270    3.6960    7.9770 hc        1 P0E      0.041700
     79 H281        0.3120    6.4370    6.9470 hc        1 P0E      0.039200
     80 H282        2.0370    6.0030    7.2570 hc        1 P0E      0.039200
     81 H291        1.4840    5.5300    9.6680 hc        1 P0E      0.041700
     82 H292       -0.2410    5.9640    9.3580 hc        1 P0E      0.041700
     83 H301        0.4730    8.2710    8.6260 hc        1 P0E      0.047700
     84 H302        2.1960    7.8370    8.9370 hc        1 P0E      0.047700
     85 H31         0.6580    7.2290   11.3760 ha        1 P0E      0.122000
     86 H32         1.0760    9.4940   12.2130 ha        1 P0E      0.119000
     87 H331        0.8940   10.5490    9.4670 hc        1 P0E      0.047700
     88 H332        2.6170   10.1170    9.7800 hc        1 P0E      0.047700
     89 H341       -1.2920  -10.0160   -3.0460 hc        1 P0E      0.033700
     90 H342       -1.9750  -10.3910   -1.4160 hc        1 P0E      0.033700
     91 H351        2.5870   11.5150   11.8800 hc        1 P0E      0.040200
     92 H352        0.8620   11.9470   11.5670 hc        1 P0E      0.040200
     93 H361        1.5180   12.9600    9.3550 hc        1 P0E      0.040200
     94 H362        3.2420   12.5270    9.6690 hc        1 P0E      0.040200
     95 H371        3.2140   13.9310   11.7600 hc        1 P0E      0.038700
     96 H372        1.4900   14.3640   11.4470 hc        1 P0E      0.038700
     97 H381        2.1450   15.3750    9.2350 hc        1 P0E      0.039700
     98 H382        3.8700   14.9430    9.5490 hc        1 P0E      0.039700
     99 H391        2.1170   16.7800   11.3260 hc        1 P0E      0.038700
    100 H392        3.8420   16.3480   11.6390 hc        1 P0E      0.038700
    101 H401        4.4960   17.3580    9.4280 hc        1 P0E      0.038700
    102 H402        2.7720   17.7900    9.1150 hc        1 P0E      0.038700
    103 H411        4.4820   18.7920   11.4980 hc        1 P0E      0.031700
    104 H412        4.0410   19.7390   10.0180 hc        1 P0E      0.031700
    105 H413        2.7530   19.2250   11.1840 hc        1 P0E      0.031700
    106 H421       -0.4910  -12.1940   -2.4790 hc        1 P0E      0.032700
    107 H422        0.9180  -11.0810   -2.2770 hc        1 P0E      0.032700
    108 H431       -0.9260  -12.1220   -0.0150 hc        1 P0E      0.044700
    109 H432        0.4490  -10.9730    0.2040 hc        1 P0E      0.044700
    110 H441        2.0330  -12.6870   -0.7400 hc        1 P0E      0.034700
    111 H442        0.6590  -13.8350   -0.9700 hc        1 P0E      0.034700
    112 H451        0.1850  -13.7610    1.5020 hc        1 P0E      0.039700
    113 H452        1.5600  -12.6140    1.7290 hc        1 P0E      0.039700
    114 H461        3.1530  -14.3360    0.8190 hc        1 P0E      0.028033
    115 H462        1.7760  -15.4880    0.5880 hc        1 P0E      0.028033
    116 H463        2.2420  -14.9560    2.2570 hc        1 P0E      0.028033
    117 H471        4.3920   -3.7360   -0.6180 h1        1 P0E      0.042700
    118 H472        3.9550   -2.3350   -1.7360 h1        1 P0E      0.042700
    119 H481        5.5550   -3.7960   -2.9270 h1        1 P0E      0.030200
    120 H482        4.5330   -5.2770   -2.5740 h1        1 P0E      0.030200
    121 H49         2.8760   -3.9340   -3.7540 ho        1 P0E      0.425000
@<TRIPOS>BOND
     1    1    2 1   
     2    1   11 1   
     3    2    3 1   
     4    2    4 1   
     5    2   50 1   
     6    3    5 1   
     7    3   51 1   
     8    3   52 1   
     9    4    6 1   
    10    4   53 1   
    11    4   54 1   
    12    5   13 1   
    13    6    8 1   
    14    7    8 1   
    15    8    9 1   
    16    8   10 1   
    17   10   47 1   
    18   11   12 2   
    19   11   15 1   
    20   13   14 2   
    21   13   24 1   
    22   15   16 1   
    23   15   55 1   
    24   15   56 1   
    25   16   17 1   
    26   16   57 1   
    27   16   58 1   
    28   17   18 1   
    29   17   59 1   
    30   17   60 1   
    31   18   19 1   
    32   18   61 1   
    33   18   62 1   
    34   19   20 1   
    35   19   63 1   
    36   19   64 1   
    37   20   21 1   
    38   20   65 1   
    39   20   66 1   
    40   21   22 1   
    41   21   67 1   
    42   21   68 1   
    43   22   23 2   
    44   22   69 1   
    45   23   34 1   
    46   23   70 1   
    47   24   25 1   
    48   24   71 1   
    49   24   72 1   
    50   25   26 1   
    51   25   73 1   
    52   25   74 1   
    53   26   27 1   
    54   26   75 1   
    55   26   76 1   
    56   27   28 1   
    57   27   77 1   
    58   27   78 1   
    59   28   29 1   
    60   28   79 1   
    61   28   80 1   
    62   29   30 1   
    63   29   81 1   
    64   29   82 1   
    65   30   31 1   
    66   30   83 1   
    67   30   84 1   
    68   31   32 2   
    69   31   85 1   
    70   32   33 1   
    71   32   86 1   
    72   33   35 1   
    73   33   87 1   
    74   33   88 1   
    75   34   42 1   
    76   34   89 1   
    77   34   90 1   
    78   35   36 1   
    79   35   91 1   
    80   35   92 1   
    81   36   37 1   
    82   36   93 1   
    83   36   94 1   
    84   37   38 1   
    85   37   95 1   
    86   37   96 1   
    87   38   39 1   
    88   38   97 1   
    89   38   98 1   
    90   39   40 1   
    91   39   99 1   
    92   39  100 1   
    93   40   41 1   
    94   40  101 1   
    95   40  102 1   
    96   41  103 1   
    97   41  104 1   
    98   41  105 1   
    99   42   43 1   
   100   42  106 1   
   101   42  107 1   
   102   43   44 1   
   103   43  108 1   
   104   43  109 1   
   105   44   45 1   
   106   44  110 1   
   107   44  111 1   
   108   45   46 1   
   109   45  112 1   
   110   45  113 1   
   111   46  114 1   
   112   46  115 1   
   113   46  116 1   
   114   47   48 1   
   115   47  117 1   
   116   47  118 1   
   117   48   49 1   
   118   48  119 1   
   119   48  120 1   
   120   49  121 1   
@<TRIPOS>SUBSTRUCTURE
     1 P0E         1 TEMP              0 ****  ****    0 ROOT
