@<TRIPOS>MOLECULE
P0E
  121   120     1     0     0
SMALL
bcc


@<TRIPOS>ATOM
      1 O1         -1.1180   -0.7830    1.0130 os        1 P0E     -0.444900
      2 C2          0.2880   -1.1160    1.0680 c3        1 P0E      0.123100
      3 C3          0.6420   -1.2060    2.5500 c3        1 P0E      0.128400
      4 C4          0.4510   -2.4740    0.3710 c3        1 P0E      0.159400
      5 O5          1.0140    0.1050    3.0070 os        1 P0E     -0.439900
      6 O6          1.6860   -3.0320    0.6960 os        1 P0E     -0.570200
      7 O7          0.6440   -5.0350   -0.4240 o         1 P0E     -0.825000
      8 P8          1.9640   -4.4570   -0.1020 p5        1 P0E      1.431800
      9 O9          3.0860   -5.1180    0.5850 o         1 P0E     -0.825000
     10 O10         2.5320   -3.7920   -1.5020 os        1 P0E     -0.586200
     11 C11        -1.5820   -0.1190   -0.0830 c         1 P0E      0.639100
     12 O12        -0.7900    0.4790   -0.8150 o         1 P0E     -0.552000
     13 C13         0.2600    0.7180    3.9590 c         1 P0E      0.635100
     14 O14        -0.6760    0.1160    4.4910 o         1 P0E     -0.553000
     15 C15        -3.0750   -0.1760   -0.2260 c3        1 P0E     -0.127400
     16 C16        -3.6240   -1.5720   -0.0200 c3        1 P0E     -0.074400
     17 C17        -3.0260   -2.5700   -0.9890 c3        1 P0E     -0.087400
     18 C18        -3.4770   -3.9820   -0.6820 c3        1 P0E     -0.067400
     19 C19        -2.6480   -4.9950   -1.4440 c3        1 P0E     -0.105400
     20 C20        -3.1630   -6.3990   -1.2120 c3        1 P0E     -0.063400
     21 C21        -2.3980   -7.4360   -2.0110 c3        1 P0E     -0.045200
     22 C22        -1.0470   -7.7000   -1.4590 c2        1 P0E     -0.160200
     23 C23        -0.4500   -8.8960   -1.4650 c2        1 P0E     -0.213200
     24 C24         0.7260    2.1190    4.2260 c3        1 P0E     -0.131400
     25 C25         0.5340    2.4900    5.6810 c3        1 P0E     -0.078400
     26 C26         0.8710    3.9470    5.9140 c3        1 P0E     -0.078400
     27 C27         0.6990    4.3210    7.3700 c3        1 P0E     -0.078400
     28 C28         1.0270    5.7790    7.6050 c3        1 P0E     -0.079400
     29 C29         0.8550    6.1530    9.0620 c3        1 P0E     -0.077400
     30 C30         1.1820    7.6140    9.2940 c3        1 P0E     -0.050200
     31 C31         1.0220    8.0090   10.7130 c2        1 P0E     -0.168200
     32 C32         1.2310    9.2500   11.1670 c2        1 P0E     -0.180200
     33 C33         1.6470   10.3810   10.3050 c3        1 P0E     -0.048200
     34 C34        -1.0500  -10.1400   -2.0040 c3        1 P0E     -0.039200
     35 C35         1.8250   11.6650   11.0880 c3        1 P0E     -0.076400
     36 C36         2.2500   12.8020   10.1830 c3        1 P0E     -0.079400
     37 C37         2.4280   14.0870   10.9630 c3        1 P0E     -0.078400
     38 C38         2.8520   15.2240   10.0590 c3        1 P0E     -0.079400
     39 C39         3.0300   16.5090   10.8380 c3        1 P0E     -0.079400
     40 C40         3.4540   17.6480    9.9340 c3        1 P0E     -0.080400
     41 C41         3.6330   18.9300   10.7060 c3        1 P0E     -0.092100
     42 C42        -0.1230  -11.3360   -1.9090 c3        1 P0E     -0.072400
     43 C43         0.0350  -11.8210   -0.4840 c3        1 P0E     -0.081400
     44 C44         0.9870  -12.9950   -0.4040 c3        1 P0E     -0.078400
     45 C45         1.1420  -13.4830    1.0210 c3        1 P0E     -0.081400
     46 C46         2.0890  -14.6520    1.1070 c3        1 P0E     -0.090100
     47 C47         3.8890   -3.4720   -1.5530 c3        1 P0E      0.142400
     48 C48         4.5280   -4.1960   -2.7390 c3        1 P0E      0.116400
     49 O49         3.8440   -3.9330   -3.9500 oh        1 P0E     -0.630800
     50 H2          0.8980   -0.3230    0.5600 h1        1 P0E      0.089700
     51 H31A       -0.2050   -1.6250    3.1480 h1        1 P0E      0.098200
     52 H32A        1.5730   -1.8280    2.6660 h1        1 P0E      0.098200
     53 H41        -0.3690   -3.1770    0.6880 h1        1 P0E      0.045200
     54 H42         0.3920   -2.3310   -0.7440 h1        1 P0E      0.045200
     55 H151       -3.3330    0.2000   -1.2510 hc        1 P0E      0.065700
     56 H152       -3.5210    0.5220    0.5310 hc        1 P0E      0.065700
     57 H161       -4.7390   -1.5440   -0.1410 hc        1 P0E      0.048200
     58 H162       -3.4020   -1.8990    1.0310 hc        1 P0E      0.048200
     59 H171       -3.3110   -2.3010   -2.0400 hc        1 P0E      0.049700
     60 H172       -1.9040   -2.5210   -0.9230 hc        1 P0E      0.049700
     61 H181       -4.5620   -4.0960   -0.9400 hc        1 P0E      0.027700
     62 H182       -3.3750   -4.1790    0.4190 hc        1 P0E      0.027700
     63 H191       -2.6810   -4.7580   -2.5400 hc        1 P0E      0.075700
     64 H192       -1.5690   -4.9280   -1.1170 hc        1 P0E      0.075700
     65 H201       -3.0940   -6.6440   -0.1190 hc        1 P0E      0.026200
     66 H202       -4.2480   -6.4520   -1.4980 hc        1 P0E      0.026200
     67 H211       -2.2850   -7.0810   -3.0720 hc        1 P0E      0.031200
     68 H212       -3.0020   -8.3840   -2.0440 hc        1 P0E      0.031200
     69 H22        -0.5210   -6.8120   -1.0410 ha        1 P0E      0.205000
     70 H23         0.5660   -8.9960   -1.0490 ha        1 P0E      0.126000
     71 H241        1.8030    2.2180    3.9310 hc        1 P0E      0.075200
     72 H242        0.1270    2.8000    3.5650 hc        1 P0E      0.075200
     73 H251        1.1880    1.8430    6.3220 hc        1 P0E      0.055700
     74 H252       -0.5280    2.2860    5.9810 hc        1 P0E      0.055700
     75 H261        1.9280    4.1460    5.5960 hc        1 P0E      0.039200
     76 H262        0.2080    4.5930    5.2790 hc        1 P0E      0.039200
     77 H271       -0.3580    4.1160    7.6890 hc        1 P0E      0.042200
     78 H272        1.3650    3.6780    8.0040 hc        1 P0E      0.042200
     79 H281        0.3600    6.4220    6.9710 hc        1 P0E      0.039200
     80 H282        2.0830    5.9830    7.2860 hc        1 P0E      0.039200
     81 H291       -0.2010    5.9480    9.3810 hc        1 P0E      0.041700
     82 H292        1.5230    5.5130    9.6960 hc        1 P0E      0.041700
     83 H301        2.2390    7.8190    8.9670 hc        1 P0E      0.047700
     84 H302        0.5180    8.2540    8.6500 hc        1 P0E      0.047700
     85 H31         0.7130    7.2080   11.4050 ha        1 P0E      0.122000
     86 H32         1.0960    9.4810   12.2360 ha        1 P0E      0.119000
     87 H331        0.8800   10.5360    9.4970 hc        1 P0E      0.047700
     88 H332        2.6110   10.1200    9.7860 hc        1 P0E      0.047700
     89 H341       -1.3230   -9.9820   -3.0840 hc        1 P0E      0.033700
     90 H342       -2.0050  -10.3680   -1.4570 hc        1 P0E      0.033700
     91 H351        0.8630   11.9300   11.6000 hc        1 P0E      0.040200
     92 H352        2.5960   11.5140   11.8890 hc        1 P0E      0.040200
     93 H361        1.4800   12.9520    9.3810 hc        1 P0E      0.040200
     94 H362        3.2120   12.5360    9.6710 hc        1 P0E      0.040200
     95 H371        1.4660   14.3530   11.4750 hc        1 P0E      0.038700
     96 H372        3.1980   13.9370   11.7650 hc        1 P0E      0.038700
     97 H381        2.0820   15.3740    9.2570 hc        1 P0E      0.039700
     98 H382        3.8140   14.9590    9.5460 hc        1 P0E      0.039700
     99 H391        3.8000   16.3600   11.6400 hc        1 P0E      0.038700
    100 H392        2.0680   16.7760   11.3500 hc        1 P0E      0.038700
    101 H401        4.4160   17.3790    9.4220 hc        1 P0E      0.038700
    102 H402        2.6830   17.7950    9.1320 hc        1 P0E      0.038700
    103 H411        4.4150   18.8100   11.4940 hc        1 P0E      0.031700
    104 H412        3.9450   19.7550   10.0210 hc        1 P0E      0.031700
    105 H413        2.6780   19.2270   11.2030 hc        1 P0E      0.031700
    106 H421       -0.5330  -12.1690   -2.5400 hc        1 P0E      0.032700
    107 H422        0.8820  -11.0660   -2.3270 hc        1 P0E      0.032700
    108 H431        0.4160  -10.9800    0.1550 hc        1 P0E      0.044700
    109 H432       -0.9660  -12.1190   -0.0750 hc        1 P0E      0.044700
    110 H441        1.9900  -12.6940   -0.8080 hc        1 P0E      0.035200
    111 H442        0.6090  -13.8320   -1.0490 hc        1 P0E      0.035200
    112 H451        0.1380  -13.7800    1.4250 hc        1 P0E      0.039700
    113 H452        1.5200  -12.6430    1.6620 hc        1 P0E      0.039700
    114 H461        3.1020  -14.3660    0.7330 hc        1 P0E      0.028033
    115 H462        1.7180  -15.5070    0.4920 hc        1 P0E      0.028033
    116 H463        2.1880  -14.9950    2.1650 hc        1 P0E      0.028033
    117 H471        3.9850   -2.3600   -1.7130 h1        1 P0E      0.042700
    118 H472        4.4050   -3.7690   -0.5980 h1        1 P0E      0.042700
    119 H481        5.5750   -3.8310   -2.9030 h1        1 P0E      0.030200
    120 H482        4.5400   -5.3040   -2.5580 h1        1 P0E      0.030200
    121 H49         2.8990   -3.9440   -3.7400 ho        1 P0E      0.425000
@<TRIPOS>BOND
     1    1    2 1   
     2    1   11 1   
     3    2    3 1   
     4    2    4 1   
     5    2   50 1   
     6    3    5 1   
     7    3   51 1   
     8    3   52 1   
     9    4    6 1   
    10    4   53 1   
    11    4   54 1   
    12    5   13 1   
    13    6    8 1   
    14    7    8 1   
    15    8    9 1   
    16    8   10 1   
    17   10   47 1   
    18   11   12 2   
    19   11   15 1   
    20   13   14 2   
    21   13   24 1   
    22   15   16 1   
    23   15   55 1   
    24   15   56 1   
    25   16   17 1   
    26   16   57 1   
    27   16   58 1   
    28   17   18 1   
    29   17   59 1   
    30   17   60 1   
    31   18   19 1   
    32   18   61 1   
    33   18   62 1   
    34   19   20 1   
    35   19   63 1   
    36   19   64 1   
    37   20   21 1   
    38   20   65 1   
    39   20   66 1   
    40   21   22 1   
    41   21   67 1   
    42   21   68 1   
    43   22   23 2   
    44   22   69 1   
    45   23   34 1   
    46   23   70 1   
    47   24   25 1   
    48   24   71 1   
    49   24   72 1   
    50   25   26 1   
    51   25   73 1   
    52   25   74 1   
    53   26   27 1   
    54   26   75 1   
    55   26   76 1   
    56   27   28 1   
    57   27   77 1   
    58   27   78 1   
    59   28   29 1   
    60   28   79 1   
    61   28   80 1   
    62   29   30 1   
    63   29   81 1   
    64   29   82 1   
    65   30   31 1   
    66   30   83 1   
    67   30   84 1   
    68   31   32 2   
    69   31   85 1   
    70   32   33 1   
    71   32   86 1   
    72   33   35 1   
    73   33   87 1   
    74   33   88 1   
    75   34   42 1   
    76   34   89 1   
    77   34   90 1   
    78   35   36 1   
    79   35   91 1   
    80   35   92 1   
    81   36   37 1   
    82   36   93 1   
    83   36   94 1   
    84   37   38 1   
    85   37   95 1   
    86   37   96 1   
    87   38   39 1   
    88   38   97 1   
    89   38   98 1   
    90   39   40 1   
    91   39   99 1   
    92   39  100 1   
    93   40   41 1   
    94   40  101 1   
    95   40  102 1   
    96   41  103 1   
    97   41  104 1   
    98   41  105 1   
    99   42   43 1   
   100   42  106 1   
   101   42  107 1   
   102   43   44 1   
   103   43  108 1   
   104   43  109 1   
   105   44   45 1   
   106   44  110 1   
   107   44  111 1   
   108   45   46 1   
   109   45  112 1   
   110   45  113 1   
   111   46  114 1   
   112   46  115 1   
   113   46  116 1   
   114   47   48 1   
   115   47  117 1   
   116   47  118 1   
   117   48   49 1   
   118   48  119 1   
   119   48  120 1   
   120   49  121 1   
@<TRIPOS>SUBSTRUCTURE
     1 P0E         1 TEMP              0 ****  ****    0 ROOT
