@<TRIPOS>MOLECULE
P0E
  121   118     1     0     0
SMALL
bcc


@<TRIPOS>ATOM
      1 O1         -0.2620   -5.0710   -3.1440 os        1 P0E     -0.276000
      2 C2          1.1430   -5.2350   -3.2500 c3        1 P0E     -0.014000
      3 C3          1.7240   -5.5390   -1.8770 c3        1 P0E     -0.045000
      4 C4          1.4490   -6.3820   -4.1950 c3        1 P0E      0.048000
      5 O5          2.8950   -4.7420   -1.6660 os        1 P0E     -0.266000
      6 O6          2.7460   -6.1980   -4.7640 os        1 P0E     -0.722000
      7 O7          2.4050   -8.3240   -6.1230 o         1 P0E     -0.825000
      8 P8          3.1030   -6.9810   -6.1190 p5        1 P0E      1.900000
      9 O9          2.6410   -6.1700   -7.3050 o         1 P0E     -0.825000
     10 O10         4.6770   -7.2010   -6.2080 os        1 P0E     -0.757000
     11 C11        -0.7480   -3.8830   -3.7450 c2        1 P0E      0.313000
     12 O12        -0.2990   -3.5150   -4.8180 o         1 P0E     -0.374000
     13 C13         3.5610   -5.0060   -0.4220 c2        1 P0E      0.309000
     14 O14         3.5240   -6.1240    0.0640 o         1 P0E     -0.379000
     15 C15        -1.9140   -3.1100   -3.0920 c3        1 P0E     -0.160000
     16 C16        -2.9680   -2.7700   -4.1620 c3        1 P0E     -0.157000
     17 C17        -3.7340   -1.4920   -3.7430 c3        1 P0E     -0.157000
     18 C18        -5.1430   -1.5030   -4.3740 c3        1 P0E     -0.158000
     19 C19        -5.7640   -0.0780   -4.2830 c3        1 P0E     -0.158000
     20 C20        -7.3030   -0.1940   -4.0890 c3        1 P0E     -0.155000
     21 C21        -7.9280    1.2410   -3.9760 c3        1 P0E     -0.132000
     22 C22        -8.8750    1.2940   -2.7540 c2        1 P0E     -0.162000
     23 C23        -9.7430    2.3850   -2.5830 c1        1 P0E     -0.178000
     24 C24         4.3110   -3.8690    0.3110 c3        1 P0E     -0.162000
     25 C25         4.9560   -4.4230    1.6030 c3        1 P0E     -0.156000
     26 C26         5.0640   -3.2860    2.6560 c3        1 P0E     -0.158000
     27 C27         6.1610   -3.6290    3.6700 c3        1 P0E     -0.157000
     28 C28         5.7490   -3.1170    5.0670 c3        1 P0E     -0.158000
     29 C29         6.9310   -2.3780    5.7100 c3        1 P0E     -0.156000
     30 C30         6.4080   -1.4240    6.8040 c3        1 P0E     -0.133000
     31 C31         7.5840   -0.8140    7.5470 c2        1 P0E     -0.164000
     32 C32         7.4390    0.4090    8.1980 c1        1 P0E     -0.177000
     33 C33         6.0890    1.1430    8.1650 c2        1 P0E     -0.131000
     34 C34        -9.7540    3.5350   -3.6160 c2        1 P0E     -0.130000
     35 C35         6.3050    2.6380    8.5170 c3        1 P0E     -0.155000
     36 C36         4.9950    3.4110    8.2940 c3        1 P0E     -0.159000
     37 C37         5.3090    4.9130    8.1130 c3        1 P0E     -0.157000
     38 C38         4.2190    5.5640    7.2500 c3        1 P0E     -0.158000
     39 C39         4.5800    7.0430    6.9940 c3        1 P0E     -0.158000
     40 C40         3.8490    7.5390    5.7420 c3        1 P0E     -0.159000
     41 C41         4.1170    9.0290    5.5520 c3        1 P0E     -0.210000
     42 C42       -10.2130    4.8570   -2.9200 c3        1 P0E     -0.156000
     43 C43       -11.1860    5.6220   -3.8510 c3        1 P0E     -0.158000
     44 C44       -11.4460    7.0400   -3.2750 c3        1 P0E     -0.158000
     45 C45       -12.5270    7.7460   -4.1150 c3        1 P0E     -0.159000
     46 C46       -12.6960    9.1870   -3.6230 c3        1 P0E     -0.210000
     47 C47         5.2200   -7.7420   -7.4090 c3        1 P0E      0.014000
     48 C48         6.7400   -7.7140   -7.3360 c3        1 P0E     -0.035000
     49 O49         7.2700   -8.7770   -8.1090 oh        1 P0E     -0.374000
     50 H2          1.5420   -4.4110   -3.5980 h1        1 P0E      0.145000
     51 H31A        1.9610   -6.4900   -1.8260 h1        1 P0E      0.139000
     52 H32A        1.0590   -5.3310   -1.1890 h1        1 P0E      0.139000
     53 H41         1.4270   -7.2290   -3.6990 h1        1 P0E      0.081500
     54 H42         0.7800   -6.4040   -4.9090 h1        1 P0E      0.081500
     55 H151       -1.5750   -2.2850   -2.6960 hc        1 P0E      0.116000
     56 H152       -2.3210   -3.6610   -2.3960 hc        1 P0E      0.116000
     57 H161       -2.5250   -2.6180   -5.0190 hc        1 P0E      0.095000
     58 H162       -3.5980   -3.5140   -4.2480 hc        1 P0E      0.095000
     59 H171       -3.8130   -1.4650   -2.7660 hc        1 P0E      0.078500
     60 H172       -3.2460   -0.7060   -4.0520 hc        1 P0E      0.078500
     61 H181       -5.0780   -1.7700   -5.3060 hc        1 P0E      0.080500
     62 H182       -5.7090   -2.1360   -3.8920 hc        1 P0E      0.080500
     63 H191       -5.3760    0.3980   -3.5250 hc        1 P0E      0.079500
     64 H192       -5.5750    0.4130   -5.1070 hc        1 P0E      0.079500
     65 H201       -7.4920   -0.6970   -3.2690 hc        1 P0E      0.080000
     66 H202       -7.6920   -0.6580   -4.8520 hc        1 P0E      0.080000
     67 H211       -8.4330    1.4410   -4.7890 hc        1 P0E      0.085000
     68 H212       -7.2150    1.8990   -3.8650 hc        1 P0E      0.085000
     69 H22        -8.8690    0.5640   -2.0970 ha        1 P0E      0.126000
     70 H23       -10.3420    2.4170   -1.8080 ha        1 P0E      0.121000
     71 H241        3.6800   -3.1590    0.5410 hc        1 P0E      0.120000
     72 H242        5.0090   -3.5080   -0.2740 hc        1 P0E      0.120000
     73 H251        4.4050   -5.1430    1.9590 hc        1 P0E      0.093000
     74 H252        5.8490   -4.7650    1.4010 hc        1 P0E      0.093000
     75 H261        5.2880   -2.4440    2.2050 hc        1 P0E      0.080000
     76 H262        4.2110   -3.1900    3.1200 hc        1 P0E      0.080000
     77 H271        6.9990   -3.2030    3.4000 hc        1 P0E      0.080000
     78 H272        6.2830   -4.5970    3.7010 hc        1 P0E      0.080000
     79 H281        4.9920   -2.5060    4.9800 hc        1 P0E      0.079000
     80 H282        5.4930   -3.8760    5.6310 hc        1 P0E      0.079000
     81 H291        7.4030   -1.8640    5.0280 hc        1 P0E      0.080500
     82 H292        7.5440   -3.0300    6.1110 hc        1 P0E      0.080500
     83 H301        5.8820   -0.7140    6.3920 hc        1 P0E      0.087000
     84 H302        5.8480   -1.9230    7.4330 hc        1 P0E      0.087000
     85 H31         8.4430   -1.2800    7.5680 ha        1 P0E      0.122000
     86 H32         8.1880    0.7960    8.6710 ha        1 P0E      0.119000
     87 H331        5.7030    1.0710    7.2760 ha        1 P0E      0.087500
     88 H332        5.4830    0.7390    8.8170 ha        1 P0E      0.087500
     89 H341       -8.8540    3.6550   -3.9810 ha        1 P0E      0.085500
     90 H342      -10.3730    3.3160   -4.3410 ha        1 P0E      0.085500
     91 H351        7.0030    3.0090    7.9460 hc        1 P0E      0.079000
     92 H352        6.5740    2.7170    9.4530 hc        1 P0E      0.079000
     93 H361        4.4100    3.2910    9.0690 hc        1 P0E      0.080000
     94 H362        4.5490    3.0720    7.4930 hc        1 P0E      0.080000
     95 H371        5.3340    5.3490    8.9900 hc        1 P0E      0.078000
     96 H372        6.1760    5.0140    7.6740 hc        1 P0E      0.078000
     97 H381        4.1540    5.0900    6.3950 hc        1 P0E      0.079000
     98 H382        3.3630    5.5140    7.7150 hc        1 P0E      0.079000
     99 H391        5.5500    7.1240    6.8610 hc        1 P0E      0.078000
    100 H392        4.3100    7.5850    7.7680 hc        1 P0E      0.078000
    101 H401        4.1710    7.0480    4.9610 hc        1 P0E      0.078000
    102 H402        2.8900    7.3920    5.8460 hc        1 P0E      0.078000
    103 H411        5.0670    9.2130    5.7120 hc        1 P0E      0.071000
    104 H412        3.8840    9.2890    4.6340 hc        1 P0E      0.071000
    105 H413        3.5730    9.5420    6.1850 hc        1 P0E      0.071000
    106 H421      -10.6670    4.6420   -2.0800 hc        1 P0E      0.080500
    107 H422       -9.4330    5.4150   -2.7350 hc        1 P0E      0.080500
    108 H431      -12.0310    5.1350   -3.9110 hc        1 P0E      0.078500
    109 H432      -10.7920    5.7000   -4.7390 hc        1 P0E      0.078500
    110 H441      -10.6200    7.5590   -3.3050 hc        1 P0E      0.078500
    111 H442      -11.7500    6.9650   -2.3480 hc        1 P0E      0.078500
    112 H451      -13.3770    7.2670   -4.0220 hc        1 P0E      0.077500
    113 H452      -12.2570    7.7520   -5.0560 hc        1 P0E      0.077500
    114 H461      -13.0020    9.1800   -2.6920 hc        1 P0E      0.071000
    115 H462      -13.3610    9.6490   -4.1840 hc        1 P0E      0.071000
    116 H463      -11.8390    9.6540   -3.6820 hc        1 P0E      0.071000
    117 H471        4.9150   -8.6680   -7.5180 h1        1 P0E      0.063500
    118 H472        4.9210   -7.2080   -8.1720 h1        1 P0E      0.063500
    119 H481        7.0240   -7.8150   -6.4030 h1        1 P0E      0.068000
    120 H482        7.0700   -6.8550   -7.6890 h1        1 P0E      0.068000
    121 H49         8.1440   -8.6590   -8.2140 ho        1 P0E      0.254000
@<TRIPOS>BOND
     1    1    2 1   
     2    1   11 1   
     3    2    3 1   
     4    2    4 1   
     5    2   50 1   
     6    3    5 1   
     7    3   51 1   
     8    3   52 1   
     9    4    6 1   
    10    4   53 1   
    11    4   54 1   
    12    5   13 1   
    13    6    8 1   
    14    7    8 1   
    15    8    9 1   
    16    8   10 1   
    17   10   47 1   
    18   11   12 1   
    19   11   15 1   
    20   13   14 1   
    21   13   24 1   
    22   15   16 1   
    23   15   55 1   
    24   15   56 1   
    25   16   17 1   
    26   16   57 1   
    27   16   58 1   
    28   17   18 1   
    29   17   59 1   
    30   17   60 1   
    31   18   19 1   
    32   18   61 1   
    33   18   62 1   
    34   19   20 1   
    35   19   63 1   
    36   19   64 1   
    37   20   21 1   
    38   20   65 1   
    39   20   66 1   
    40   21   22 1   
    41   21   67 1   
    42   21   68 1   
    43   22   23 1   
    44   22   69 1   
    45   23   70 1   
    46   24   25 1   
    47   24   71 1   
    48   24   72 1   
    49   25   26 1   
    50   25   73 1   
    51   25   74 1   
    52   26   27 1   
    53   26   75 1   
    54   26   76 1   
    55   27   28 1   
    56   27   77 1   
    57   27   78 1   
    58   28   29 1   
    59   28   79 1   
    60   28   80 1   
    61   29   30 1   
    62   29   81 1   
    63   29   82 1   
    64   30   31 1   
    65   30   83 1   
    66   30   84 1   
    67   31   32 1   
    68   31   85 1   
    69   32   86 1   
    70   33   35 1   
    71   33   87 1   
    72   33   88 1   
    73   34   42 1   
    74   34   89 1   
    75   34   90 1   
    76   35   36 1   
    77   35   91 1   
    78   35   92 1   
    79   36   37 1   
    80   36   93 1   
    81   36   94 1   
    82   37   38 1   
    83   37   95 1   
    84   37   96 1   
    85   38   39 1   
    86   38   97 1   
    87   38   98 1   
    88   39   40 1   
    89   39   99 1   
    90   39  100 1   
    91   40   41 1   
    92   40  101 1   
    93   40  102 1   
    94   41  103 1   
    95   41  104 1   
    96   41  105 1   
    97   42   43 1   
    98   42  106 1   
    99   42  107 1   
   100   43   44 1   
   101   43  108 1   
   102   43  109 1   
   103   44   45 1   
   104   44  110 1   
   105   44  111 1   
   106   45   46 1   
   107   45  112 1   
   108   45  113 1   
   109   46  114 1   
   110   46  115 1   
   111   46  116 1   
   112   47   48 1   
   113   47  117 1   
   114   47  118 1   
   115   48   49 1   
   116   48  119 1   
   117   48  120 1   
   118   49  121 1   
@<TRIPOS>SUBSTRUCTURE
     1 P0E         1 TEMP              0 ****  ****    0 ROOT
