@<TRIPOS>MOLECULE
P0G
   53    55     1     0     0
SMALL
bcc


@<TRIPOS>ATOM
      1 CAA        -4.6400    1.1570   -2.1760 c3        1 P0G     -0.057800
      2 CAB        -1.7310    0.6850   -0.3470 c3        1 P0G     -0.108600
      3 CAC        -2.2280   -0.5740    1.7310 c3        1 P0G     -0.108600
      4 OAD         3.7820    2.8930    2.6420 o         1 P0G     -0.611500
      5 OAE         6.3630   -0.5070    0.1690 oh        1 P0G     -0.502100
      6 OAF         0.6660   -1.9840   -2.3620 oh        1 P0G     -0.592800
      7 CAG        -6.6840    1.8090    0.9260 ca        1 P0G     -0.128000
      8 CAH        -6.2360    0.8070    1.7860 ca        1 P0G     -0.135000
      9 CAI        -6.1440    1.9130   -0.3520 ca        1 P0G     -0.132000
     10 CAJ        -5.2420   -0.0710    1.3650 ca        1 P0G     -0.126000
     11 CAK         4.6490   -1.7090   -1.0740 ca        1 P0G     -0.199000
     12 CAL         3.3080   -1.8590   -1.4110 ca        1 P0G     -0.087000
     13 CAM         2.0290    1.5610    1.6470 c3        1 P0G      0.057400
     14 CAN         0.0780   -1.6510   -0.0180 c3        1 P0G      0.138800
     15 CAO        -3.6360   -0.9530   -0.3230 c3        1 P0G     -0.037100
     16 NAP        -1.3410   -1.8030   -0.2190 n3        1 P0G     -0.816200
     17 NAQ         4.4530    1.2540    1.2000 n         1 P0G     -0.453100
     18 OAR         1.7660    0.9190    0.4000 os        1 P0G     -0.317900
     19 CAS         3.4750    1.9700    1.8690 c         1 P0G      0.675500
     20 CAT        -5.1440    1.0310   -0.7870 ca        1 P0G     -0.071300
     21 CAU         5.0480   -0.6920   -0.2000 ca        1 P0G      0.109100
     22 CAV        -4.6690    0.0390    0.0890 ca        1 P0G     -0.074300
     23 CAW         2.3330   -1.0100   -0.8850 ca        1 P0G     -0.123300
     24 CAX         4.0960    0.2090    0.3390 ca        1 P0G     -0.004400
     25 CAY         2.7390    0.0240   -0.0240 ca        1 P0G      0.098100
     26 CAZ         0.8820   -1.1450   -1.2410 c3        1 P0G      0.153400
     27 CBA        -2.1960   -0.6730    0.1990 c3        1 P0G      0.193200
     28 HAA        -3.5270    1.2710   -2.1860 hc        1 P0G      0.045700
     29 HAAA       -4.9060    0.2450   -2.7680 hc        1 P0G      0.045700
     30 HAAB       -5.0850    2.0450   -2.6890 hc        1 P0G      0.045700
     31 HAB        -1.6250    0.6520   -1.4580 hc        1 P0G      0.041867
     32 HABA       -2.4800    1.4690   -0.0820 hc        1 P0G      0.041867
     33 HABB       -0.7430    0.9690    0.0950 hc        1 P0G      0.041867
     34 HAC        -2.8610    0.2960    2.0290 hc        1 P0G      0.041867
     35 HACA       -2.6520   -1.5040    2.1770 hc        1 P0G      0.041867
     36 HACB       -1.2040   -0.4160    2.1460 hc        1 P0G      0.041867
     37 HOAE        6.9000   -1.1530   -0.3150 ho        1 P0G      0.430000
     38 HOAF        0.8350   -2.8940   -2.0830 ho        1 P0G      0.399000
     39 HAG        -7.4660    2.5090    1.2520 ha        1 P0G      0.131000
     40 HAH        -6.6680    0.7080    2.7920 ha        1 P0G      0.131000
     41 HAI        -6.5090    2.6950   -1.0350 ha        1 P0G      0.130000
     42 HAJ        -4.9000   -0.8710    2.0410 ha        1 P0G      0.133000
     43 HAK         5.4030   -2.3900   -1.4960 ha        1 P0G      0.141000
     44 HAL         3.0140   -2.6520   -2.1150 ha        1 P0G      0.146000
     45 HAM         1.3730    2.4750    1.6220 h1        1 P0G      0.091700
     46 HAMA        1.7200    0.8780    2.4830 h1        1 P0G      0.091700
     47 HAN         0.2940   -0.9590    0.8420 h1        1 P0G      0.058700
     48 HANA        0.4690   -2.6750    0.2510 h1        1 P0G      0.058700
     49 HAO        -3.9530   -1.9650    0.0540 hc        1 P0G      0.054700
     50 HAOA       -3.6010   -1.0090   -1.4440 hc        1 P0G      0.054700
     51 HNAP       -1.5250   -2.0230   -1.1820 hn        1 P0G      0.367800
     52 HNAQ        5.4190    1.4310    1.3650 hn        1 P0G      0.352500
     53 HAZ         0.4940   -0.1380   -1.5780 h1        1 P0G      0.098700
@<TRIPOS>BOND
     1    1   20 1   
     2    1   28 1   
     3    1   29 1   
     4    1   30 1   
     5    2   27 1   
     6    2   31 1   
     7    2   32 1   
     8    2   33 1   
     9    3   27 1   
    10    3   34 1   
    11    3   35 1   
    12    3   36 1   
    13    4   19 2   
    14    5   21 1   
    15    5   37 1   
    16    6   26 1   
    17    6   38 1   
    18    7    8 ar  
    19    7    9 ar  
    20    7   39 1   
    21    8   10 ar  
    22    8   40 1   
    23    9   20 ar  
    24    9   41 1   
    25   10   22 ar  
    26   10   42 1   
    27   11   12 ar  
    28   11   21 ar  
    29   11   43 1   
    30   12   23 ar  
    31   12   44 1   
    32   13   18 1   
    33   13   19 1   
    34   13   45 1   
    35   13   46 1   
    36   14   16 1   
    37   14   26 1   
    38   14   47 1   
    39   14   48 1   
    40   15   22 1   
    41   15   27 1   
    42   15   49 1   
    43   15   50 1   
    44   16   27 1   
    45   16   51 1   
    46   17   19 1   
    47   17   24 1   
    48   17   52 1   
    49   18   25 1   
    50   20   22 ar  
    51   21   24 ar  
    52   23   25 ar  
    53   23   26 1   
    54   24   25 ar  
    55   26   53 1   
@<TRIPOS>SUBSTRUCTURE
     1 P0G         1 TEMP              0 ****  ****    0 ROOT
