@<TRIPOS>MOLECULE
P0G
   54    56     1     0     0
SMALL
bcc


@<TRIPOS>ATOM
      1 CAA         0.1810    0.3920   -0.2900 c3        1 P0G     -0.063800
      2 CAB        -0.0660   -2.4390    1.7110 c3        1 P0G     -0.126600
      3 CAC         1.4740   -2.2630    3.6660 c3        1 P0G     -0.126600
      4 OAD        -6.9110   -6.5590    2.3640 o         1 P0G     -0.573500
      5 OAE        -4.5840   -8.1310    6.4190 oh        1 P0G     -0.486100
      6 OAF        -2.0950   -2.2490    6.3760 oh        1 P0G     -0.635800
      7 CAG         3.9350    0.4790    0.0600 ca        1 P0G     -0.098000
      8 CAH         4.1080    0.2570    1.4270 ca        1 P0G     -0.122000
      9 CAI         2.6520    0.5010   -0.4800 ca        1 P0G     -0.121000
     10 CAJ         2.9980    0.0430    2.2380 ca        1 P0G     -0.124000
     11 CAK        -3.0850   -6.2930    6.9600 ca        1 P0G     -0.199000
     12 CAL        -2.6090   -5.0230    6.6600 ca        1 P0G     -0.078000
     13 CAM        -5.2220   -4.8660    2.6400 c3        1 P0G      0.057400
     14 CAN        -1.5040   -2.9910    4.2040 c3        1 P0G      0.102800
     15 CAO         0.5470   -0.1560    2.6170 c3        1 P0G     -0.045100
     16 NAP        -0.9330   -1.6470    3.9280 ny        1 P0G     -0.766000
     17 NAQ        -5.5970   -6.7480    4.2230 ns        1 P0G     -0.454100
     18 OAR        -4.5350   -4.1620    3.6770 os        1 P0G     -0.341900
     19 CAS        -5.9890   -6.1070    3.0580 c         1 P0G      0.677500
     20 CAT         1.5250    0.2910    0.3280 ca        1 P0G     -0.060300
     21 CAU        -4.0720   -6.8850    6.1600 ca        1 P0G      0.145100
     22 CAV         1.7030    0.0350    1.6980 ca        1 P0G     -0.120300
     23 CAW        -3.0970   -4.3190    5.5570 ca        1 P0G     -0.195300
     24 CAX        -4.5960   -6.2010    5.0290 ca        1 P0G      0.003600
     25 CAY        -4.0720   -4.9190    4.7400 ca        1 P0G      0.116100
     26 CAZ        -2.6390   -2.9300    5.2540 c3        1 P0G      0.198400
     27 CBA         0.2640   -1.6410    2.9700 c3        1 P0G      0.159200
     28 HAA        -0.3530    1.2980    0.0950 hc        1 P0G      0.049033
     29 HAAA        0.2540    0.4840   -1.4030 hc        1 P0G      0.049033
     30 HAAB       -0.4390   -0.5100   -0.0600 hc        1 P0G      0.049033
     31 HAB        -1.0470   -2.1370    1.2720 hc        1 P0G      0.075700
     32 HABA        0.7350   -2.2360    0.9530 hc        1 P0G      0.075700
     33 HABB       -0.0790   -3.5360    1.9230 hc        1 P0G      0.075700
     34 HAC         2.3320   -2.2510    2.9450 hc        1 P0G      0.075700
     35 HACA        1.7690   -1.6800    4.5720 hc        1 P0G      0.075700
     36 HACB        1.2850   -3.3250    3.9540 hc        1 P0G      0.075700
     37 HOAE       -4.1800   -8.4660    7.2360 ho        1 P0G      0.445000
     38 HOAF       -2.6960   -2.3810    7.1220 ho        1 P0G      0.451000
     39 HAG         4.8090    0.6480   -0.5870 ha        1 P0G      0.152000
     40 HAH         5.1190    0.2600    1.8640 ha        1 P0G      0.150000
     41 HAI         2.5180    0.6970   -1.5560 ha        1 P0G      0.149000
     42 HAJ         3.1390   -0.1080    3.3200 ha        1 P0G      0.129000
     43 HAK        -2.6930   -6.8380    7.8320 ha        1 P0G      0.158000
     44 HAL        -1.8380   -4.5640    7.3000 ha        1 P0G      0.151000
     45 HAM        -5.9380   -4.1050    2.2230 h1        1 P0G      0.095200
     46 HAMA       -4.4680   -5.1650    1.8620 h1        1 P0G      0.095200
     47 HAN        -0.6790   -3.6560    4.5860 hx        1 P0G      0.113700
     48 HANA       -1.9280   -3.4200    3.2530 hx        1 P0G      0.113700
     49 HAO        -0.3740    0.2900    2.1500 hc        1 P0G      0.064700
     50 HAOA        0.7570    0.4070    3.5690 hc        1 P0G      0.064700
     51 HNAP       -0.6340   -1.2350    4.8230 hn        1 P0G      0.451300
     52 HNAQ       -6.0300   -7.6010    4.5050 hn        1 P0G      0.364500
     53 HAZ        -3.5050   -2.3260    4.8490 h1        1 P0G      0.076700
     54 HAP2       -1.6670   -1.0510    3.5320 hn        1 P0G      0.451300
@<TRIPOS>BOND
     1    1   20 1   
     2    1   28 1   
     3    1   29 1   
     4    1   30 1   
     5    2   27 1   
     6    2   31 1   
     7    2   32 1   
     8    2   33 1   
     9    3   27 1   
    10    3   34 1   
    11    3   35 1   
    12    3   36 1   
    13    4   19 2   
    14    5   21 1   
    15    5   37 1   
    16    6   26 1   
    17    6   38 1   
    18    7    8 ar  
    19    7    9 ar  
    20    7   39 1   
    21    8   10 ar  
    22    8   40 1   
    23    9   20 ar  
    24    9   41 1   
    25   10   22 ar  
    26   10   42 1   
    27   11   12 ar  
    28   11   21 ar  
    29   11   43 1   
    30   12   23 ar  
    31   12   44 1   
    32   13   18 1   
    33   13   19 1   
    34   13   45 1   
    35   13   46 1   
    36   14   16 1   
    37   14   26 1   
    38   14   47 1   
    39   14   48 1   
    40   15   22 1   
    41   15   27 1   
    42   15   49 1   
    43   15   50 1   
    44   16   27 1   
    45   16   51 1   
    46   16   54 1   
    47   17   19 1   
    48   17   24 1   
    49   17   52 1   
    50   18   25 1   
    51   20   22 ar  
    52   21   24 ar  
    53   23   25 ar  
    54   23   26 1   
    55   24   25 ar  
    56   26   53 1   
@<TRIPOS>SUBSTRUCTURE
     1 P0G         1 TEMP              0 ****  ****    0 ROOT
