@<TRIPOS>MOLECULE
P0G
   53    50     1     0     0
SMALL
bcc


@<TRIPOS>ATOM
      1 CAA        -3.1110   -0.0940    1.0310 c3        1 P0G     -0.183000
      2 CAB        -0.3270   -0.5420   -2.2360 c3        1 P0G     -0.229500
      3 CAC         0.3050   -2.9410   -2.6740 c3        1 P0G     -0.229500
      4 OAD         0.4350    1.9200    5.2370 o         1 P0G     -0.337000
      5 OAE         2.0070    5.0840    1.9240 oh        1 P0G     -0.257000
      6 OAF         2.8700   -1.0760    0.9830 oh        1 P0G     -0.322000
      7 CAG        -5.1980   -0.8020   -1.6130 c1        1 P0G     -0.131250
      8 CAH        -4.6580   -1.8390   -2.3860 c1        1 P0G     -0.131250
      9 CAI        -4.4110   -0.1730   -0.6320 c1        1 P0G     -0.131250
     10 CAJ        -3.3330   -2.2510   -2.1810 c1        1 P0G     -0.131250
     11 CAK         2.4780    3.6150   -0.0740 c1        1 P0G     -0.196000
     12 CAL         2.8190    2.2930   -0.4860 c1        1 P0G     -0.087000
     13 CAM         2.1340    0.7410    4.1150 c3        1 P0G     -0.040000
     14 CAN         1.9490   -0.6220   -1.1630 c3        1 P0G     -0.099000
     15 CAO        -1.2590   -2.3870   -0.7260 c3        1 P0G     -0.118000
     16 NAP         1.1460   -1.7540   -0.7110 n3        1 P0G     -0.303000
     17 NAQ         1.4210    2.9660    3.5200 n         1 P0G     -0.305000
     18 OAR         2.2690    0.3570    2.7880 os        1 P0G     -0.219000
     19 CAS         1.2060    1.8700    4.2620 c2        1 P0G      0.283000
     20 CAT        -3.0780   -0.5870   -0.4270 c1        1 P0G     -0.063000
     21 CAU         2.0210    3.8520    1.2460 c2        1 P0G      0.063000
     22 CAV        -2.5420   -1.6200   -1.1970 c1        1 P0G     -0.067000
     23 CAW         2.7020    1.2060    0.4290 c1        1 P0G     -0.101000
     24 CAX         1.9030    2.7800    2.1550 c2        1 P0G      0.006000
     25 CAY         2.2500    1.4360    1.7380 c1        1 P0G      0.066000
     26 CAZ         2.9820   -0.2280   -0.0480 c3        1 P0G      0.074000
     27 CBA        -0.0040   -1.9020   -1.5810 c3        1 P0G      0.040000
     28 HAA        -3.8710   -0.5210    1.5070 hc        1 P0G      0.085333
     29 HAAA       -2.2630   -0.3320    1.4810 hc        1 P0G      0.085333
     30 HAAB       -3.2300    0.9220    1.0430 hc        1 P0G      0.085333
     31 HAB        -1.0700   -0.6450   -2.8360 hc        1 P0G      0.080667
     32 HABA        0.4780   -0.2100   -2.7510 hc        1 P0G      0.080667
     33 HABB       -0.5530    0.0940   -1.5520 hc        1 P0G      0.080667
     34 HAC         1.0850   -2.6500   -3.1910 hc        1 P0G      0.080667
     35 HACA       -0.5140   -3.0330   -3.3070 hc        1 P0G      0.080667
     36 HACB        0.4910   -3.7950   -2.2610 hc        1 P0G      0.080667
     37 HOAE        1.6060    5.6850    1.4290 ho        1 P0G      0.229000
     38 HOAF        3.5740   -1.6180    0.9970 ho        1 P0G      0.210000
     39 HAG        -6.1330   -0.5130   -1.7580 ha        1 P0G      0.130000
     40 HAH        -5.2080   -2.2790   -3.0720 ha        1 P0G      0.130000
     41 HAI        -4.7890    0.5540   -0.0900 ha        1 P0G      0.130000
     42 HAJ        -2.9240   -3.0380   -2.7690 ha        1 P0G      0.130000
     43 HAK         2.5620    4.3850   -0.7290 ha        1 P0G      0.140000
     44 HAL         3.1300    2.1340   -1.3930 ha        1 P0G      0.141000
     45 HAM         2.9010    0.8970    4.6990 h1        1 P0G      0.132000
     46 HAMA        1.7860   -0.0300    4.5140 h1        1 P0G      0.132000
     47 HAN         1.3790    0.1170   -1.3410 h1        1 P0G      0.082000
     48 HANA        2.4150   -0.8600   -1.9560 h1        1 P0G      0.082000
     49 HAO        -1.3910   -3.3710   -0.8570 hc        1 P0G      0.096000
     50 HAOA       -1.0980   -2.2000    0.2380 hc        1 P0G      0.096000
     51 HNAP        1.6630   -2.5350   -0.7380 hn        1 P0G      0.163000
     52 HNAQ        1.1140    3.8160    3.8110 hn        1 P0G      0.265000
     53 HAZ         3.8860   -0.2770   -0.4110 h1        1 P0G      0.121000
@<TRIPOS>BOND
     1    1   20 1   
     2    1   28 1   
     3    1   29 1   
     4    1   30 1   
     5    2   27 1   
     6    2   31 1   
     7    2   32 1   
     8    2   33 1   
     9    3   27 1   
    10    3   34 1   
    11    3   35 1   
    12    3   36 1   
    13    4   19 1   
    14    5   21 1   
    15    5   37 1   
    16    6   26 1   
    17    6   38 1   
    18    7    9 1   
    19    7   39 1   
    20    8   10 1   
    21    8   40 1   
    22    9   41 1   
    23   10   42 1   
    24   11   21 1   
    25   11   43 1   
    26   12   23 1   
    27   12   44 1   
    28   13   18 1   
    29   13   19 1   
    30   13   45 1   
    31   13   46 1   
    32   14   16 1   
    33   14   26 1   
    34   14   47 1   
    35   14   48 1   
    36   15   22 1   
    37   15   27 1   
    38   15   49 1   
    39   15   50 1   
    40   16   27 1   
    41   16   51 1   
    42   17   19 1   
    43   17   24 1   
    44   17   52 1   
    45   18   25 1   
    46   20   22 1   
    47   21   24 1   
    48   23   26 1   
    49   24   25 1   
    50   26   53 1   
@<TRIPOS>SUBSTRUCTURE
     1 P0G         1 TEMP              0 ****  ****    0 ROOT
