@<TRIPOS>MOLECULE
P0G
   54    56     1     0     0
SMALL
bcc


@<TRIPOS>ATOM
      1 CAA         0.2050    0.3450   -0.3100 c3        1 P0G     -0.063800
      2 CAB        -0.0700   -2.4560    1.7290 c3        1 P0G     -0.126600
      3 CAC         1.4540   -2.2580    3.6940 c3        1 P0G     -0.126600
      4 OAD        -6.9410   -6.5360    2.3780 o         1 P0G     -0.573500
      5 OAE        -4.6530   -8.0650    6.4710 oh        1 P0G     -0.486100
      6 OAF        -2.1380   -2.1950    6.3720 oh        1 P0G     -0.635800
      7 CAG         3.9560    0.4240    0.0720 ca        1 P0G     -0.098000
      8 CAH         4.1170    0.2210    1.4440 ca        1 P0G     -0.122000
      9 CAI         2.6790    0.4430   -0.4800 ca        1 P0G     -0.121000
     10 CAJ         2.9990    0.0220    2.2470 ca        1 P0G     -0.124000
     11 CAK        -3.1500   -6.2280    7.0000 ca        1 P0G     -0.199000
     12 CAL        -2.6660   -4.9630    6.6880 ca        1 P0G     -0.078000
     13 CAM        -5.2460   -4.8470    2.6450 c3        1 P0G      0.057400
     14 CAN        -1.5320   -2.9680    4.2150 c3        1 P0G      0.102800
     15 CAO         0.5430   -0.1620    2.6070 c3        1 P0G     -0.045100
     16 NAP        -0.9530   -1.6290    3.9260 n4        1 P0G     -0.766000
     17 NAQ        -5.6420   -6.7060    4.2490 n         1 P0G     -0.454100
     18 OAR        -4.5640   -4.1320    3.6790 os        1 P0G     -0.341900
     19 CAS        -6.0220   -6.0790    3.0730 c         1 P0G      0.677500
     20 CAT         1.5440    0.2490    0.3210 ca        1 P0G     -0.060300
     21 CAU        -4.1330   -6.8250    6.2010 ca        1 P0G      0.145100
     22 CAV         1.7090    0.0110    1.6960 ca        1 P0G     -0.120300
     23 CAW        -3.1420   -4.2710    5.5720 ca        1 P0G     -0.195300
     24 CAX        -4.6450   -6.1530    5.0560 ca        1 P0G      0.003600
     25 CAY        -4.1130   -4.8770    4.7550 ca        1 P0G      0.116100
     26 CAZ        -2.6750   -2.8880    5.2550 c3        1 P0G      0.198400
     27 CBA         0.2520   -1.6420    2.9790 c3        1 P0G      0.159200
     28 HAA        -0.3290    1.2580    0.0570 hc        1 P0G      0.049033
     29 HAAA        0.2890    0.4210   -1.4230 hc        1 P0G      0.049033
     30 HAAB       -0.4200   -0.5510   -0.0730 hc        1 P0G      0.049033
     31 HAB        -1.0460   -2.1570    1.2760 hc        1 P0G      0.075700
     32 HABA        0.7380   -2.2670    0.9750 hc        1 P0G      0.075700
     33 HABB       -0.0880   -3.5500    1.9560 hc        1 P0G      0.075700
     34 HAC         2.3180   -2.2600    2.9800 hc        1 P0G      0.075700
     35 HACA        1.2580   -3.3150    3.9960 hc        1 P0G      0.075700
     36 HACB        1.7430   -1.6640    4.5940 hc        1 P0G      0.075700
     37 HOAE       -4.2570   -8.3920    7.2950 ho        1 P0G      0.445000
     38 HOAF       -2.7450   -2.3150    7.1150 ho        1 P0G      0.451000
     39 HAG         4.8370    0.5810   -0.5700 ha        1 P0G      0.152000
     40 HAH         5.1230    0.2260    1.8900 ha        1 P0G      0.150000
     41 HAI         2.5550    0.6240   -1.5600 ha        1 P0G      0.149000
     42 HAJ         3.1300   -0.1140    3.3320 ha        1 P0G      0.129000
     43 HAK        -2.7670   -6.7630    7.8830 ha        1 P0G      0.158000
     44 HAL        -1.8980   -4.4990    7.3280 ha        1 P0G      0.151000
     45 HAM        -5.9550   -4.0880    2.2120 h1        1 P0G      0.095200
     46 HAMA       -4.4870   -5.1590    1.8770 h1        1 P0G      0.095200
     47 HAN        -1.9500   -3.4080    3.2660 hx        1 P0G      0.113700
     48 HANA       -0.7130   -3.6310    4.6120 hx        1 P0G      0.113700
     49 HAO        -0.3720    0.2800    2.1260 hc        1 P0G      0.064700
     50 HAOA        0.7470    0.4130    3.5530 hc        1 P0G      0.064700
     51 HNAP       -1.6810   -1.0360    3.5160 hn        1 P0G      0.451300
     52 HNAQ       -6.0810   -7.5540    4.5390 hn        1 P0G      0.364500
     53 HAZ        -3.5350   -2.2860    4.8350 h1        1 P0G      0.076700
     54 HAP2       -0.6610   -1.2080    4.8180 hn        1 P0G      0.451300
@<TRIPOS>BOND
     1    1   20 1   
     2    1   28 1   
     3    1   29 1   
     4    1   30 1   
     5    2   27 1   
     6    2   31 1   
     7    2   32 1   
     8    2   33 1   
     9    3   27 1   
    10    3   34 1   
    11    3   35 1   
    12    3   36 1   
    13    4   19 2   
    14    5   21 1   
    15    5   37 1   
    16    6   26 1   
    17    6   38 1   
    18    7    8 ar  
    19    7    9 ar  
    20    7   39 1   
    21    8   10 ar  
    22    8   40 1   
    23    9   20 ar  
    24    9   41 1   
    25   10   22 ar  
    26   10   42 1   
    27   11   12 ar  
    28   11   21 ar  
    29   11   43 1   
    30   12   23 ar  
    31   12   44 1   
    32   13   18 1   
    33   13   19 1   
    34   13   45 1   
    35   13   46 1   
    36   14   16 1   
    37   14   26 1   
    38   14   47 1   
    39   14   48 1   
    40   15   22 1   
    41   15   27 1   
    42   15   49 1   
    43   15   50 1   
    44   16   27 1   
    45   16   51 1   
    46   16   54 1   
    47   17   19 1   
    48   17   24 1   
    49   17   52 1   
    50   18   25 1   
    51   20   22 ar  
    52   21   24 ar  
    53   23   25 ar  
    54   23   26 1   
    55   24   25 ar  
    56   26   53 1   
@<TRIPOS>SUBSTRUCTURE
     1 P0G         1 TEMP              0 ****  ****    0 ROOT
