@<TRIPOS>MOLECULE
P0G
   54    56     1     0     0
SMALL
bcc


@<TRIPOS>ATOM
      1 CAA         0.2010    0.3620   -0.2970 c3        1 P0G     -0.063800
      2 CAB        -0.0710   -2.4500    1.7270 c3        1 P0G     -0.126600
      3 CAC         1.4550   -2.2630    3.6920 c3        1 P0G     -0.126600
      4 OAD        -6.9230   -6.5490    2.3580 o         1 P0G     -0.573500
      5 OAE        -4.6450   -8.0810    6.4560 oh        1 P0G     -0.486100
      6 OAF        -2.1380   -2.2070    6.3740 oh        1 P0G     -0.635800
      7 CAG         3.9530    0.4360    0.0800 ca        1 P0G     -0.098000
      8 CAH         4.1160    0.2260    1.4500 ca        1 P0G     -0.122000
      9 CAI         2.6750    0.4590   -0.4700 ca        1 P0G     -0.121000
     10 CAJ         2.9990    0.0230    2.2540 ca        1 P0G     -0.124000
     11 CAK        -3.1470   -6.2410    6.9930 ca        1 P0G     -0.199000
     12 CAL        -2.6640   -4.9760    6.6840 ca        1 P0G     -0.078000
     13 CAM        -5.2320   -4.8580    2.6330 c3        1 P0G      0.057400
     14 CAN        -1.5290   -2.9740    4.2150 c3        1 P0G      0.102800
     15 CAO         0.5440   -0.1610    2.6170 c3        1 P0G     -0.045100
     16 NAP        -0.9520   -1.6340    3.9300 n4        1 P0G     -0.766000
     17 NAQ        -5.6300   -6.7200    4.2340 n         1 P0G     -0.454100
     18 OAR        -4.5550   -4.1440    3.6710 os        1 P0G     -0.341900
     19 CAS        -6.0080   -6.0920    3.0580 c         1 P0G      0.677500
     20 CAT         1.5410    0.2610    0.3310 ca        1 P0G     -0.060300
     21 CAU        -4.1270   -6.8400    6.1900 ca        1 P0G      0.145100
     22 CAV         1.7080    0.0160    1.7050 ca        1 P0G     -0.120300
     23 CAW        -3.1380   -4.2830    5.5680 ca        1 P0G     -0.195300
     24 CAX        -4.6360   -6.1670    5.0450 ca        1 P0G      0.003600
     25 CAY        -4.1060   -4.8890    4.7470 ca        1 P0G      0.116100
     26 CAZ        -2.6730   -2.8980    5.2540 c3        1 P0G      0.198400
     27 CBA         0.2530   -1.6430    2.9820 c3        1 P0G      0.159200
     28 HAA         0.2830    0.4460   -1.4090 hc        1 P0G      0.049367
     29 HAAA       -0.4240   -0.5350   -0.0640 hc        1 P0G      0.049367
     30 HAAB       -0.3320    1.2730    0.0780 hc        1 P0G      0.049367
     31 HAB        -0.0900   -3.5450    1.9490 hc        1 P0G      0.075700
     32 HABA        0.7360   -2.2570    0.9730 hc        1 P0G      0.075700
     33 HABB       -1.0480   -2.1480    1.2780 hc        1 P0G      0.075700
     34 HAC         1.2590   -3.3220    3.9880 hc        1 P0G      0.075700
     35 HACA        1.7450   -1.6740    4.5950 hc        1 P0G      0.075700
     36 HACB        2.3180   -2.2610    2.9770 hc        1 P0G      0.075700
     37 HOAE       -4.2520   -8.4080    7.2810 ho        1 P0G      0.445000
     38 HOAF       -2.7460   -2.3290    7.1160 ho        1 P0G      0.451000
     39 HAG         4.8330    0.5960   -0.5630 ha        1 P0G      0.152000
     40 HAH         5.1230    0.2280    1.8940 ha        1 P0G      0.150000
     41 HAI         2.5490    0.6460   -1.5490 ha        1 P0G      0.149000
     42 HAJ         3.1320   -0.1180    3.3380 ha        1 P0G      0.129000
     43 HAK        -2.7660   -6.7780    7.8760 ha        1 P0G      0.158000
     44 HAL        -1.8990   -4.5120    7.3270 ha        1 P0G      0.151000
     45 HAM        -4.4700   -5.1680    1.8670 h1        1 P0G      0.095200
     46 HAMA       -5.9410   -4.0990    2.2000 h1        1 P0G      0.095200
     47 HAN        -0.7100   -3.6380    4.6120 hx        1 P0G      0.113700
     48 HANA       -1.9460   -3.4120    3.2650 hx        1 P0G      0.113700
     49 HAO        -0.3710    0.2840    2.1400 hc        1 P0G      0.064700
     50 HAOA        0.7500    0.4090    3.5660 hc        1 P0G      0.064700
     51 HNAP       -0.6590   -1.2150    4.8230 hn        1 P0G      0.451300
     52 HNAQ       -6.0690   -7.5690    4.5210 hn        1 P0G      0.364500
     53 HAZ        -3.5340   -2.2960    4.8350 h1        1 P0G      0.076700
     54 HAP2       -1.6800   -1.0400    3.5230 hn        1 P0G      0.451300
@<TRIPOS>BOND
     1    1   20 1   
     2    1   28 1   
     3    1   29 1   
     4    1   30 1   
     5    2   27 1   
     6    2   31 1   
     7    2   32 1   
     8    2   33 1   
     9    3   27 1   
    10    3   34 1   
    11    3   35 1   
    12    3   36 1   
    13    4   19 2   
    14    5   21 1   
    15    5   37 1   
    16    6   26 1   
    17    6   38 1   
    18    7    8 ar  
    19    7    9 ar  
    20    7   39 1   
    21    8   10 ar  
    22    8   40 1   
    23    9   20 ar  
    24    9   41 1   
    25   10   22 ar  
    26   10   42 1   
    27   11   12 ar  
    28   11   21 ar  
    29   11   43 1   
    30   12   23 ar  
    31   12   44 1   
    32   13   18 1   
    33   13   19 1   
    34   13   45 1   
    35   13   46 1   
    36   14   16 1   
    37   14   26 1   
    38   14   47 1   
    39   14   48 1   
    40   15   22 1   
    41   15   27 1   
    42   15   49 1   
    43   15   50 1   
    44   16   27 1   
    45   16   51 1   
    46   16   54 1   
    47   17   19 1   
    48   17   24 1   
    49   17   52 1   
    50   18   25 1   
    51   20   22 ar  
    52   21   24 ar  
    53   23   25 ar  
    54   23   26 1   
    55   24   25 ar  
    56   26   53 1   
@<TRIPOS>SUBSTRUCTURE
     1 P0G         1 TEMP              0 ****  ****    0 ROOT
