@<TRIPOS>MOLECULE
P0H
   39    36     1     0     0
SMALL
bcc


@<TRIPOS>ATOM
      1 C1          0.5120    0.2160    1.4410 c1        1 P0H      0.371000
      2 O1          1.6550   -0.0450    1.6910 o         1 P0H     -0.410000
      3 O2         -0.4990   -0.0390    2.4010 os        1 P0H     -0.285000
      4 C2         -0.0430    0.0330    3.7670 c3        1 P0H      0.029000
      5 C3         -0.9580   -0.8230    4.6620 c2        1 P0H     -0.095000
      6 C4         -0.5150   -2.0450    5.1280 c1        1 P0H     -0.125000
      7 C5         -1.3040   -2.7880    5.9780 c1        1 P0H     -0.136500
      8 C6         -2.5370   -2.3150    6.3660 c1        1 P0H     -0.136500
      9 C7         -2.9830   -1.1040    5.9100 c1        1 P0H     -0.133000
     10 C8         -2.1890   -0.3490    5.0490 c2        1 P0H     -0.104000
     11 N1          0.1560    0.6620    0.1410 n2        1 P0H     -0.271000
     12 CA1         0.9960    0.3630   -0.9680 c3        1 P0H     -0.098000
     13 C9          0.7250    1.3350   -2.0870 c1        1 P0H      0.313000
     14 O3          0.2950    2.4200   -1.8430 o         1 P0H     -0.368000
     15 N           1.0610    0.9710   -3.4740 n2        1 P0H     -0.270000
     16 CA          0.9390    1.7370   -4.5500 c3        1 P0H     -0.083000
     17 C          -0.2040    2.6430   -4.3730 c2        1 P0H      0.326000
     18 O          -1.4070    2.1670   -4.3700 o         1 P0H     -0.566500
     19 CB          0.7370    0.6200   -5.7830 c3        1 P0H     -0.151000
     20 CG          1.4920   -0.3790   -5.5070 c3        1 P0H     -0.159000
     21 CD          1.6250   -0.3870   -3.9680 c3        1 P0H     -0.054000
     22 OXT        -0.0240    3.8700   -4.3500 o         1 P0H     -0.566500
     23 H2         -0.0660    0.9680    4.0740 h1        1 P0H      0.112500
     24 H2A         0.8850   -0.3110    3.8230 h1        1 P0H      0.112500
     25 H4          0.3200   -2.3680    4.8660 ha        1 P0H      0.129000
     26 H5         -0.9960   -3.6310    6.2980 ha        1 P0H      0.122500
     27 H6         -3.0860   -2.8380    6.9620 ha        1 P0H      0.122500
     28 H7         -3.8380   -0.7790    6.1810 ha        1 P0H      0.129000
     29 H8         -2.5000    0.4970    4.7300 ha        1 P0H      0.154000
     30 HN1        -0.6060    1.1800    0.0210 hn        1 P0H      0.240000
     31 HA1         0.8160   -0.5300   -1.2720 h1        1 P0H      0.142500
     32 HA1A        1.9480    0.4340   -0.6910 h1        1 P0H      0.142500
     33 HA          1.6770    2.3830   -4.7570 h1        1 P0H      0.110000
     34 HB          0.9980    1.0050   -6.6180 hc        1 P0H      0.088500
     35 HBA        -0.1730    0.3410   -5.8230 hc        1 P0H      0.088500
     36 HG          2.3720   -0.2700   -5.9250 hc        1 P0H      0.069500
     37 HGA         1.0540   -1.2460   -5.8260 hc        1 P0H      0.069500
     38 HD          2.5570   -0.4680   -3.7170 h1        1 P0H      0.068500
     39 HDA         1.1070   -1.1270   -3.5870 h1        1 P0H      0.068500
@<TRIPOS>BOND
     1    1    2 1   
     2    1    3 1   
     3    3    4 1   
     4    4    5 1   
     5    4   23 1   
     6    4   24 1   
     7    5    6 1   
     8    5   10 1   
     9    6   25 1   
    10    7    8 1   
    11    7   26 1   
    12    8   27 1   
    13    9   10 1   
    14    9   28 1   
    15   10   29 1   
    16   11   12 1   
    17   11   30 1   
    18   12   13 1   
    19   12   31 1   
    20   12   32 1   
    21   13   14 1   
    22   15   16 1   
    23   15   21 1   
    24   16   17 1   
    25   16   19 1   
    26   16   33 1   
    27   17   18 1   
    28   17   22 1   
    29   19   20 1   
    30   19   34 1   
    31   19   35 1   
    32   20   21 1   
    33   20   36 1   
    34   20   37 1   
    35   21   38 1   
    36   21   39 1   
@<TRIPOS>SUBSTRUCTURE
     1 P0H         1 TEMP              0 ****  ****    0 ROOT
