@<TRIPOS>MOLECULE
P0H
   39    40     1     0     0
SMALL
bcc


@<TRIPOS>ATOM
      1 C1          1.2320   -1.2560    0.4080 c         1 P0H      0.718100
      2 O1          1.2540   -2.3980   -0.0850 o         1 P0H     -0.605000
      3 O2          2.4050   -0.5140    0.3560 os        1 P0H     -0.447900
      4 C2          3.5270   -1.2000   -0.2200 c3        1 P0H      0.194700
      5 C3          4.6780   -0.2500   -0.2630 ca        1 P0H     -0.083300
      6 C4          5.9770   -0.7720   -0.3090 ca        1 P0H     -0.114500
      7 C5          7.0720    0.0860   -0.3860 ca        1 P0H     -0.135500
      8 C6          6.8790    1.4680   -0.4100 ca        1 P0H     -0.136000
      9 C7          5.5870    1.9900   -0.3580 ca        1 P0H     -0.135500
     10 C8          4.4870    1.1350   -0.2870 ca        1 P0H     -0.114500
     11 N1          0.2270   -0.6300    1.1300 n         1 P0H     -0.460900
     12 CA1        -1.1420   -1.0030    0.8600 c3        1 P0H     -0.032000
     13 C9         -1.8830   -0.0710   -0.1150 c         1 P0H      0.669100
     14 O3         -1.3320    0.9680   -0.5260 o         1 P0H     -0.607100
     15 N          -3.1470   -0.4540   -0.5880 n         1 P0H     -0.410800
     16 CA         -4.2340    0.5250   -0.3980 c3        1 P0H     -0.056300
     17 C          -4.2500    1.1840    1.0260 c         1 P0H      0.906600
     18 O          -3.2990    0.9120    1.8150 o         1 P0H     -0.831300
     19 CB         -5.5460   -0.2490   -0.6230 c3        1 P0H     -0.072400
     20 CG         -5.1950   -1.7260   -0.4670 c3        1 P0H     -0.080400
     21 CD         -3.6680   -1.7810   -0.2800 c3        1 P0H      0.062000
     22 OXT        -5.2210    1.9390    1.2920 o         1 P0H     -0.831300
     23 H2          3.7600   -2.1000    0.4090 h1        1 P0H      0.059700
     24 H2A         3.2550   -1.5380   -1.2560 h1        1 P0H      0.059700
     25 H4          6.1300   -1.8610   -0.2850 ha        1 P0H      0.144000
     26 H5          8.0900   -0.3280   -0.4250 ha        1 P0H      0.127000
     27 H6          7.7450    2.1430   -0.4680 ha        1 P0H      0.123000
     28 H7          5.4310    3.0780   -0.3740 ha        1 P0H      0.127000
     29 H8          3.4640    1.5420   -0.2410 ha        1 P0H      0.144000
     30 HN1         0.3550    0.3580    1.2540 hn        1 P0H      0.326500
     31 HA1        -1.1740   -2.0670    0.4970 h1        1 P0H      0.103200
     32 HA1A       -1.7020   -0.9040    1.8420 h1        1 P0H      0.103200
     33 HA         -4.0990    1.3420   -1.1540 h1        1 P0H      0.070700
     34 HB         -6.3080    0.0830    0.1260 hc        1 P0H      0.049700
     35 HBA        -5.9500   -0.0460   -1.6450 hc        1 P0H      0.049700
     36 HG         -5.7060   -2.1700    0.4210 hc        1 P0H      0.030700
     37 HGA        -5.4980   -2.3110   -1.3690 hc        1 P0H      0.030700
     38 HD         -3.1970   -2.5180   -0.9850 h1        1 P0H      0.029200
     39 HDA        -3.4350   -2.1030    0.7730 h1        1 P0H      0.029200
@<TRIPOS>BOND
     1    1    2 2   
     2    1    3 1   
     3    1   11 1   
     4    3    4 1   
     5    4    5 1   
     6    4   23 1   
     7    4   24 1   
     8    5    6 ar  
     9    5   10 ar  
    10    6    7 ar  
    11    6   25 1   
    12    7    8 ar  
    13    7   26 1   
    14    8    9 ar  
    15    8   27 1   
    16    9   10 ar  
    17    9   28 1   
    18   10   29 1   
    19   11   12 1   
    20   11   30 1   
    21   12   13 1   
    22   12   31 1   
    23   12   32 1   
    24   13   14 2   
    25   13   15 1   
    26   15   16 1   
    27   15   21 1   
    28   16   17 1   
    29   16   19 1   
    30   16   33 1   
    31   17   18 1   
    32   17   22 1   
    33   19   20 1   
    34   19   34 1   
    35   19   35 1   
    36   20   21 1   
    37   20   36 1   
    38   20   37 1   
    39   21   38 1   
    40   21   39 1   
@<TRIPOS>SUBSTRUCTURE
     1 P0H         1 TEMP              0 ****  ****    0 ROOT
