@<TRIPOS>MOLECULE
P0L
   41    41     1     0     0
SMALL
bcc


@<TRIPOS>ATOM
      1 C          -0.5420    1.7610    0.1180 c         1 P0L      0.907600
      2 N           3.1110    0.5890    2.7880 n3        1 P0L     -0.871800
      3 O           0.6000    1.9840   -0.3870 o         1 P0L     -0.864800
      4 P1          0.9740   -0.8240    2.2360 p5        1 P0L      1.342600
      5 C2         -3.6700   -2.9070   -2.0710 ca        1 P0L     -0.178000
      6 O2          1.0900   -1.1040    3.6920 o         1 P0L     -0.874500
      7 O3          0.6830   -1.9810    1.3390 o         1 P0L     -0.874500
      8 C3          2.3370    0.0820    1.6810 c3        1 P0L     -0.117700
      9 C4         -0.7880    0.3420    0.7080 c3        1 P0L      0.087100
     10 O4         -0.2630    0.2430    2.0070 os        1 P0L     -0.574200
     11 C5          3.1000   -0.7090    0.6280 c3        1 P0L     -0.080400
     12 C6         -2.2880    0.0110    0.7650 c3        1 P0L     -0.066100
     13 C7         -2.5400   -3.1670   -1.2930 ca        1 P0L     -0.154500
     14 C8          3.4440    0.1350   -0.5950 c3        1 P0L     -0.089700
     15 C9         -2.7340   -0.9920   -0.2400 ca        1 P0L     -0.026300
     16 C10        -2.0700   -2.2220   -0.3850 ca        1 P0L     -0.134500
     17 C11         4.5100    1.1610   -0.2770 c3        1 P0L     -0.076100
     18 C12         3.8930   -0.7550   -1.7340 c3        1 P0L     -0.076100
     19 C13        -3.8590   -0.7340   -1.0340 ca        1 P0L     -0.134500
     20 C14        -4.3250   -1.6850   -1.9420 ca        1 P0L     -0.154500
     21 H1         -4.0340   -3.6570   -2.7850 ha        1 P0L      0.090000
     22 H4          1.9080    1.0050    1.1610 h1        1 P0L      0.143700
     23 H5         -0.2580   -0.3950    0.0350 h1        1 P0L      0.041700
     24 H6          4.0560   -1.1400    1.0370 hc        1 P0L      0.041200
     25 H7          2.4590   -1.5720    0.2920 hc        1 P0L      0.041200
     26 H8         -2.5270   -0.3930    1.7870 hc        1 P0L      0.062700
     27 H9         -2.8600    0.9700    0.6380 hc        1 P0L      0.062700
     28 H10        -2.0110   -4.1250   -1.4000 ha        1 P0L      0.100000
     29 H11         2.5030    0.6870   -0.9060 hc        1 P0L      0.122700
     30 H12        -1.1580   -2.4240    0.2180 ha        1 P0L      0.172000
     31 H13         4.7920    1.7300   -1.1960 hc        1 P0L      0.013200
     32 H14         4.1220    1.8830    0.4820 hc        1 P0L      0.013200
     33 H15         5.4290    0.6710    0.1280 hc        1 P0L      0.013200
     34 H16         3.0870   -1.4810   -1.9960 hc        1 P0L      0.013200
     35 H17         4.1280   -0.1440   -2.6390 hc        1 P0L      0.013200
     36 H18         4.8090   -1.3300   -1.4520 hc        1 P0L      0.013200
     37 H19        -4.3690    0.2370   -0.9470 ha        1 P0L      0.172000
     38 H20        -5.2070   -1.4660   -2.5590 ha        1 P0L      0.100000
     39 OXT        -1.4740    2.6170    0.0980 o         1 P0L     -0.864800
     40 H           3.0590   -0.0640    3.5530 hn        1 P0L      0.322800
     41 H2          4.0740    0.6970    2.5260 hn        1 P0L      0.322800
@<TRIPOS>BOND
     1    1    3 1   
     2    1    9 1   
     3    1   39 1   
     4    2    8 1   
     5    2   40 1   
     6    2   41 1   
     7    4    6 1   
     8    4    7 1   
     9    4    8 1   
    10    4   10 1   
    11    5   13 ar  
    12    5   20 ar  
    13    5   21 1   
    14    8   11 1   
    15    8   22 1   
    16    9   10 1   
    17    9   12 1   
    18    9   23 1   
    19   11   14 1   
    20   11   24 1   
    21   11   25 1   
    22   12   15 1   
    23   12   26 1   
    24   12   27 1   
    25   13   16 ar  
    26   13   28 1   
    27   14   17 1   
    28   14   18 1   
    29   14   29 1   
    30   15   16 ar  
    31   15   19 ar  
    32   16   30 1   
    33   17   31 1   
    34   17   32 1   
    35   17   33 1   
    36   18   34 1   
    37   18   35 1   
    38   18   36 1   
    39   19   20 ar  
    40   19   37 1   
    41   20   38 1   
@<TRIPOS>SUBSTRUCTURE
     1 P0L         1 TEMP              0 ****  ****    0 ROOT
