@<TRIPOS>MOLECULE
P0L
   41    37     1     0     0
SMALL
bcc


@<TRIPOS>ATOM
      1 C           0.4040    1.0990   -2.4200 c1        1 P0L      0.790000
      2 N           1.8990   -1.6210    1.6340 n3        1 P0L     -0.873800
      3 O           1.5850    0.7650   -2.7160 o         1 P0L     -0.838000
      4 P1         -0.3360   -0.6720    0.5640 p4        1 P0L      1.624000
      5 C2         -0.8900    5.8440   -3.2160 c1        1 P0L     -0.113900
      6 O2         -1.0220   -0.0180    1.7450 o         1 P0L     -0.869500
      7 O3         -1.3790   -1.1570   -0.4200 o         1 P0L     -0.918300
      8 C3          0.6550   -2.0850    1.1450 c3        1 P0L     -0.074700
      9 C4          0.0330    1.3690   -0.9800 c         1 P0L      0.419900
     10 O4          0.6190    0.3900   -0.1520 o         1 P0L     -0.976100
     11 C5         -0.0910   -2.8060    2.2590 c3        1 P0L     -0.066400
     12 C6          0.5400    2.7460   -0.5750 c3        1 P0L     -0.109200
     13 C7          0.3930    5.3340   -3.3750 c1        1 P0L     -0.091900
     14 C8         -0.0180   -4.3280    2.0260 c3        1 P0L     -0.059700
     15 C9          0.0080    3.7970   -1.5590 ce        1 P0L     -0.020200
     16 C10         0.8430    4.3100   -2.5460 ce        1 P0L     -0.188100
     17 C11        -1.4260   -4.8700    1.7240 c3        1 P0L     -0.084100
     18 C12         0.5340   -5.0130    3.2870 c3        1 P0L     -0.084100
     19 C13        -1.2770    4.3090   -1.4000 cf        1 P0L     -0.134000
     20 C14        -1.7260    5.3320   -2.2290 cf        1 P0L     -0.219100
     21 H           2.3560   -2.3170    2.0200 hn        1 P0L      0.345300
     22 H1         -1.2710    6.5590   -3.7720 DU        1 P0L      0.095500
     23 H4          0.8080   -2.7060    0.3990 h1        1 P0L      0.048700
     24 H5         -0.9430    1.3380   -0.8830 h4        1 P0L     -0.017800
     25 H6          0.3200   -2.5870    3.1250 hc        1 P0L      0.053700
     26 H7         -1.0320   -2.5200    2.2610 hc        1 P0L      0.053700
     27 H8          1.5230    2.7510   -0.5910 hc        1 P0L      0.054200
     28 H9          0.2260    2.9570    0.3320 hc        1 P0L      0.054200
     29 H10         0.8790    5.7970   -4.0910 DU        1 P0L      0.095500
     30 H11         0.5750   -4.5150    1.2660 hc        1 P0L      0.047700
     31 H12         1.8120    4.2920   -2.7010 ha        1 P0L      0.195000
     32 H13        -1.1540   -4.6040    0.8180 hc        1 P0L      0.019033
     33 H14        -1.1020   -5.5780    2.3200 hc        1 P0L      0.019033
     34 H15        -1.7290   -5.6620    1.2200 hc        1 P0L      0.019033
     35 H16         0.5950   -5.9830    3.1330 hc        1 P0L      0.019033
     36 H17         1.4280   -4.6570    3.4890 hc        1 P0L      0.019033
     37 H18        -0.0670   -4.8390    4.0450 hc        1 P0L      0.019033
     38 H19        -1.8550    3.9700   -0.6830 ha        1 P0L      0.144000
     39 H20        -2.6330    5.6900   -2.1190 ha        1 P0L      0.097000
     40 OXT        -0.4770    1.1680   -3.3220 o         1 P0L     -0.838000
     41 H2          2.3930   -1.2790    0.9390 hn        1 P0L      0.345300
@<TRIPOS>BOND
     1    1    3 2   
     2    1   40 2   
     3    2    8 1   
     4    2   21 1   
     5    2   41 1   
     6    4    6 1   
     7    4    7 2   
     8    4    8 1   
     9    5   13 2   
    10    5   20 2   
    11    8   11 1   
    12    8   23 1   
    13    9   10 2   
    14    9   12 1   
    15    9   24 1   
    16   11   14 1   
    17   11   25 1   
    18   11   26 1   
    19   12   15 1   
    20   12   27 1   
    21   12   28 1   
    22   13   16 2   
    23   14   17 1   
    24   14   18 1   
    25   14   30 1   
    26   15   16 1   
    27   15   19 2   
    28   16   31 1   
    29   17   32 1   
    30   17   33 1   
    31   17   34 1   
    32   18   35 1   
    33   18   36 1   
    34   18   37 1   
    35   19   20 1   
    36   19   38 1   
    37   20   39 1   
@<TRIPOS>SUBSTRUCTURE
     1 P0L         1 TEMP              0 ****  ****    0 ROOT
