@<TRIPOS>MOLECULE
P0P
   27    25     1     0     0
SMALL
bcc


@<TRIPOS>ATOM
      1 O3         -2.2980   -0.1420    2.0660 oh        1 P0P     -0.289000
      2 N1          1.3830    0.0370    2.0720 n1        1 P0P     -0.154000
      3 C2          0.0990   -0.0420    2.5170 c1        1 P0P     -0.121000
      4 C2A        -0.1890    0.0140    3.9970 c3        1 P0P     -0.133000
      5 C3         -0.9610   -0.0950    1.5990 c2        1 P0P      0.072000
      6 C4         -0.7090   -0.0670    0.2620 c2        1 P0P     -0.110000
      7 C4A        -1.8690   -0.1250   -0.7330 c3        1 P0P      0.173000
      8 O4A        -2.7030    1.0380   -0.5640 oh        1 P0P     -0.412500
      9 O4B        -2.6450   -1.3050   -0.4940 oh        1 P0P     -0.412500
     10 C5          0.5890    0.0130   -0.1890 c1        1 P0P     -0.033000
     11 C6          1.6450    0.0660    0.7310 c1        1 P0P     -0.141000
     12 C5A         0.8810   -0.0290   -1.6890 c3        1 P0P      0.086000
     13 O4P         2.3020    0.0540   -1.9070 os        1 P0P     -0.721000
     14 P           2.8390    0.1170   -3.4110 p5        1 P0P      1.564500
     15 O1P         4.3800    0.0680   -3.4070 o         1 P0P     -0.924167
     16 O2P         2.2920   -1.0740   -4.2010 o         1 P0P     -0.924167
     17 O3P         2.3640    1.4270   -4.0730 o         1 P0P     -0.924167
     18 HO3        -2.4760    0.5780    2.4940 ho        1 P0P      0.255000
     19 H2A1       -0.8340   -0.6970    4.2340 hc        1 P0P      0.065000
     20 H2A2        0.6370   -0.1180    4.4940 hc        1 P0P      0.065000
     21 H2A3       -0.5620    0.8700    4.2170 hc        1 P0P      0.065000
     22 H4A        -1.5180   -0.1450   -1.6430 h2        1 P0P      0.201000
     23 H1         -3.1260    1.2200   -1.3380 ho        1 P0P      0.251500
     24 H4B        -3.0840   -1.5310   -1.2460 ho        1 P0P      0.251500
     25 H6          2.5880    0.0050    0.4100 ha        1 P0P      0.140000
     26 H5A1        0.5430   -0.8710   -2.0640 h1        1 P0P      0.055500
     27 H5A2        0.4340    0.7340   -2.1330 h1        1 P0P      0.055500
@<TRIPOS>BOND
     1    1    5 1   
     2    1   18 1   
     3    2   11 1   
     4    3    4 1   
     5    3    5 1   
     6    4   19 1   
     7    4   20 1   
     8    4   21 1   
     9    5    6 1   
    10    6    7 1   
    11    6   10 1   
    12    7    8 1   
    13    7    9 1   
    14    7   22 1   
    15    8   23 1   
    16    9   24 1   
    17   10   12 1   
    18   11   25 1   
    19   12   13 1   
    20   12   26 1   
    21   12   27 1   
    22   13   14 1   
    23   14   15 1   
    24   14   16 1   
    25   14   17 1   
@<TRIPOS>SUBSTRUCTURE
     1 P0P         1 TEMP              0 ****  ****    0 ROOT
