@<TRIPOS>MOLECULE
P0P
   27    27     1     0     0
SMALL
bcc


@<TRIPOS>ATOM
      1 O3         21.7970   10.5800   21.5170 oh        1 P0P     -0.536100
      2 N1         21.7360    8.8900   18.3110 nb        1 P0P     -0.677000
      3 C2         22.1670    9.4700   19.4580 ca        1 P0P      0.294600
      4 C2A        23.6210    9.5040   19.7870 c3        1 P0P     -0.108400
      5 C3         21.2500   10.0580   20.3690 ca        1 P0P      0.051800
      6 C4         19.8670   10.0780   20.0870 ca        1 P0P     -0.110300
      7 C4A        18.8990   10.7420   21.0310 c3        1 P0P      0.350200
      8 O4A        19.4650   11.9810   21.4710 oh        1 P0P     -0.685800
      9 O4B        18.7960   10.0280   22.2410 oh        1 P0P     -0.685800
     10 C5         19.4200    9.4410   18.9220 ca        1 P0P     -0.105600
     11 C6         20.4190    8.8770   18.0780 ca        1 P0P      0.310200
     12 C5A        17.9860    9.2000   18.4990 c3        1 P0P      0.249700
     13 O4P        17.0950   10.1860   18.8120 os        1 P0P     -0.562200
     14 P          15.6990    9.6590   19.7290 p5        1 P0P      1.328900
     15 O1P        16.2890    9.7830   21.1180 o         1 P0P     -0.923167
     16 O2P        14.6610   10.6700   19.3600 o         1 P0P     -0.923167
     17 O3P        15.5240    8.2510   19.2390 o         1 P0P     -0.923167
     18 HO3        21.0670   10.8620   22.0970 ho        1 P0P      0.455000
     19 H2A1       23.7730    9.1030   20.8200 hc        1 P0P      0.025033
     20 H2A2       23.9790   10.5630   19.7710 hc        1 P0P      0.025033
     21 H2A3       24.2350    8.9060   19.0710 hc        1 P0P      0.025033
     22 H4A        17.8770   10.8990   20.5510 h2        1 P0P      0.182700
     23 H1         18.8220   12.3470   22.0870 ho        1 P0P      0.448500
     24 H4B        17.8860    9.6640   22.2620 ho        1 P0P      0.448500
     25 H6         20.1130    8.3770   17.1420 h4        1 P0P      0.001100
     26 H5A1       17.6710    8.2120   18.9590 h1        1 P0P      0.021200
     27 H5A2       18.0140    9.0670   17.3710 h1        1 P0P      0.021200
@<TRIPOS>BOND
     1    1    5 1   
     2    1   18 1   
     3    2    3 ar  
     4    2   11 ar  
     5    3    4 1   
     6    3    5 ar  
     7    4   19 1   
     8    4   20 1   
     9    4   21 1   
    10    5    6 ar  
    11    6    7 1   
    12    6   10 ar  
    13    7    8 1   
    14    7    9 1   
    15    7   22 1   
    16    8   23 1   
    17    9   24 1   
    18   10   11 ar  
    19   10   12 1   
    20   11   25 1   
    21   12   13 1   
    22   12   26 1   
    23   12   27 1   
    24   13   14 1   
    25   14   15 1   
    26   14   16 1   
    27   14   17 1   
@<TRIPOS>SUBSTRUCTURE
     1 P0P         1 TEMP              0 ****  ****    0 ROOT
