@<TRIPOS>MOLECULE
P0P
   27    27     1     0     0
SMALL
bcc


@<TRIPOS>ATOM
      1 O3         -0.0450   -0.2200    0.3300 oh        1 P0P     -0.555100
      2 N1          3.5230    0.3950   -0.1470 n2        1 P0P     -0.459000
      3 C2          2.2910    0.2250    0.4120 cc        1 P0P      0.049800
      4 C2A         2.1260    0.4790    1.8770 c3        1 P0P     -0.015900
      5 C3          1.1700   -0.1410   -0.3400 cd        1 P0P     -0.083900
      6 C4          1.2510   -0.4000   -1.7620 cd        1 P0P      0.081000
      7 C4A         0.1270   -0.8010   -2.4510 c2        1 P0P     -0.123800
      8 O4A        -1.1390   -0.8660   -1.8990 oh        1 P0P     -0.532100
      9 O4B        -0.0060   -1.0900   -3.7850 oh        1 P0P     -0.532100
     10 C5          2.5670   -0.2430   -2.3150 cd        1 P0P     -0.263200
     11 C6          3.6060    0.1560   -1.4720 cc        1 P0P      0.054000
     12 C5A         2.9270   -0.5140   -3.7430 c3        1 P0P      0.247600
     13 O4P         3.5460    0.5970   -4.3380 os        1 P0P     -0.603200
     14 P           2.9290    1.1430   -5.7620 p5        1 P0P      1.433800
     15 O1P         1.4050    1.4030   -5.2140 oh        1 P0P     -0.792400
     16 O2P         3.5440    2.4630   -6.0200 o         1 P0P     -0.848000
     17 O3P         2.8950    0.0470   -6.7540 o         1 P0P     -0.848000
     18 HO3        -0.4700   -1.0350    0.0200 ho        1 P0P      0.411000
     19 H2A1        1.3010   -0.1590    2.2790 hc        1 P0P      0.017033
     20 H2A2        1.8510    1.5500    2.0430 hc        1 P0P      0.017033
     21 H2A3        3.0620    0.2630    2.4470 hc        1 P0P      0.017033
     22 H4A         1.3840    1.7270   -4.3220 ho        1 P0P      0.428000
     23 H1         -1.4980    0.0350   -1.9360 ho        1 P0P      0.362500
     24 H4B         0.0090   -0.2400   -4.2600 ho        1 P0P      0.362500
     25 H6          4.6090    0.3150   -1.9110 h4        1 P0P      0.128000
     26 H5A1        3.6790   -1.3620   -3.7480 h1        1 P0P      0.023200
     27 H5A2        2.0440   -0.8300   -4.3620 h1        1 P0P      0.023200
@<TRIPOS>BOND
     1    1    5 1   
     2    1   18 1   
     3    2    3 1   
     4    2   11 1   
     5    3    4 1   
     6    3    5 2   
     7    4   19 1   
     8    4   20 1   
     9    4   21 1   
    10    5    6 1   
    11    6    7 2   
    12    6   10 1   
    13    7    8 1   
    14    7    9 1   
    15    8   23 1   
    16    9   24 1   
    17   10   11 2   
    18   10   12 1   
    19   11   25 1   
    20   12   13 1   
    21   12   26 1   
    22   12   27 1   
    23   13   14 1   
    24   14   15 1   
    25   14   16 1   
    26   14   17 1   
    27   15   22 1   
@<TRIPOS>SUBSTRUCTURE
     1 P0P         1 TEMP              0 ****  ****    0 ROOT
