@<TRIPOS>MOLECULE
P0P
   27    27     1     0     0
SMALL
bcc


@<TRIPOS>ATOM
      1 O3          0.0250   -0.1550    0.0850 oh        1 P0P     -0.536100
      2 N1          3.6490   -0.0920    0.0740 nb        1 P0P     -0.677000
      3 C2          2.3600   -0.1650    0.4850 ca        1 P0P      0.294600
      4 C2A         2.0370   -0.3950    1.9220 c3        1 P0P     -0.108400
      5 C3          1.2890   -0.0220   -0.4370 ca        1 P0P      0.051800
      6 C4          1.5440    0.2290   -1.8030 ca        1 P0P     -0.110300
      7 C4A         0.4090    0.4250   -2.7730 c3        1 P0P      0.350200
      8 O4A        -0.5800    1.2580   -2.1600 oh        1 P0P     -0.685800
      9 O4B        -0.3070   -0.7720   -2.9700 oh        1 P0P     -0.685800
     10 C5          2.8770    0.2610   -2.2320 ca        1 P0P     -0.105600
     11 C6          3.8750    0.1020   -1.2300 ca        1 P0P      0.310200
     12 C5A         3.3810    0.3550   -3.6570 c3        1 P0P      0.249700
     13 O4P         2.6430    1.1300   -4.5050 os        1 P0P     -0.562200
     14 P           2.1110    0.3280   -5.9680 p5        1 P0P      1.328900
     15 O1P         0.8270   -0.2710   -5.4350 o         1 P0P     -0.923167
     16 O2P         1.9610    1.4630   -6.9300 o         1 P0P     -0.923167
     17 O3P         3.2210   -0.6560   -6.1990 o         1 P0P     -0.923167
     18 HO3        -0.6100   -0.1340   -0.6530 ho        1 P0P      0.455000
     19 H2A1        1.3220   -1.2510    2.0050 hc        1 P0P      0.025033
     20 H2A2        1.5360    0.5140    2.3390 hc        1 P0P      0.025033
     21 H2A3        2.9440   -0.6190    2.5330 hc        1 P0P      0.025033
     22 H4A         0.7670    0.8650   -3.7630 h2        1 P0P      0.182700
     23 H1         -1.2880    1.3290   -2.8080 ho        1 P0P      0.448500
     24 H4B        -0.1390   -1.0360   -3.9000 ho        1 P0P      0.448500
     25 H6          4.9400    0.1350   -1.5210 h4        1 P0P      0.001100
     26 H5A1        4.4340    0.7780   -3.5860 h1        1 P0P      0.021200
     27 H5A2        3.4580   -0.7080   -4.0470 h1        1 P0P      0.021200
@<TRIPOS>BOND
     1    1    5 1   
     2    1   18 1   
     3    2    3 ar  
     4    2   11 ar  
     5    3    4 1   
     6    3    5 ar  
     7    4   19 1   
     8    4   20 1   
     9    4   21 1   
    10    5    6 ar  
    11    6    7 1   
    12    6   10 ar  
    13    7    8 1   
    14    7    9 1   
    15    7   22 1   
    16    8   23 1   
    17    9   24 1   
    18   10   11 ar  
    19   10   12 1   
    20   11   25 1   
    21   12   13 1   
    22   12   26 1   
    23   12   27 1   
    24   13   14 1   
    25   14   15 1   
    26   14   16 1   
    27   14   17 1   
@<TRIPOS>SUBSTRUCTURE
     1 P0P         1 TEMP              0 ****  ****    0 ROOT
