@<TRIPOS>MOLECULE
P0Y
   57    54     1     0     0
SMALL
bcc


@<TRIPOS>ATOM
      1 N          -1.5790    1.1430   -3.8500 n3        1 P0Y     -0.335000
      2 CA1        -0.2220    0.7800   -3.6740 c3        1 P0Y     -0.016000
      3 CC          0.1810    1.0120   -2.2290 c3        1 P0Y     -0.012000
      4 O1          1.3660    0.3260   -1.9610 oh        1 P0Y     -0.357000
      5 CB1         0.6510    1.6250   -4.5860 c3        1 P0Y     -0.125000
      6 CG          0.9240    0.8620   -5.8830 c2        1 P0Y     -0.039000
      7 CD1        -0.1020    0.6600   -6.7960 c1        1 P0Y     -0.104000
      8 CD2         2.2210    0.4840   -6.2030 c2        1 P0Y     -0.137000
      9 CE1         0.1690    0.0820   -8.0280 c1        1 P0Y     -0.138250
     10 CE2         2.4910   -0.0950   -7.4370 c1        1 P0Y     -0.142000
     11 CZ          1.4650   -0.2960   -8.3480 c1        1 P0Y     -0.138250
     12 CM         -0.9220    0.5040   -1.3040 c3        1 P0Y     -0.089000
     13 N11        -0.4470    0.5100    0.0640 n3        1 P0Y     -0.256000
     14 C21        -1.5200    1.0740    0.9690 c3        1 P0Y     -0.090000
     15 C31        -1.0570    0.9470    2.4390 c3        1 P0Y     -0.133000
     16 C41        -0.6130   -0.4350    2.7930 c3        1 P0Y     -0.199000
     17 C51         0.3950   -0.9580    1.8690 c3        1 P0Y     -0.151000
     18 C61        -0.0110   -0.8520    0.4420 c3        1 P0Y     -0.054000
     19 C          -1.8990    2.4870    0.6030 c2        1 P0Y      0.341000
     20 O          -1.0560    3.4140    0.7210 o         1 P0Y     -0.569500
     21 N12        -0.8200   -1.9170    9.0990 n1        1 P0Y     -0.145000
     22 C22        -1.0840   -1.9480    7.7610 c1        1 P0Y     -0.063000
     23 C32        -0.0580   -1.7620    6.8450 c1        1 P0Y     -0.095000
     24 C42         1.2180   -1.5470    7.2850 c1        1 P0Y     -0.138250
     25 C52         1.4810   -1.5160    8.6260 c1        1 P0Y     -0.138250
     26 C62         0.4530   -1.7020    9.5390 c1        1 P0Y     -0.081000
     27 CE         -0.3320   -1.9210    5.3510 c3        1 P0Y     -0.239000
     28 S           0.1010   -0.4100    4.5020 ss        1 P0Y      0.051000
     29 H          -1.6270    1.9180   -4.3340 hn        1 P0Y      0.162000
     30 HA1        -0.1070   -0.1640   -3.8960 h1        1 P0Y      0.084000
     31 HC          0.3170    1.9680   -2.0790 h1        1 P0Y      0.131000
     32 HOR         2.0320    0.9090   -1.8740 ho        1 P0Y      0.208000
     33 HB2         1.5000    1.8200   -4.1370 hc        1 P0Y      0.098500
     34 HB3         0.1910    2.4650   -4.7930 hc        1 P0Y      0.098500
     35 HD1        -1.0040    0.9650   -6.5890 ha        1 P0Y      0.147000
     36 HD2         2.9510    0.6720   -5.5830 ha        1 P0Y      0.128000
     37 HE1        -0.5520   -0.0600   -8.6700 ha        1 P0Y      0.129750
     38 HE2         3.4050   -0.3610   -7.6620 ha        1 P0Y      0.114000
     39 HZ          1.6560   -0.7030   -9.2160 ha        1 P0Y      0.129750
     40 HM1        -1.7060    1.0860   -1.3790 h1        1 P0Y      0.082500
     41 HM2        -1.1680   -0.4090   -1.5590 h1        1 P0Y      0.082500
     42 H1         -2.3690    0.6100    0.8310 h1        1 P0Y      0.049000
     43 H31        -0.3130    1.5660    2.5890 hc        1 P0Y      0.112500
     44 H32        -1.7990    1.1990    3.0250 hc        1 P0Y      0.112500
     45 H41        -1.3880   -1.0270    2.7840 h1        1 P0Y      0.093000
     46 H51         0.5560   -1.8990    2.0810 hc        1 P0Y      0.079000
     47 H52         1.2270   -0.4590    1.9970 hc        1 P0Y      0.079000
     48 H61         0.7480   -1.1070   -0.1190 h1        1 P0Y      0.052500
     49 H62        -0.7470   -1.4750    0.2780 h1        1 P0Y      0.052500
     50 H21        -1.9870   -2.1390    7.4480 ha        1 P0Y      0.161000
     51 H42         1.9320   -1.3690    6.6440 ha        1 P0Y      0.129750
     52 H53         2.3940   -1.3610    8.9420 ha        1 P0Y      0.129750
     53 H63         0.6350   -1.6490   10.4980 ha        1 P0Y      0.150000
     54 H11         0.2040   -2.6570    4.9990 h1        1 P0Y      0.102500
     55 H2A        -1.2790   -2.1120    5.2130 h1        1 P0Y      0.102500
     56 H2         -2.0180    0.4750   -4.2970 hn        1 P0Y      0.162000
     57 OXT        -3.0780    2.7500    0.2530 o         1 P0Y     -0.569500
@<TRIPOS>BOND
     1    1    2 1   
     2    1   29 1   
     3    1   56 1   
     4    2    3 1   
     5    2    5 1   
     6    2   30 1   
     7    3    4 1   
     8    3   12 1   
     9    3   31 1   
    10    4   32 1   
    11    5    6 1   
    12    5   33 1   
    13    5   34 1   
    14    6    7 1   
    15    6    8 1   
    16    7   35 1   
    17    8   10 1   
    18    8   36 1   
    19    9   11 1   
    20    9   37 1   
    21   10   38 1   
    22   11   39 1   
    23   12   13 1   
    24   12   40 1   
    25   12   41 1   
    26   13   14 1   
    27   13   18 1   
    28   14   15 1   
    29   14   19 1   
    30   14   42 1   
    31   15   16 1   
    32   15   43 1   
    33   15   44 1   
    34   16   17 1   
    35   16   28 1   
    36   16   45 1   
    37   17   18 1   
    38   17   46 1   
    39   17   47 1   
    40   18   48 1   
    41   18   49 1   
    42   19   20 1   
    43   19   57 1   
    44   21   26 1   
    45   22   23 1   
    46   22   50 1   
    47   23   27 1   
    48   24   25 1   
    49   24   51 1   
    50   25   52 1   
    51   26   53 1   
    52   27   28 1   
    53   27   54 1   
    54   27   55 1   
@<TRIPOS>SUBSTRUCTURE
     1 P0Y         1 TEMP              0 ****  ****    0 ROOT
