@<TRIPOS>MOLECULE
P0Y
   57    59     1     0     0
SMALL
bcc


@<TRIPOS>ATOM
      1 N          -2.9200    0.1920   -0.5370 n3        1 P0Y     -0.919800
      2 CA1        -3.6490   -0.4370    0.5390 c3        1 P0Y      0.166500
      3 CC         -2.7810   -0.9480    1.7240 c3        1 P0Y      0.097100
      4 O1         -3.6150   -1.3160    2.8170 oh        1 P0Y     -0.617800
      5 CB1        -4.4900   -1.6370    0.0480 c3        1 P0Y     -0.043100
      6 CG         -5.7210   -1.2210   -0.6740 ca        1 P0Y     -0.055300
      7 CD1        -5.6480   -0.6710   -1.9610 ca        1 P0Y     -0.120500
      8 CD2        -6.9770   -1.3960   -0.0800 ca        1 P0Y     -0.120500
      9 CE1        -6.8110   -0.3050   -2.6360 ca        1 P0Y     -0.140000
     10 CE2        -8.1390   -1.0320   -0.7580 ca        1 P0Y     -0.140000
     11 CZ         -8.0590   -0.4860   -2.0390 ca        1 P0Y     -0.146000
     12 CM         -1.7680    0.1080    2.2100 c3        1 P0Y      0.129800
     13 N11        -0.5720    0.1930    1.3920 n3        1 P0Y     -0.710600
     14 C21         0.1290    1.4760    1.5240 c3        1 P0Y      0.050500
     15 C31         1.3150    1.5620    0.5520 c3        1 P0Y     -0.055400
     16 C41         2.2750    0.4130    0.7860 c3        1 P0Y      0.022400
     17 C51         1.5480   -0.9100    0.6960 c3        1 P0Y     -0.072400
     18 C61         0.3370   -0.9220    1.6300 c3        1 P0Y      0.169800
     19 C          -0.7220    2.7760    1.3040 c         1 P0Y      0.923600
     20 O          -1.8750    2.7190    0.7950 o         1 P0Y     -0.826800
     21 N12         8.1850    0.1540   -1.3540 nb        1 P0Y     -0.671000
     22 C22         7.1240    0.1780   -0.5270 ca        1 P0Y      0.403200
     23 C32         5.9390   -0.5590   -0.7500 ca        1 P0Y     -0.168600
     24 C42         5.8700   -1.3530   -1.9030 ca        1 P0Y     -0.081000
     25 C52         6.9600   -1.3840   -2.7720 ca        1 P0Y     -0.249300
     26 C62         8.0950   -0.6160   -2.4560 ca        1 P0Y      0.384200
     27 S           3.5600    0.5590   -0.4480 ss        1 P0Y     -0.315200
     28 H          -2.6410    1.1250   -0.2720 hn        1 P0Y      0.381800
     29 HA1        -4.3620    0.3340    0.9600 h1        1 P0Y      0.057700
     30 HC         -2.2780   -1.9130    1.4380 h1        1 P0Y      0.059700
     31 HOR        -4.0610   -0.5130    3.1130 ho        1 P0Y      0.397000
     32 HB2        -3.8680   -2.2870   -0.6230 hc        1 P0Y      0.047200
     33 HB3        -4.7690   -2.2490    0.9480 hc        1 P0Y      0.047200
     34 HD1        -4.6630   -0.5100   -2.4270 ha        1 P0Y      0.141000
     35 HD2        -7.0460   -1.8210    0.9330 ha        1 P0Y      0.141000
     36 HE1        -6.7430    0.1350   -3.6410 ha        1 P0Y      0.119000
     37 HE2        -9.1190   -1.1710   -0.2800 ha        1 P0Y      0.119000
     38 HZ         -8.9740   -0.1950   -2.5730 ha        1 P0Y      0.116000
     39 HM1        -2.2830    1.1140    2.1910 h1        1 P0Y      0.058700
     40 HM2        -1.5240   -0.1380    3.2870 h1        1 P0Y      0.058700
     41 H1          0.5460    1.5660    2.5760 h1        1 P0Y      0.013700
     42 H31         0.9420    1.5450   -0.5040 hc        1 P0Y      0.073200
     43 H32         1.8230    2.5460    0.7290 hc        1 P0Y      0.073200
     44 H41         2.7430    0.5140    1.7990 h1        1 P0Y      0.057700
     45 H51         1.2120   -1.0830   -0.3600 hc        1 P0Y      0.039700
     46 H52         2.2280   -1.7520    0.9850 hc        1 P0Y      0.039700
     47 H61         0.7140   -0.9370    2.6970 h1        1 P0Y      0.015200
     48 H62        -0.2260   -1.8830    1.4640 h1        1 P0Y      0.015200
     49 H42         4.9600   -1.9320   -2.1210 ha        1 P0Y      0.147000
     50 H53         6.9350   -1.9890   -3.6870 ha        1 P0Y      0.137000
     51 H63         8.9790   -0.6130   -3.1170 h4        1 P0Y      0.013100
     52 H2         -2.1010   -0.3380   -0.7590 hn        1 P0Y      0.381800
     53 OXT        -0.1610    3.8390    1.6820 o         1 P0Y     -0.826800
     54 CE          4.8210   -0.5010    0.2110 c3        1 P0Y      0.031000
     55 H11         4.4010   -1.5250    0.3840 h1        1 P0Y      0.063700
     56 H2A         5.1640   -0.1080    1.2010 h1        1 P0Y      0.063700
     57 H21         7.2200    0.8280    0.3620 h4        1 P0Y      0.025100
@<TRIPOS>BOND
     1    1    2 1   
     2    1   28 1   
     3    1   52 1   
     4    2    3 1   
     5    2    5 1   
     6    2   29 1   
     7    3    4 1   
     8    3   12 1   
     9    3   30 1   
    10    4   31 1   
    11    5    6 1   
    12    5   32 1   
    13    5   33 1   
    14    6    7 ar  
    15    6    8 ar  
    16    7    9 ar  
    17    7   34 1   
    18    8   10 ar  
    19    8   35 1   
    20    9   11 ar  
    21    9   36 1   
    22   10   11 ar  
    23   10   37 1   
    24   11   38 1   
    25   12   13 1   
    26   12   39 1   
    27   12   40 1   
    28   13   14 1   
    29   13   18 1   
    30   14   15 1   
    31   14   19 1   
    32   14   41 1   
    33   15   16 1   
    34   15   42 1   
    35   15   43 1   
    36   16   17 1   
    37   16   27 1   
    38   16   44 1   
    39   17   18 1   
    40   17   45 1   
    41   17   46 1   
    42   18   47 1   
    43   18   48 1   
    44   19   20 1   
    45   19   53 1   
    46   21   22 ar  
    47   21   26 ar  
    48   22   23 ar  
    49   22   57 1   
    50   23   24 ar  
    51   23   54 1   
    52   24   25 ar  
    53   24   49 1   
    54   25   26 ar  
    55   25   50 1   
    56   26   51 1   
    57   27   54 1   
    58   54   55 1   
    59   54   56 1   
@<TRIPOS>SUBSTRUCTURE
     1 P0Y         1 TEMP              0 ****  ****    0 ROOT
