@<TRIPOS>MOLECULE
P10
   64    66     1     0     0
SMALL
bcc


@<TRIPOS>ATOM
      1 C12        -3.9930    0.8050    2.3990 c         1 P10      0.513100
      2 C2         -4.7080    2.0940    2.7170 c3        1 P10      0.033400
      3 O1         -5.8080    1.9110    3.5800 oh        1 P10     -0.584800
      4 O13        -4.1150   -0.1940    3.1140 o         1 P10     -0.527100
      5 C14        -3.1100    0.8410    1.1490 c3        1 P10      0.006700
      6 C15        -3.9980    0.4370   -0.0410 c3        1 P10     -0.083400
      7 C16        -3.3200    0.7190   -1.3680 c3        1 P10     -0.036100
      8 C17        -4.2280    0.4150   -2.5090 ca        1 P10     -0.085300
      9 C18        -4.8560    1.4500   -3.2120 ca        1 P10     -0.126000
     10 C19        -5.6970    1.1600   -4.2850 ca        1 P10     -0.127000
     11 C20        -5.9180   -0.1640   -4.6650 ca        1 P10     -0.129000
     12 C21        -5.2920   -1.1990   -3.9690 ca        1 P10     -0.127000
     13 C22        -4.4500   -0.9110   -2.8970 ca        1 P10     -0.126000
     14 N23        -1.9330    0.0200    1.2850 n         1 P10     -0.550900
     15 C24        -0.6740    0.5500    1.4460 c         1 P10      0.627100
     16 O25        -0.4620    1.7790    1.4030 o         1 P10     -0.613100
     17 C26         0.4920   -0.4480    1.6840 c3        1 P10      0.043700
     18 C27         0.7520   -0.4400    3.2040 c3        1 P10     -0.038100
     19 C28         1.7310   -1.4810    3.6120 ca        1 P10     -0.083300
     20 C29         3.0150   -1.1190    4.0350 ca        1 P10     -0.119000
     21 C30         3.9240   -2.0980    4.4360 ca        1 P10     -0.126500
     22 C31         3.5590   -3.4430    4.4160 ca        1 P10     -0.125000
     23 C32         2.2800   -3.8100    3.9960 ca        1 P10     -0.126500
     24 C33         1.3690   -2.8340    3.5970 ca        1 P10     -0.119000
     25 N34         1.6590   -0.0820    0.9190 n         1 P10     -0.505900
     26 C35         1.8760   -0.6890   -0.3070 c         1 P10      0.735100
     27 O36         1.3580   -1.7270   -0.7530 o         1 P10     -0.586000
     28 O37         2.8420   -0.0470   -1.0540 os        1 P10     -0.437900
     29 C38         3.2020   -0.7250   -2.2770 c3        1 P10      0.201700
     30 C39         4.2480    0.0920   -2.9460 ca        1 P10     -0.213600
     31 C40         5.1950    0.8330   -2.2290 ca        1 P10     -0.067000
     32 C41         6.1660    1.5470   -2.9320 ca        1 P10     -0.248300
     33 C42         6.1560    1.4920   -4.3370 ca        1 P10      0.397200
     34 N43         5.2530    0.7860   -5.0460 nb        1 P10     -0.663000
     35 C44         4.3190    0.1060   -4.3570 ca        1 P10      0.404200
     36 H021       -5.1380    2.5530    1.7850 h1        1 P10      0.075200
     37 H022       -3.9690    2.8060    3.1790 h1        1 P10      0.075200
     38 H01        -5.5450    1.2740    4.2610 ho        1 P10      0.420000
     39 H14        -2.7670    1.9120    0.9960 h1        1 P10      0.105700
     40 H151       -4.2650   -0.6500    0.0260 hc        1 P10      0.060200
     41 H152       -4.9520    1.0240    0.0250 hc        1 P10      0.060200
     42 H161       -3.0020    1.7950   -1.4050 hc        1 P10      0.057700
     43 H162       -2.3900    0.0950   -1.4590 hc        1 P10      0.057700
     44 H18        -4.6830    2.4960   -2.9180 ha        1 P10      0.131500
     45 H19        -6.1870    1.9780   -4.8330 ha        1 P10      0.132500
     46 H20        -6.5810   -0.3910   -5.5120 ha        1 P10      0.132000
     47 H21        -5.4620   -2.2440   -4.2680 ha        1 P10      0.132500
     48 H22        -3.9540   -1.7280   -2.3520 ha        1 P10      0.131500
     49 H23        -2.0790   -0.9560    1.4020 hn        1 P10      0.326500
     50 H26         0.1920   -1.4960    1.3740 h1        1 P10      0.104700
     51 H271        1.1030    0.5790    3.5200 hc        1 P10      0.066700
     52 H272       -0.2320   -0.6330    3.7120 hc        1 P10      0.066700
     53 H29         3.3090   -0.0590    4.0510 ha        1 P10      0.130500
     54 H30         4.9310   -1.8060    4.7670 ha        1 P10      0.133500
     55 H31         4.2770   -4.2140    4.7310 ha        1 P10      0.133000
     56 H32         1.9890   -4.8700    3.9790 ha        1 P10      0.133500
     57 H33         0.3610   -3.1260    3.2670 ha        1 P10      0.130500
     58 H34         1.9940    0.8510    1.0340 hn        1 P10      0.334500
     59 H381        3.5910   -1.7460   -2.0160 h1        1 P10      0.068200
     60 H382        2.2820   -0.8300   -2.9120 h1        1 P10      0.068200
     61 H40         5.1610    0.8510   -1.1300 ha        1 P10      0.151000
     62 H41         6.9230    2.1410   -2.4040 ha        1 P10      0.145000
     63 H42         6.9080    2.0410   -4.9320 h4        1 P10      0.023100
     64 H44         3.5880   -0.4580   -4.9640 h4        1 P10      0.024100
@<TRIPOS>BOND
     1    1    2 1   
     2    1    4 2   
     3    1    5 1   
     4    2    3 1   
     5    2   36 1   
     6    2   37 1   
     7    3   38 1   
     8    5    6 1   
     9    5   14 1   
    10    5   39 1   
    11    6    7 1   
    12    6   40 1   
    13    6   41 1   
    14    7    8 1   
    15    7   42 1   
    16    7   43 1   
    17    8    9 ar  
    18    8   13 ar  
    19    9   10 ar  
    20    9   44 1   
    21   10   11 ar  
    22   10   45 1   
    23   11   12 ar  
    24   11   46 1   
    25   12   13 ar  
    26   12   47 1   
    27   13   48 1   
    28   14   15 1   
    29   14   49 1   
    30   15   16 2   
    31   15   17 1   
    32   17   18 1   
    33   17   25 1   
    34   17   50 1   
    35   18   19 1   
    36   18   51 1   
    37   18   52 1   
    38   19   20 ar  
    39   19   24 ar  
    40   20   21 ar  
    41   20   53 1   
    42   21   22 ar  
    43   21   54 1   
    44   22   23 ar  
    45   22   55 1   
    46   23   24 ar  
    47   23   56 1   
    48   24   57 1   
    49   25   26 1   
    50   25   58 1   
    51   26   27 2   
    52   26   28 1   
    53   28   29 1   
    54   29   30 1   
    55   29   59 1   
    56   29   60 1   
    57   30   31 ar  
    58   30   35 ar  
    59   31   32 ar  
    60   31   61 1   
    61   32   33 ar  
    62   32   62 1   
    63   33   34 ar  
    64   33   63 1   
    65   34   35 ar  
    66   35   64 1   
@<TRIPOS>SUBSTRUCTURE
     1 P10         1 TEMP              0 ****  ****    0 ROOT
