@<TRIPOS>MOLECULE
P10
   66    68     1     0     0
SMALL
bcc


@<TRIPOS>ATOM
      1 C12         1.7620    2.6030    0.3290 c         1 P10      0.533100
      2 C2          0.8640    2.5220    1.5440 c3        1 P10      0.057400
      3 O1         -0.0920    3.5460    1.4780 oh        1 P10     -0.557800
      4 O13         2.1360    3.6640   -0.1770 o         1 P10     -0.540100
      5 C14         2.1610    1.2630   -0.2980 c3        1 P10      0.010500
      6 C15         3.0550    0.4890    0.6780 c3        1 P10     -0.111400
      7 C16         3.3340   -0.9340    0.2240 c3        1 P10     -0.033100
      8 C17         3.9350   -1.7210    1.3360 ca        1 P10     -0.134300
      9 C18         3.1630   -2.6530    2.0370 ca        1 P10     -0.119500
     10 C19         3.7360   -3.4020    3.0650 ca        1 P10     -0.113500
     11 C20         5.0790   -3.2240    3.3960 ca        1 P10     -0.095000
     12 C21         5.8530   -2.2970    2.6960 ca        1 P10     -0.113500
     13 C22         5.2840   -1.5480    1.6680 ca        1 P10     -0.119500
     14 N23         2.8520    1.4440   -1.6360 n4        1 P10     -0.654800
     15 C24         1.9140    1.7940   -2.7420 c         1 P10      0.518100
     16 O25         1.3470    0.8830   -3.3260 o         1 P10     -0.374100
     17 C26         1.7310    3.2780   -3.0900 c3        1 P10      0.066500
     18 C27         0.2390    3.6490   -2.9190 c3        1 P10     -0.037100
     19 C28        -0.0230    5.0080   -3.4550 ca        1 P10     -0.196300
     20 C29        -0.5100    5.1640   -4.7630 ca        1 P10     -0.127500
     21 C30        -0.8180    6.4340   -5.2450 ca        1 P10     -0.108000
     22 C31        -0.6450    7.5550   -4.4290 ca        1 P10     -0.076000
     23 C32        -0.1640    7.4030   -3.1280 ca        1 P10     -0.108000
     24 C33         0.1450    6.1330   -2.6390 ca        1 P10     -0.127500
     25 N34         2.1930    3.5340   -4.4960 n4        1 P10     -0.656800
     26 C35         3.6850    3.3690   -4.6320 c         1 P10      0.652100
     27 O36         4.3090    2.7750   -3.7540 o         1 P10     -0.516000
     28 O37         4.1390    3.9410   -5.7360 os        1 P10     -0.381900
     29 C38         5.5780    3.7470   -6.0850 c3        1 P10      0.234700
     30 C39         5.7930    2.4110   -6.6610 ca        1 P10     -0.325600
     31 C40         5.7230    2.1900   -8.0470 ca        1 P10     -0.037000
     32 C41         5.9960    0.9150   -8.5400 ca        1 P10     -0.235300
     33 C42         6.3240   -0.1080   -7.6260 ca        1 P10      0.454200
     34 N43         6.3910    0.0860   -6.2920 nb        1 P10     -0.656000
     35 C44         6.1450    1.3220   -5.8310 ca        1 P10      0.425200
     36 H021        1.5030    2.5770    2.4680 h1        1 P10      0.105700
     37 H022        0.2760    1.5610    1.5450 h1        1 P10      0.105700
     38 H01         0.2960    4.3530    1.8490 ho        1 P10      0.437000
     39 H14         1.2220    0.6590   -0.5000 hx        1 P10      0.139700
     40 H151        2.5060    0.4560    1.6620 hc        1 P10      0.101700
     41 H152        4.0200    1.0340    0.8550 hc        1 P10      0.101700
     42 H161        4.0470   -0.9360   -0.6440 hc        1 P10      0.047700
     43 H162        2.3800   -1.4210   -0.1150 hc        1 P10      0.047700
     44 H18         2.1060   -2.8080    1.7750 ha        1 P10      0.126000
     45 H19         3.1260   -4.1390    3.6110 ha        1 P10      0.154500
     46 H20         5.5310   -3.8190    4.2060 ha        1 P10      0.159000
     47 H21         6.9160   -2.1610    2.9520 ha        1 P10      0.154500
     48 H22         5.9010   -0.8270    1.1120 ha        1 P10      0.126000
     49 H23         3.5690    2.1820   -1.5490 hn        1 P10      0.488300
     50 H26         2.3460    3.9480   -2.4050 hx        1 P10      0.167700
     51 H271        0.0220    3.6170   -1.8140 hc        1 P10      0.106700
     52 H272       -0.4080    2.8840   -3.4280 hc        1 P10      0.106700
     53 H29        -0.7050    4.2820   -5.3910 ha        1 P10      0.139500
     54 H30        -1.2200    6.5530   -6.2660 ha        1 P10      0.169000
     55 H31        -0.9050    8.5580   -4.8090 ha        1 P10      0.174000
     56 H32        -0.0430    8.2860   -2.4780 ha        1 P10      0.169000
     57 H33         0.5000    6.0170   -1.6030 ha        1 P10      0.139500
     58 H34         1.7220    2.8950   -5.1540 hn        1 P10      0.501800
     59 H381        5.6880    4.5830   -6.8330 h1        1 P10      0.114200
     60 H382        6.1750    3.9300   -5.1560 h1        1 P10      0.114200
     61 H40         5.4710    3.0130   -8.7340 ha        1 P10      0.158000
     62 H41         5.9690    0.7060   -9.6200 ha        1 P10      0.180000
     63 H42         6.5520   -1.1350   -7.9760 h4        1 P10      0.058100
     64 H44         6.2420    1.4600   -4.7370 h4        1 P10      0.021100
     65 H232        3.3220    0.5510   -1.8680 hn        1 P10      0.488300
     66 H342        1.9140    4.5060   -4.7530 hn        1 P10      0.501800
@<TRIPOS>BOND
     1    1    2 1   
     2    1    4 2   
     3    1    5 1   
     4    2    3 1   
     5    2   36 1   
     6    2   37 1   
     7    3   38 1   
     8    5    6 1   
     9    5   14 1   
    10    5   39 1   
    11    6    7 1   
    12    6   40 1   
    13    6   41 1   
    14    7    8 1   
    15    7   42 1   
    16    7   43 1   
    17    8    9 ar  
    18    8   13 ar  
    19    9   10 ar  
    20    9   44 1   
    21   10   11 ar  
    22   10   45 1   
    23   11   12 ar  
    24   11   46 1   
    25   12   13 ar  
    26   12   47 1   
    27   13   48 1   
    28   14   15 1   
    29   14   49 1   
    30   14   65 1   
    31   15   16 2   
    32   15   17 1   
    33   17   18 1   
    34   17   25 1   
    35   17   50 1   
    36   18   19 1   
    37   18   51 1   
    38   18   52 1   
    39   19   20 ar  
    40   19   24 ar  
    41   20   21 ar  
    42   20   53 1   
    43   21   22 ar  
    44   21   54 1   
    45   22   23 ar  
    46   22   55 1   
    47   23   24 ar  
    48   23   56 1   
    49   24   57 1   
    50   25   26 1   
    51   25   58 1   
    52   25   66 1   
    53   26   27 2   
    54   26   28 1   
    55   28   29 1   
    56   29   30 1   
    57   29   59 1   
    58   29   60 1   
    59   30   31 ar  
    60   30   35 ar  
    61   31   32 ar  
    62   31   61 1   
    63   32   33 ar  
    64   32   62 1   
    65   33   34 ar  
    66   33   63 1   
    67   34   35 ar  
    68   35   64 1   
@<TRIPOS>SUBSTRUCTURE
     1 P10         1 TEMP              0 ****  ****    0 ROOT
