@<TRIPOS>MOLECULE
P10
   64    59     1     0     0
SMALL
bcc


@<TRIPOS>ATOM
      1 C12        -2.7630   -1.8050    0.8780 c1        1 P10      0.179000
      2 C2         -3.2430   -3.2270    0.5730 c2        1 P10     -0.068000
      3 O1         -4.1390   -3.1950   -0.4990 oh        1 P10     -0.313000
      4 O13        -3.3850   -0.8480    0.4500 o         1 P10     -0.287000
      5 C14        -1.6140   -1.5940    1.7870 c3        1 P10     -0.017000
      6 C15        -2.1300   -1.1930    3.1910 c3        1 P10     -0.170000
      7 C16        -2.0150   -2.4090    4.1510 c3        1 P10     -0.126000
      8 C17        -2.7610   -2.1070    5.4540 c2        1 P10     -0.078000
      9 C18        -4.0680   -2.5780    5.6350 c2        1 P10     -0.122000
     10 C19        -4.7910   -2.2130    6.7690 c1        1 P10     -0.127000
     11 C20        -4.2180   -1.3840    7.7230 c1        1 P10     -0.127000
     12 C21        -2.9070   -0.9100    7.5450 c1        1 P10     -0.127000
     13 C22        -2.1830   -1.2740    6.4100 c1        1 P10     -0.126000
     14 N23        -0.7720   -0.5440    1.2680 n         1 P10     -0.368000
     15 C24        -0.2810   -0.6110   -0.1090 c2        1 P10      0.272000
     16 O25        -0.2020   -1.6820   -0.6720 o         1 P10     -0.373000
     17 C26         0.2610    0.6410   -0.7800 c3        1 P10      0.016000
     18 C27        -0.8900    1.5580   -1.1550 c3        1 P10     -0.122000
     19 C28        -0.3340    2.8780   -1.6910 c2        1 P10     -0.081000
     20 C29        -0.6090    3.2700   -3.0010 c2        1 P10     -0.109000
     21 C30        -0.2070    4.5250   -3.4520 c1        1 P10     -0.128000
     22 C31         0.4690    5.3920   -2.5920 c1        1 P10     -0.127000
     23 C32         0.7440    5.0000   -1.2810 c1        1 P10     -0.127000
     24 C33         0.3430    3.7470   -0.8310 c1        1 P10     -0.124000
     25 N34         0.9880    0.2770   -1.9590 n         1 P10     -0.315000
     26 C35         2.4350    0.2150   -1.9270 c2        1 P10      0.390000
     27 O36         3.0180    0.0520   -0.8610 o         1 P10     -0.405000
     28 O37         3.1670    0.3350   -3.1130 os        1 P10     -0.270000
     29 C38         4.4570   -0.2810   -3.0650 c3        1 P10      0.043000
     30 C39         5.1700   -0.0930   -4.4370 c2        1 P10     -0.174000
     31 C40         5.6760    1.1320   -4.7800 c2        1 P10     -0.067000
     32 C41         6.2030    1.3290   -6.0250 c1        1 P10     -0.186000
     33 C42         6.2270    0.2950   -6.9370 c1        1 P10     -0.062000
     34 N43         5.7250   -0.9240   -6.5970 n1        1 P10     -0.144000
     35 C44         5.1950   -1.1250   -5.3480 c1        1 P10     -0.049000
     36 H021       -3.6930   -3.6010    1.3670 h4        1 P10      0.115500
     37 H022       -2.4650   -3.7930    0.3370 h4        1 P10      0.115500
     38 H01        -4.5390   -3.9960   -0.5800 ho        1 P10      0.218000
     39 H14        -1.0860   -2.4400    1.8570 h1        1 P10      0.143000
     40 H151       -1.5920   -0.4530    3.5370 hc        1 P10      0.104500
     41 H152       -3.0840   -0.9090    3.1260 hc        1 P10      0.104500
     42 H161       -2.4090   -3.2010    3.7250 hc        1 P10      0.092000
     43 H162       -1.0650   -2.5820    4.3490 hc        1 P10      0.092000
     44 H18        -4.4740   -3.1640    4.9630 ha        1 P10      0.135000
     45 H19        -5.7150   -2.5480    6.8950 ha        1 P10      0.133000
     46 H20        -4.7300   -1.1280    8.5230 ha        1 P10      0.132500
     47 H21        -2.5040   -0.3250    8.2170 ha        1 P10      0.132500
     48 H22        -1.2700   -0.9450    6.2850 ha        1 P10      0.132000
     49 H23        -0.5050    0.1280    1.8080 hn        1 P10      0.242000
     50 H26         0.8700    1.1180   -0.1480 h1        1 P10      0.145000
     51 H271       -1.4410    1.7330   -0.3580 hc        1 P10      0.105000
     52 H272       -1.4370    1.1320   -1.8410 hc        1 P10      0.105000
     53 H29        -1.0880    2.6550   -3.6120 ha        1 P10      0.135000
     54 H30        -0.4010    4.8020   -4.3780 ha        1 P10      0.134000
     55 H31         0.7520    6.2750   -2.9090 ha        1 P10      0.132500
     56 H32         1.2230    5.6140   -0.6720 ha        1 P10      0.132500
     57 H33         0.5370    3.4710    0.0930 ha        1 P10      0.129000
     58 H34         0.5320    0.0860   -2.7460 hn        1 P10      0.248000
     59 H381        4.9950    0.1380   -2.3550 h1        1 P10      0.116500
     60 H382        4.3550   -1.2470   -2.8750 h1        1 P10      0.116500
     61 H40         5.6590    1.8730   -4.1270 ha        1 P10      0.164000
     62 H41         6.5680    2.2140   -6.2730 ha        1 P10      0.146000
     63 H42         6.6040    0.4370   -7.8240 ha        1 P10      0.159000
     64 H44         4.8360   -1.9950   -5.1070 ha        1 P10      0.160000
@<TRIPOS>BOND
     1    1    4 1   
     2    1    5 1   
     3    2    3 1   
     4    2   36 1   
     5    2   37 1   
     6    3   38 1   
     7    5    6 1   
     8    5   14 1   
     9    5   39 1   
    10    6    7 1   
    11    6   40 1   
    12    6   41 1   
    13    7    8 1   
    14    7   42 1   
    15    7   43 1   
    16    8    9 1   
    17    8   13 1   
    18    9   10 1   
    19    9   44 1   
    20   10   45 1   
    21   11   12 1   
    22   11   46 1   
    23   12   47 1   
    24   13   48 1   
    25   14   15 1   
    26   14   49 1   
    27   15   16 1   
    28   15   17 1   
    29   17   18 1   
    30   17   25 1   
    31   17   50 1   
    32   18   19 1   
    33   18   51 1   
    34   18   52 1   
    35   19   20 1   
    36   19   24 1   
    37   20   21 1   
    38   20   53 1   
    39   21   54 1   
    40   22   23 1   
    41   22   55 1   
    42   23   56 1   
    43   24   57 1   
    44   25   26 1   
    45   25   58 1   
    46   26   27 1   
    47   26   28 1   
    48   28   29 1   
    49   29   30 1   
    50   29   59 1   
    51   29   60 1   
    52   30   31 1   
    53   30   35 1   
    54   31   32 1   
    55   31   61 1   
    56   32   62 1   
    57   33   34 1   
    58   33   63 1   
    59   35   64 1   
@<TRIPOS>SUBSTRUCTURE
     1 P10         1 TEMP              0 ****  ****    0 ROOT
