@<TRIPOS>MOLECULE
P10
   66    68     1     0     0
SMALL
bcc


@<TRIPOS>ATOM
      1 C12         1.6730    2.5720    0.2970 c         1 P10      0.533100
      2 C2          0.7520    2.4580    1.4920 c3        1 P10      0.057400
      3 O1         -0.2510    3.4340    1.3940 oh        1 P10     -0.557800
      4 O13         2.0070    3.6460   -0.2110 o         1 P10     -0.540100
      5 C14         2.1520    1.2480   -0.3070 c3        1 P10      0.010500
      6 C15         3.0600    0.5280    0.6970 c3        1 P10     -0.111400
      7 C16         3.4200   -0.8820    0.2640 c3        1 P10     -0.033100
      8 C17         4.0340   -1.6290    1.3970 ca        1 P10     -0.134300
      9 C18         3.2950   -2.5940    2.0880 ca        1 P10     -0.119500
     10 C19         3.8810   -3.3040    3.1360 ca        1 P10     -0.113500
     11 C20         5.2050   -3.0540    3.4970 ca        1 P10     -0.095000
     12 C21         5.9460   -2.0940    2.8070 ca        1 P10     -0.113500
     13 C22         5.3640   -1.3830    1.7590 ca        1 P10     -0.119500
     14 N23         2.8630    1.4500   -1.6310 ny        1 P10     -0.654800
     15 C24         1.9340    1.7460   -2.7600 c         1 P10      0.518100
     16 O25         1.4240    0.8030   -3.3470 o         1 P10     -0.374100
     17 C26         1.6900    3.2160   -3.1270 c3        1 P10      0.066500
     18 C27         0.1780    3.5170   -2.9930 c3        1 P10     -0.037100
     19 C28        -0.1350    4.8580   -3.5480 ca        1 P10     -0.196300
     20 C29        -0.6000    4.9800   -4.8670 ca        1 P10     -0.127500
     21 C30        -0.9570    6.2290   -5.3690 ca        1 P10     -0.108000
     22 C31        -0.8540    7.3640   -4.5590 ca        1 P10     -0.076000
     23 C32        -0.3940    7.2460   -3.2470 ca        1 P10     -0.108000
     24 C33        -0.0370    5.9970   -2.7400 ca        1 P10     -0.127500
     25 N34         2.1700    3.4800   -4.5260 ny        1 P10     -0.656800
     26 C35         3.6710    3.3850   -4.6280 c         1 P10      0.652100
     27 O36         4.3020    2.8290   -3.7300 o         1 P10     -0.516000
     28 O37         4.1220    3.9660   -5.7290 os        1 P10     -0.381900
     29 C38         5.5750    3.8360   -6.0450 c3        1 P10      0.234700
     30 C39         5.8650    2.5060   -6.6010 ca        1 P10     -0.325600
     31 C40         5.8360    2.2670   -7.9850 ca        1 P10     -0.037000
     32 C41         6.1800    1.0020   -8.4570 ca        1 P10     -0.235300
     33 C42         6.5350    0.0050   -7.5250 ca        1 P10      0.454200
     34 N43         6.5640    0.2150   -6.1920 nb        1 P10     -0.656000
     35 C44         6.2500    1.4440   -5.7500 ca        1 P10      0.425200
     36 H021        1.3660    2.5540    2.4300 h1        1 P10      0.105700
     37 H022        0.2130    1.4700    1.4900 h1        1 P10      0.105700
     38 H01         0.0880    4.2620    1.7650 ho        1 P10      0.437000
     39 H14         1.2480    0.5970   -0.5230 hx        1 P10      0.139700
     40 H151        2.4910    0.4770    1.6690 hc        1 P10      0.101700
     41 H152        3.9930    1.1220    0.8900 hc        1 P10      0.101700
     42 H161        4.1520   -0.8570   -0.5880 hc        1 P10      0.047700
     43 H162        2.4990   -1.4190   -0.0910 hc        1 P10      0.047700
     44 H18         2.2530   -2.8050    1.8030 ha        1 P10      0.126000
     45 H19         3.2960   -4.0670    3.6750 ha        1 P10      0.154500
     46 H20         5.6670   -3.6190    4.3230 ha        1 P10      0.159000
     47 H21         6.9940   -1.9010    3.0870 ha        1 P10      0.154500
     48 H22         5.9560   -0.6360    1.2110 ha        1 P10      0.126000
     49 H23         3.3810    0.5790   -1.8440 hn        1 P10      0.488300
     50 H26         2.2570    3.9210   -2.4370 hx        1 P10      0.167700
     51 H271       -0.4210    2.7180   -3.5090 hc        1 P10      0.106700
     52 H272       -0.0620    3.4850   -1.8930 hc        1 P10      0.106700
     53 H29        -0.7400    4.0840   -5.4910 ha        1 P10      0.139500
     54 H30        -1.3410    6.3200   -6.3980 ha        1 P10      0.169000
     55 H31        -1.1510    8.3510   -4.9550 ha        1 P10      0.174000
     56 H32        -0.3280    8.1390   -2.6030 ha        1 P10      0.169000
     57 H33         0.3000    5.9060   -1.6950 ha        1 P10      0.139500
     58 H34         1.8510    4.4350   -4.7990 hn        1 P10      0.501800
     59 H381        6.1430    4.0570   -5.1050 h1        1 P10      0.114200
     60 H382        5.6630    4.6690   -6.8000 h1        1 P10      0.114200
     61 H40         5.5610    3.0710   -8.6870 ha        1 P10      0.158000
     62 H41         6.1860    0.7800   -9.5350 ha        1 P10      0.180000
     63 H42         6.8180   -1.0140   -7.8580 h4        1 P10      0.058100
     64 H44         6.3170    1.5970   -4.6570 h4        1 P10      0.021100
     65 H232        3.5410    2.2230   -1.5350 hn        1 P10      0.488300
     66 H342        1.7440    2.8130   -5.1870 hn        1 P10      0.501800
@<TRIPOS>BOND
     1    1    2 1   
     2    1    4 2   
     3    1    5 1   
     4    2    3 1   
     5    2   36 1   
     6    2   37 1   
     7    3   38 1   
     8    5    6 1   
     9    5   14 1   
    10    5   39 1   
    11    6    7 1   
    12    6   40 1   
    13    6   41 1   
    14    7    8 1   
    15    7   42 1   
    16    7   43 1   
    17    8    9 ar  
    18    8   13 ar  
    19    9   10 ar  
    20    9   44 1   
    21   10   11 ar  
    22   10   45 1   
    23   11   12 ar  
    24   11   46 1   
    25   12   13 ar  
    26   12   47 1   
    27   13   48 1   
    28   14   15 1   
    29   14   49 1   
    30   14   65 1   
    31   15   16 2   
    32   15   17 1   
    33   17   18 1   
    34   17   25 1   
    35   17   50 1   
    36   18   19 1   
    37   18   51 1   
    38   18   52 1   
    39   19   20 ar  
    40   19   24 ar  
    41   20   21 ar  
    42   20   53 1   
    43   21   22 ar  
    44   21   54 1   
    45   22   23 ar  
    46   22   55 1   
    47   23   24 ar  
    48   23   56 1   
    49   24   57 1   
    50   25   26 1   
    51   25   58 1   
    52   25   66 1   
    53   26   27 2   
    54   26   28 1   
    55   28   29 1   
    56   29   30 1   
    57   29   59 1   
    58   29   60 1   
    59   30   31 ar  
    60   30   35 ar  
    61   31   32 ar  
    62   31   61 1   
    63   32   33 ar  
    64   32   62 1   
    65   33   34 ar  
    66   33   63 1   
    67   34   35 ar  
    68   35   64 1   
@<TRIPOS>SUBSTRUCTURE
     1 P10         1 TEMP              0 ****  ****    0 ROOT
