@<TRIPOS>MOLECULE
P10
   66    68     1     0     0
SMALL
bcc


@<TRIPOS>ATOM
      1 C12         1.7580    2.6050    0.3290 c         1 P10      0.533100
      2 C2          0.8690    2.5150    1.5490 c3        1 P10      0.057400
      3 O1         -0.1120    3.5160    1.4780 oh        1 P10     -0.556800
      4 O13         2.1040    3.6700   -0.1910 o         1 P10     -0.540100
      5 C14         2.1870    1.2680   -0.2870 c3        1 P10      0.010500
      6 C15         3.1030    0.5270    0.6930 c3        1 P10     -0.111400
      7 C16         3.4150   -0.8930    0.2520 c3        1 P10     -0.033100
      8 C17         4.0420   -1.6540    1.3690 ca        1 P10     -0.134300
      9 C18         3.2970   -2.5990    2.0820 ca        1 P10     -0.119500
     10 C19         3.8930   -3.3230    3.1140 ca        1 P10     -0.113500
     11 C20         5.2330   -3.1070    3.4380 ca        1 P10     -0.095000
     12 C21         5.9790   -2.1660    2.7260 ca        1 P10     -0.113500
     13 C22         5.3870   -1.4420    1.6940 ca        1 P10     -0.119500
     14 N23         2.8660    1.4520   -1.6290 n4        1 P10     -0.654800
     15 C24         1.9140    1.7700   -2.7340 c         1 P10      0.518100
     16 O25         1.3640    0.8390   -3.3040 o         1 P10     -0.374100
     17 C26         1.6980    3.2450   -3.0970 c3        1 P10      0.066500
     18 C27         0.1980    3.5850   -2.9230 c3        1 P10     -0.037100
     19 C28        -0.0970    4.9320   -3.4730 ca        1 P10     -0.196300
     20 C29        -0.5920    5.0630   -4.7800 ca        1 P10     -0.127500
     21 C30        -0.9310    6.3190   -5.2750 ca        1 P10     -0.108000
     22 C31        -0.7790    7.4530   -4.4710 ca        1 P10     -0.076000
     23 C32        -0.2880    7.3260   -3.1710 ca        1 P10     -0.108000
     24 C33         0.0510    6.0690   -2.6700 ca        1 P10     -0.127500
     25 N34         2.1470    3.4960   -4.5090 n4        1 P10     -0.656800
     26 C35         3.6410    3.3610   -4.6510 c         1 P10      0.652100
     27 O36         4.2820    2.7920   -3.7690 o         1 P10     -0.516000
     28 O37         4.0770    3.9300   -5.7640 os        1 P10     -0.381900
     29 C38         5.5180    3.7630   -6.1180 c3        1 P10      0.234700
     30 C39         5.7600    2.4250   -6.6790 ca        1 P10     -0.325600
     31 C40         5.6870    2.1860   -8.0620 ca        1 P10     -0.037000
     32 C41         5.9860    0.9120   -8.5410 ca        1 P10     -0.235300
     33 C42         6.3410   -0.0930   -7.6160 ca        1 P10      0.454200
     34 N43         6.4110    0.1180   -6.2850 nb        1 P10     -0.656000
     35 C44         6.1400    1.3550   -5.8380 ca        1 P10      0.425200
     36 H021        0.3040    1.5410    1.5630 h1        1 P10      0.105700
     37 H022        1.5110    2.5950    2.4690 h1        1 P10      0.105700
     38 H01         0.2590    4.3350    1.8380 ho        1 P10      0.437000
     39 H14         1.2610    0.6400   -0.4770 hx        1 P10      0.139700
     40 H151        2.5600    0.4910    1.6800 hc        1 P10      0.101700
     41 H152        4.0560    1.0970    0.8600 hc        1 P10      0.101700
     42 H161        4.1250   -0.8870   -0.6200 hc        1 P10      0.047700
     43 H162        2.4720   -1.4070   -0.0770 hc        1 P10      0.047700
     44 H18         2.2430   -2.7840    1.8250 ha        1 P10      0.126000
     45 H19         3.3050   -4.0700    3.6700 ha        1 P10      0.154500
     46 H20         5.7030   -3.6820    4.2520 ha        1 P10      0.159000
     47 H21         7.0380   -2.0010    2.9770 ha        1 P10      0.154500
     48 H22         5.9820   -0.7110    1.1290 ha        1 P10      0.126000
     49 H23         3.5660    2.2070   -1.5540 hn        1 P10      0.488300
     50 H26         2.3010    3.9360   -2.4230 hx        1 P10      0.167700
     51 H271       -0.0130    3.5600   -1.8170 hc        1 P10      0.106700
     52 H272       -0.4340    2.8000   -3.4200 hc        1 P10      0.106700
     53 H29        -0.7710    4.1690   -5.3980 ha        1 P10      0.139500
     54 H30        -1.3400    6.4180   -6.2940 ha        1 P10      0.169000
     55 H31        -1.0620    8.4460   -4.8610 ha        1 P10      0.174000
     56 H32        -0.1830    8.2190   -2.5320 ha        1 P10      0.169000
     57 H33         0.4140    5.9720   -1.6350 ha        1 P10      0.139500
     58 H34         1.8450    4.4580   -4.7750 hn        1 P10      0.501800
     59 H381        6.1160    3.9710   -5.1940 h1        1 P10      0.114200
     60 H382        5.6060    4.5930   -6.8770 h1        1 P10      0.114200
     61 H40         5.4130    2.9950   -8.7580 ha        1 P10      0.158000
     62 H41         5.9570    0.6890   -9.6180 ha        1 P10      0.180000
     63 H42         6.5890   -1.1190   -7.9550 h4        1 P10      0.058100
     64 H44         6.2390    1.5070   -4.7470 h4        1 P10      0.021100
     65 H232        3.3560    0.5680   -1.8550 hn        1 P10      0.488300
     66 H342        1.6870    2.8380   -5.1570 hn        1 P10      0.501800
@<TRIPOS>BOND
     1    1    2 1   
     2    1    4 2   
     3    1    5 1   
     4    2    3 1   
     5    2   36 1   
     6    2   37 1   
     7    3   38 1   
     8    5    6 1   
     9    5   14 1   
    10    5   39 1   
    11    6    7 1   
    12    6   40 1   
    13    6   41 1   
    14    7    8 1   
    15    7   42 1   
    16    7   43 1   
    17    8    9 ar  
    18    8   13 ar  
    19    9   10 ar  
    20    9   44 1   
    21   10   11 ar  
    22   10   45 1   
    23   11   12 ar  
    24   11   46 1   
    25   12   13 ar  
    26   12   47 1   
    27   13   48 1   
    28   14   15 1   
    29   14   49 1   
    30   14   65 1   
    31   15   16 2   
    32   15   17 1   
    33   17   18 1   
    34   17   25 1   
    35   17   50 1   
    36   18   19 1   
    37   18   51 1   
    38   18   52 1   
    39   19   20 ar  
    40   19   24 ar  
    41   20   21 ar  
    42   20   53 1   
    43   21   22 ar  
    44   21   54 1   
    45   22   23 ar  
    46   22   55 1   
    47   23   24 ar  
    48   23   56 1   
    49   24   57 1   
    50   25   26 1   
    51   25   58 1   
    52   25   66 1   
    53   26   27 2   
    54   26   28 1   
    55   28   29 1   
    56   29   30 1   
    57   29   59 1   
    58   29   60 1   
    59   30   31 ar  
    60   30   35 ar  
    61   31   32 ar  
    62   31   61 1   
    63   32   33 ar  
    64   32   62 1   
    65   33   34 ar  
    66   33   63 1   
    67   34   35 ar  
    68   35   64 1   
@<TRIPOS>SUBSTRUCTURE
     1 P10         1 TEMP              0 ****  ****    0 ROOT
