@<TRIPOS>MOLECULE
P12
   52    49     1     0     0
SMALL
bcc


@<TRIPOS>ATOM
      1 C5         -1.3750   -0.1410   -3.4090 c1        1 P12     -0.078500
      2 C4          0.0090   -0.2130   -3.3720 c1        1 P12      0.139600
      3 C3          0.6620   -0.3760   -2.1600 c1        1 P12     -0.088500
      4 C2         -0.0680   -0.4670   -0.9860 c1        1 P12     -0.096100
      5 C1         -1.4520   -0.3950   -1.0230 c1        1 P12      0.052600
      6 C6         -2.1050   -0.2320   -2.2340 c1        1 P12     -0.078500
      7 OA         -2.1920   -0.4730    0.1680 os        1 P12     -0.330400
      8 CB         -3.1340   -1.5190    0.1880 c3        1 P12      0.135400
      9 CG         -4.1800   -1.2360    1.2420 c3        1 P12     -0.142400
     10 CD         -4.7490   -2.5410    1.7510 c3        1 P12      0.101800
     11 NE         -5.4260   -2.3140    2.9870 n4        1 P12     -0.837600
     12 CG1         1.2880    0.9390    1.7280 c3        1 P12      0.105800
     13 CD1         2.3760    1.9560    2.0010 c3        1 P12      0.153300
     14 NE1         3.4470    1.6530    1.4120 nh        1 P12     -0.686400
     15 CD2         3.9140    0.4910    1.2860 c3        1 P12      0.153300
     16 CG2         2.8190   -0.5190    1.0160 c3        1 P12      0.105800
     17 NB          1.5580    0.1070    0.5180 n4        1 P12     -0.679400
     18 CA          0.6370   -0.7640    0.3210 c3        1 P12      0.137900
     19 CZ          4.1940    2.7160    0.8420 c2        1 P12      0.284000
     20 NH1         3.9660    3.0880   -0.3900 n1        1 P12     -0.215000
     21 NH2         5.1890    3.3770    1.6100 nh        1 P12     -0.822600
     22 OA1         0.7450   -0.1880   -4.5680 os        1 P12     -0.291400
     23 CB1         0.1350    0.5580   -5.5980 c3        1 P12      0.104700
     24 H5         -1.8350   -0.0260   -4.2620 ha        1 P12      0.097500
     25 H3          1.6360   -0.4270   -2.1340 ha        1 P12      0.103500
     26 H6         -3.0800   -0.1820   -2.2610 ha        1 P12      0.097500
     27 HB1        -2.6810   -2.3620    0.3960 h1        1 P12      0.074200
     28 HB2        -3.5640   -1.5870   -0.6900 h1        1 P12      0.074200
     29 HG1        -4.8980   -0.6970    0.8520 hc        1 P12      0.082200
     30 HG2        -3.7720   -0.7460    1.9840 hc        1 P12      0.082200
     31 HD1        -5.3800   -2.9010    1.0940 hx        1 P12      0.118200
     32 HD2        -4.0210   -3.1820    1.8900 hx        1 P12      0.118200
     33 HE1        -5.6590   -3.1200    3.3600 hn        1 P12      0.468800
     34 HE2        -6.1820   -1.8170    2.8350 hn        1 P12      0.468800
     35 HE3        -4.8710   -1.8600    3.5610 hn        1 P12      0.468800
     36 HG11        1.2080    0.3480    2.5040 hx        1 P12      0.102700
     37 HG12        0.4410    1.4110    1.6020 hx        1 P12      0.102700
     38 HD11        2.5410    1.9960    2.9660 h1        1 P12      0.084450
     39 HD12        2.0770    2.8360    1.6900 h1        1 P12      0.084450
     40 HD21        4.3820    0.2430    2.1100 h1        1 P12      0.084450
     41 HD22        4.5500    0.4810    0.5410 h1        1 P12      0.084450
     42 HG21        2.6250   -1.0000    1.8450 hx        1 P12      0.102700
     43 HG22        3.1390   -1.1580    0.3480 hx        1 P12      0.102700
     44 HB          1.7070    0.6240   -0.2210 hn        1 P12      0.459800
     45 HA1        -0.0090   -0.7280    1.0570 hx        1 P12      0.112200
     46 HA2         1.0370   -1.6580    0.2810 hx        1 P12      0.112200
     47 HH11        3.3260    2.6630   -0.8840 DU        1 P12      0.184000
     48 HH21        5.1240    3.3970    2.5210 hn        1 P12      0.400800
     49 HH22        5.9130    3.7520    1.1950 hn        1 P12      0.400800
     50 HB11        0.8250    1.0370   -6.1070 h1        1 P12      0.066367
     51 HB12       -0.4910    1.2050   -5.2070 h1        1 P12      0.066367
     52 HB3        -0.3520   -0.0480   -6.1960 h1        1 P12      0.066367
@<TRIPOS>BOND
     1    1    6 3   
     2    1   24 1   
     3    2    3 3   
     4    2   22 1   
     5    3   25 1   
     6    4    5 3   
     7    4   18 1   
     8    5    7 1   
     9    6   26 1   
    10    7    8 1   
    11    8    9 1   
    12    8   27 1   
    13    8   28 1   
    14    9   10 1   
    15    9   29 1   
    16    9   30 1   
    17   10   11 1   
    18   10   31 1   
    19   10   32 1   
    20   11   33 1   
    21   11   34 1   
    22   11   35 1   
    23   12   13 1   
    24   12   17 1   
    25   12   36 1   
    26   12   37 1   
    27   13   14 1   
    28   13   38 1   
    29   13   39 1   
    30   14   15 1   
    31   14   19 1   
    32   15   16 1   
    33   15   40 1   
    34   15   41 1   
    35   16   17 1   
    36   16   42 1   
    37   16   43 1   
    38   17   18 1   
    39   17   44 1   
    40   18   45 1   
    41   18   46 1   
    42   19   20 2   
    43   19   21 1   
    44   21   48 1   
    45   21   49 1   
    46   22   23 1   
    47   23   50 1   
    48   23   51 1   
    49   23   52 1   
@<TRIPOS>SUBSTRUCTURE
     1 P12         1 TEMP              0 ****  ****    0 ROOT
