@<TRIPOS>MOLECULE
P12
   53    54     1     0     0
SMALL
bcc


@<TRIPOS>ATOM
      1 C5          0.0310   -0.4980    0.1840 c3        1 P12     -0.237000
      2 C4          0.2300    0.5760   -0.8950 c1        1 P12      0.109000
      3 C3          1.1880   -0.7590    1.0710 c2        1 P12      0.116000
      4 C2          0.8960   -0.4740    2.3970 c2        1 P12     -0.305000
      5 C1         -0.4790   -0.0400    2.4770 c2        1 P12      0.287000
      6 C6         -1.1050   -0.0350    1.1220 c3        1 P12     -0.199000
      7 OA         -1.0050    0.2700    3.6330 os        1 P12     -0.148000
      8 CB         -2.4210    0.6820    3.7020 c3        1 P12     -0.016000
      9 CG         -2.5820    1.3850    5.0280 c3        1 P12     -0.189000
     10 CD         -2.2550    0.5110    6.2360 c3        1 P12     -0.099000
     11 NE         -0.8430    0.4490    6.5790 n8        1 P12     -0.386000
     12 CG1         1.6420   -2.8070    4.4260 c3        1 P12      0.022000
     13 CD1         1.3820   -3.5440    5.6410 c2        1 P12     -0.719000
     14 NE1         2.2630   -3.2740    6.7490 nx        1 P12      0.128000
     15 CD2         2.1070   -1.8190    7.1260 c3        1 P12     -0.162000
     16 CG2         2.3020   -0.9190    5.8840 c3        1 P12     -0.124000
     17 NB          1.4670   -1.2870    4.7000 nx        1 P12     -0.059000
     18 CA          1.8570   -0.4440    3.5230 c3        1 P12     -0.054000
     19 NH1         1.9000   -5.5740    7.4840 n8        1 P12     -0.274000
     20 NH2         1.9950   -3.8780    9.1470 n8        1 P12     -0.274000
     21 OA1         1.3340    0.4120   -1.5660 os        1 P12     -0.204000
     22 CB1         1.5610    1.3320   -2.6820 c3        1 P12     -0.053000
     23 H5         -0.2670   -1.4320   -0.3860 hc        1 P12      0.214000
     24 H3          2.1570   -1.0970    0.6730 ha        1 P12      0.208000
     25 H6         -1.4660    0.9970    0.8350 hc        1 P12      0.199500
     26 HB1        -1.9950   -0.7200    1.0730 hc        1 P12      0.199500
     27 HB2        -3.0190   -0.2650    3.6350 h1        1 P12      0.136000
     28 HG1        -2.6390    1.3630    2.8380 h1        1 P12      0.136000
     29 HG2        -3.6680    1.6830    5.0930 hc        1 P12      0.145500
     30 HD1        -1.9790    2.3320    5.0390 hc        1 P12      0.145500
     31 HD2        -2.8740    0.8990    7.1000 h1        1 P12      0.104000
     32 HE1        -2.5940   -0.5460    6.0350 h1        1 P12      0.104000
     33 HE2        -0.4310    1.3620    6.4910 hn        1 P12      0.148500
     34 HE3        -0.7620    0.1740    7.5420 hn        1 P12      0.148500
     35 HG11        0.4800   -1.1060    4.9350 hn        1 P12      0.262000
     36 HG12        2.6910   -2.9050    4.0260 hx        1 P12      0.139000
     37 HD11        0.9050   -3.1020    3.6290 hx        1 P12      0.139000
     38 HD12        0.4080   -3.9890    5.8540 hx        1 P12      0.196000
     39 HD21        3.2450   -3.4130    6.4410 hn        1 P12      0.263000
     40 HD22        1.0690   -1.6720    7.5420 hx        1 P12      0.162500
     41 HG21        2.8830   -1.5100    7.8840 hx        1 P12      0.162500
     42 HG22        3.3850   -0.9390    5.5660 hx        1 P12      0.164000
     43 HB          2.0440    0.1340    6.2100 hx        1 P12      0.164000
     44 HA1         1.9540    0.6270    3.8840 hx        1 P12      0.155000
     45 HA2         2.8730   -0.7890    3.1670 hx        1 P12      0.155000
     46 HH11        1.8580   -5.8220    6.5040 hn        1 P12      0.316750
     47 HH21        1.7780   -6.3120    8.1600 hn        1 P12      0.316750
     48 HH22        1.8530   -4.5390    9.8950 hn        1 P12      0.316750
     49 HB11        1.6450    0.6690   -3.5780 h1        1 P12      0.135000
     50 HB12        2.5300    1.8340   -2.4410 h1        1 P12      0.135000
     51 HB3         0.7190    2.0580   -2.7740 h1        1 P12      0.135000
     52 HH23        2.1280   -2.9230    9.4140 hn        1 P12      0.316750
     53 CZ          2.0300   -4.2840    7.8560 c2        1 P12      0.320000
@<TRIPOS>BOND
     1    1    2 1   
     2    1    3 1   
     3    1    6 1   
     4    1   23 1   
     5    2   21 1   
     6    3    4 1   
     7    3   24 1   
     8    4    5 1   
     9    4   18 1   
    10    5    6 1   
    11    5    7 1   
    12    6   25 1   
    13    6   26 1   
    14    7    8 1   
    15    8    9 1   
    16    8   27 1   
    17    8   28 1   
    18    9   10 1   
    19    9   29 1   
    20    9   30 1   
    21   10   11 1   
    22   10   31 1   
    23   10   32 1   
    24   11   33 1   
    25   11   34 1   
    26   12   13 1   
    27   12   17 1   
    28   12   36 1   
    29   12   37 1   
    30   13   14 1   
    31   13   38 1   
    32   14   15 1   
    33   14   39 1   
    34   14   53 1   
    35   15   16 1   
    36   15   40 1   
    37   15   41 1   
    38   16   17 1   
    39   16   42 1   
    40   16   43 1   
    41   17   18 1   
    42   17   35 1   
    43   18   44 1   
    44   18   45 1   
    45   19   46 1   
    46   19   47 1   
    47   19   53 1   
    48   20   48 1   
    49   20   52 1   
    50   20   53 1   
    51   21   22 1   
    52   22   49 1   
    53   22   50 1   
    54   22   51 1   
@<TRIPOS>SUBSTRUCTURE
     1 P12         1 TEMP              0 ****  ****    0 ROOT
