@<TRIPOS>MOLECULE
P12
   52    53     1     0     0
SMALL
bcc


@<TRIPOS>ATOM
      1 C5         -5.1380   -5.9130    0.1030 ca        1 P12     -0.139000
      2 C4         -4.8670   -5.9900   -1.2710 ca        1 P12      0.141100
      3 C3         -3.5390   -5.9170   -1.7390 ca        1 P12     -0.113000
      4 C2         -2.4920   -5.7520   -0.8350 ca        1 P12     -0.151300
      5 C1         -2.7740   -5.6620    0.5430 ca        1 P12      0.071100
      6 C6         -4.0900   -5.7520    1.0060 ca        1 P12     -0.138000
      7 OA         -1.6700   -5.5200    1.3850 os        1 P12     -0.367900
      8 CB         -1.9860   -4.9820    2.6760 c3        1 P12      0.136400
      9 CG         -0.6730   -4.4950    3.2800 c3        1 P12     -0.122400
     10 CD         -0.9680   -3.9290    4.6640 c3        1 P12      0.099800
     11 NE          0.2480   -3.4120    5.3570 n4        1 P12     -0.837600
     12 CG1        -0.8450   -8.0560   -1.9370 c3        1 P12      0.105800
     13 CD1        -0.0400   -9.3470   -1.6950 c3        1 P12      0.145300
     14 NE1         1.3800   -9.1360   -1.9450 nh        1 P12     -0.699600
     15 CD2         1.9290   -8.0340   -1.1660 c3        1 P12      0.145300
     16 CG2         1.1350   -6.7320   -1.3770 c3        1 P12      0.105800
     17 NB         -0.3250   -6.9230   -1.1020 n4        1 P12     -0.688400
     18 CA         -1.0930   -5.6540   -1.3400 c3        1 P12      0.185100
     19 NH1         2.0470  -11.0350   -0.6450 n2        1 P12     -0.870100
     20 NH2         3.0930  -10.6040   -2.8040 nh        1 P12     -0.929800
     21 OA1        -5.8100   -6.1500   -2.2530 os        1 P12     -0.306900
     22 CB1        -7.1760   -6.1940   -1.8350 c3        1 P12      0.103700
     23 H5         -6.1730   -5.9800    0.4770 ha        1 P12      0.172000
     24 H3         -3.3540   -5.9790   -2.8240 ha        1 P12      0.171000
     25 H6         -4.3190   -5.7050    2.0810 ha        1 P12      0.151000
     26 HB1        -2.7140   -4.1330    2.5750 h1        1 P12      0.066700
     27 HB2        -2.4320   -5.8000    3.3030 h1        1 P12      0.066700
     28 HG1         0.0480   -5.3520    3.3400 hc        1 P12      0.081200
     29 HG2        -0.2260   -3.7120    2.6120 hc        1 P12      0.081200
     30 HD1        -1.4190   -4.7310    5.3210 hx        1 P12      0.121700
     31 HD2        -1.7030   -3.0740    4.5840 hx        1 P12      0.121700
     32 HE1        -0.0100   -3.0440    6.2820 hn        1 P12      0.469467
     33 HE2         0.6790   -2.6590    4.8090 hn        1 P12      0.469467
     34 HE3         0.9370   -4.1630    5.4800 hn        1 P12      0.469467
     35 HG11       -0.7810   -7.7490   -3.0190 hx        1 P12      0.107450
     36 HG12       -1.9250   -8.2290   -1.6670 hx        1 P12      0.107450
     37 HD11       -0.2610   -9.7260   -0.6550 h1        1 P12      0.088950
     38 HD12       -0.4100  -10.1180   -2.4310 h1        1 P12      0.088950
     39 HD21        2.9830   -7.8500   -1.5260 h1        1 P12      0.088950
     40 HD22        1.9720   -8.2610   -0.0610 h1        1 P12      0.088950
     41 HG21        1.5310   -5.9410   -0.6820 hx        1 P12      0.107450
     42 HG22        1.2440   -6.3760   -2.4420 hx        1 P12      0.107450
     43 HB         -0.4410   -7.1800   -0.1120 hn        1 P12      0.449800
     44 HA1        -1.0760   -5.4380   -2.4470 hx        1 P12      0.106200
     45 HA2        -0.5480   -4.8280   -0.7960 hx        1 P12      0.106200
     46 HH11        2.5900  -11.8650   -0.5470 hn        1 P12      0.427400
     47 HH21        3.3970  -11.5470   -2.9040 hn        1 P12      0.425800
     48 HH22        2.9480  -10.1210   -3.6610 hn        1 P12      0.425800
     49 HB11       -7.3530   -7.0770   -1.1740 h1        1 P12      0.065700
     50 HB12       -7.7290   -6.3040   -2.8040 h1        1 P12      0.065700
     51 HB3        -7.4600   -5.2440   -1.3210 h1        1 P12      0.065700
     52 CZ          2.1820  -10.3650   -1.7560 c2        1 P12      0.755100
@<TRIPOS>BOND
     1    1    2 ar  
     2    1    6 ar  
     3    1   23 1   
     4    2    3 ar  
     5    2   21 1   
     6    3    4 ar  
     7    3   24 1   
     8    4    5 ar  
     9    4   18 1   
    10    5    6 ar  
    11    5    7 1   
    12    6   25 1   
    13    7    8 1   
    14    8    9 1   
    15    8   26 1   
    16    8   27 1   
    17    9   10 1   
    18    9   28 1   
    19    9   29 1   
    20   10   11 1   
    21   10   30 1   
    22   10   31 1   
    23   11   32 1   
    24   11   33 1   
    25   11   34 1   
    26   12   13 1   
    27   12   17 1   
    28   12   35 1   
    29   12   36 1   
    30   13   14 1   
    31   13   37 1   
    32   13   38 1   
    33   14   15 1   
    34   14   52 1   
    35   15   16 1   
    36   15   39 1   
    37   15   40 1   
    38   16   17 1   
    39   16   41 1   
    40   16   42 1   
    41   17   18 1   
    42   17   43 1   
    43   18   44 1   
    44   18   45 1   
    45   19   46 1   
    46   19   52 2   
    47   20   47 1   
    48   20   48 1   
    49   20   52 1   
    50   21   22 1   
    51   22   49 1   
    52   22   50 1   
    53   22   51 1   
@<TRIPOS>SUBSTRUCTURE
     1 P12         1 TEMP              0 ****  ****    0 ROOT
