@<TRIPOS>MOLECULE
P12
   53    51     1     0     0
SMALL
bcc


@<TRIPOS>ATOM
      1 C5       -148.1950  247.6930  -50.4680 c2        1 P12     -0.210000
      2 C4       -148.3800  246.9570  -51.5730 c2        1 P12     -0.100000
      3 C3       -148.8800  250.7270  -53.6410 cu        1 P12      0.007000
      4 C2       -148.8480  250.0020  -52.4280 cu        1 P12      0.094000
      5 C1       -149.1260  249.9670  -51.0630 c2        1 P12     -0.036000
      6 C6       -148.7900  248.9640  -50.1840 c2        1 P12      0.087000
      7 OA       -149.6400  251.1610  -50.5580 os        1 P12     -0.211000
      8 CB       -150.9900  251.0800  -50.0690 c3        1 P12     -0.032000
      9 CG       -151.9830  250.9530  -51.2040 c3        1 P12     -0.194000
     10 CD       -153.3900  250.7270  -50.6470 c3        1 P12     -0.069000
     11 NE       -154.3540  250.4820  -51.6900 n3        1 P12     -0.357000
     12 CG1       152.7210 -333.4540  458.4130 c3        1 P12     -0.036000
     13 CD1       152.0490 -332.1600  458.8500 c2        1 P12      0.014000
     14 NE1       152.2850 -331.0220  458.2880 n2        1 P12     -0.252000
     15 CD2       156.0630 -332.8780  456.7420 c3        1 P12     -0.220000
     16 CG2       155.0540 -332.9810  457.8730 c3        1 P12     -0.064000
     17 NB        153.7510 -333.4360  457.4320 n3        1 P12     -0.307000
     18 CA       -148.2820  249.4940  -53.6150 cu        1 P12      0.007000
     19 NH1       150.7920 -329.5120  459.6520 n2        1 P12     -0.214000
     20 NH2       152.0420 -328.6690  457.8360 n4        1 P12     -0.037000
     21 OA1       113.9560  149.5860-1703.3420 oh        1 P12     -0.062000
     22 CB1       113.4770  150.1720-1704.3800 c2        1 P12      0.277000
     23 H5       -147.5710  247.2920  -49.6410 ha        1 P12      0.179000
     24 H3       -147.9160  245.9640  -51.6880 ha        1 P12      0.136000
     25 H6       -149.0300  247.2680  -52.4030 ha        1 P12      0.136000
     26 HB1      -148.9880  249.1670  -49.1070 ha        1 P12      0.184000
     27 HB2      -151.0810  250.2290  -49.3450 h1        1 P12      0.114000
     28 HG1      -151.1030  252.0590  -49.5260 h1        1 P12      0.114000
     29 HG2      -151.6910  250.0940  -51.8630 hc        1 P12      0.088500
     30 HD1      -151.9610  251.8820  -51.8310 hc        1 P12      0.088500
     31 HD2      -153.3720  249.8220  -49.9740 h1        1 P12      0.074000
     32 HE1      -153.6520  251.6170  -49.9990 h1        1 P12      0.074000
     33 HE2      -154.5050  251.2990  -52.2460 hn        1 P12      0.159500
     34 HE3      -155.2240  250.1750  -51.3030 hn        1 P12      0.159500
     35 HG11      153.4690 -333.0180  456.5690 hn        1 P12      0.183000
     36 HG12      151.8760 -334.1010  458.0220 h1        1 P12      0.140000
     37 HD11      153.1180 -333.9270  459.3610 h1        1 P12      0.140000
     38 HD12      151.3290 -332.3160  459.6880 h4        1 P12      0.126000
     39 HD21      155.7490 -332.1190  455.9850 hc        1 P12      0.089667
     40 HD22      157.0490 -332.5700  457.1680 hc        1 P12      0.089667
     41 HG21      156.1910 -333.8610  456.2270 hc        1 P12      0.089667
     42 HG22      155.4300 -333.7250  458.6330 h1        1 P12      0.071000
     43 HB        154.9890 -331.9780  458.3910 h1        1 P12      0.071000
     44 HA1      -149.1770  251.6230  -54.1680 ha        1 P12      0.252500
     45 HA2      -147.7520  248.6960  -54.1160 ha        1 P12      0.252500
     46 HH11      150.4690 -330.2210  460.2760 hn        1 P12      0.231000
     47 HH21      151.5820 -327.8010  458.1380 hn        1 P12      0.273000
     48 HH22      151.7820 -328.8790  456.8660 hn        1 P12      0.273000
     49 HB11      114.7460  149.0040-1703.5020 ho        1 P12      0.333000
     50 HB12      112.5870  150.8200-1704.1640 h4        1 P12      0.225500
     51 HB3       113.8940  150.0550-1705.4040 h4        1 P12      0.225500
     52 HH23      153.0610 -328.5590  457.8960 hn        1 P12      0.273000
     53 CZ        151.6220 -329.8320  458.7210 c2        1 P12      0.067000
@<TRIPOS>BOND
     1    1    2 1   
     2    1    6 1   
     3    1   23 1   
     4    2   24 1   
     5    2   25 1   
     6    3    4 1   
     7    3   18 1   
     8    3   44 1   
     9    4    5 1   
    10    4   18 1   
    11    5    6 1   
    12    5    7 1   
    13    6   26 1   
    14    7    8 1   
    15    8    9 1   
    16    8   27 1   
    17    8   28 1   
    18    9   10 1   
    19    9   29 1   
    20    9   30 1   
    21   10   11 1   
    22   10   31 1   
    23   10   32 1   
    24   11   33 1   
    25   11   34 1   
    26   12   13 1   
    27   12   17 1   
    28   12   36 1   
    29   12   37 1   
    30   13   14 1   
    31   13   38 1   
    32   14   53 1   
    33   15   16 1   
    34   15   39 1   
    35   15   40 1   
    36   15   41 1   
    37   16   17 1   
    38   16   42 1   
    39   16   43 1   
    40   17   35 1   
    41   18   45 1   
    42   19   46 1   
    43   19   53 1   
    44   20   47 1   
    45   20   48 1   
    46   20   52 1   
    47   20   53 1   
    48   21   22 1   
    49   21   49 1   
    50   22   50 1   
    51   22   51 1   
@<TRIPOS>SUBSTRUCTURE
     1 P12         1 TEMP              0 ****  ****    0 ROOT
