@<TRIPOS>MOLECULE
P13
   65    68     1     0     0
SMALL
bcc


@<TRIPOS>ATOM
      1 C1         -0.4220   -0.6760    0.9180 ca        1 P13     -0.059000
      2 C2          0.9740   -0.5060    0.9260 cp        1 P13      0.016000
      3 C3          1.6130   -0.2780    2.1500 ca        1 P13     -0.103000
      4 C4          0.8930   -0.2300    3.3500 ca        1 P13     -0.187300
      5 C5         -0.5070   -0.3690    3.3130 ca        1 P13      0.117100
      6 C6         -1.1590   -0.6010    2.0950 ca        1 P13     -0.188000
      7 N          -4.7330    2.3000    5.0390 n4        1 P13     -0.838600
      8 CB         -3.6910    1.2760    5.3470 c3        1 P13      0.102800
      9 CA         -3.5590    0.2210    4.2570 c3        1 P13     -0.145400
     10 C          -2.4730   -0.7840    4.6270 c3        1 P13      0.132400
     11 O          -1.1710   -0.2090    4.5230 os        1 P13     -0.359900
     12 CA1         1.6260   -0.0060    4.6290 c3        1 P13      0.178100
     13 NB          2.5080   -1.1740    4.9550 n4        1 P13     -0.756000
     14 CG          3.3590   -0.9240    6.1530 c3        1 P13      0.099800
     15 CD          4.3950   -2.0470    6.3850 c3        1 P13      0.141800
     16 NE          3.7840   -3.3640    6.3430 n3        1 P13     -0.777600
     17 CH1         3.2570   -3.7740    7.6430 c3        1 P13      0.160800
     18 CI1         2.6510   -5.1930    7.6270 c3        1 P13      0.169800
     19 NJ          3.5610   -6.1630    7.0610 n3        1 P13     -0.825200
     20 CI2         4.0480   -5.7840    5.7540 c3        1 P13      0.169800
     21 CH2         4.6640   -4.3690    5.7490 c3        1 P13      0.160800
     22 N1          3.8060   -0.8980   -3.9070 na        1 P13     -0.178400
     23 C21         3.1160   -1.9680   -4.4890 cc        1 P13     -0.078100
     24 C31         2.1070   -2.4090   -3.6360 cd        1 P13     -0.185200
     25 C41         1.4160   -1.5250   -1.2800 ca        1 P13     -0.049000
     26 C51         1.7380   -0.5710   -0.3130 cp        1 P13     -0.130000
     27 C61         2.8000    0.3410   -0.5280 ca        1 P13     -0.107000
     28 C71         3.5520    0.3270   -1.6880 ca        1 P13     -0.130000
     29 C81         3.2400   -0.6340   -2.6650 ca        1 P13     -0.027200
     30 C91         2.1560   -1.5770   -2.4570 ca        1 P13     -0.097800
     31 H1         -0.9380   -0.8580   -0.0410 ha        1 P13      0.170000
     32 H3          2.7060   -0.1280    2.1610 ha        1 P13      0.145000
     33 H6         -2.2500   -0.7310    2.0540 ha        1 P13      0.142000
     34 HN1A       -4.5050    2.7890    4.1660 hn        1 P13      0.467467
     35 HN2        -4.7850    2.9860    5.8010 hn        1 P13      0.467467
     36 HB1        -3.9700    0.7900    6.3270 hx        1 P13      0.118200
     37 HB2        -2.7030    1.8100    5.4750 hx        1 P13      0.118200
     38 HA1        -4.5240   -0.3400    4.1310 hc        1 P13      0.085700
     39 HA2        -3.3000    0.7030    3.2770 hc        1 P13      0.085700
     40 HC1        -2.5710   -1.7010    3.9880 h1        1 P13      0.087700
     41 HC2        -2.5480   -1.0740    5.7120 h1        1 P13      0.087700
     42 HA11        2.2850    0.9060    4.5450 hx        1 P13      0.107200
     43 HA12        0.9120    0.1370    5.4900 hx        1 P13      0.107200
     44 HB11        1.9280   -2.0080    5.1210 hn        1 P13      0.459300
     45 HG1         2.6770   -0.8310    7.0450 hx        1 P13      0.100200
     46 HG2         3.9100    0.0470    6.0070 hx        1 P13      0.100200
     47 HD1         4.8800   -1.8140    7.3790 h1        1 P13      0.080200
     48 HD2         5.1940   -1.9670    5.5940 h1        1 P13      0.080200
     49 HH11        2.4450   -3.0490    7.9280 h1        1 P13      0.046950
     50 HH12        4.0540   -3.7350    8.4420 h1        1 P13      0.046950
     51 HI11        2.4440   -5.4920    8.6930 h1        1 P13      0.044200
     52 HI12        1.6630   -5.1530    7.0790 h1        1 P13      0.044200
     53 HJ1         3.1560   -7.0800    7.0480 hn        1 P13      0.393800
     54 HI21        3.2430   -5.8240    4.9630 h1        1 P13      0.044200
     55 HI22        4.8580   -6.5110    5.4610 h1        1 P13      0.044200
     56 HH21        5.6590   -4.4080    6.2820 h1        1 P13      0.046950
     57 HH22        4.8510   -4.0760    4.6790 h1        1 P13      0.046950
     58 HN1         4.5540   -0.4010   -4.3160 hn        1 P13      0.314700
     59 H2          3.4010   -2.3370   -5.4780 h4        1 P13      0.186000
     60 H31         1.4120   -3.2240   -3.8170 ha        1 P13      0.169000
     61 H4          0.5960   -2.2400   -1.1180 ha        1 P13      0.135000
     62 H61         3.0180    1.0970    0.2420 ha        1 P13      0.123000
     63 H7          4.3660    1.0500   -1.8440 ha        1 P13      0.149000
     64 HN3        -5.6500    1.8520    4.9320 hn        1 P13      0.467467
     65 HB21        3.1100   -1.3820    4.1480 hn        1 P13      0.459300
@<TRIPOS>BOND
     1    1    2 ar  
     2    1    6 ar  
     3    1   31 1   
     4    2    3 ar  
     5    2   26 1   
     6    3    4 ar  
     7    3   32 1   
     8    4    5 ar  
     9    4   12 1   
    10    5    6 ar  
    11    5   11 1   
    12    6   33 1   
    13    7    8 1   
    14    7   34 1   
    15    7   35 1   
    16    7   64 1   
    17    8    9 1   
    18    8   36 1   
    19    8   37 1   
    20    9   10 1   
    21    9   38 1   
    22    9   39 1   
    23   10   11 1   
    24   10   40 1   
    25   10   41 1   
    26   12   13 1   
    27   12   42 1   
    28   12   43 1   
    29   13   14 1   
    30   13   44 1   
    31   13   65 1   
    32   14   15 1   
    33   14   45 1   
    34   14   46 1   
    35   15   16 1   
    36   15   47 1   
    37   15   48 1   
    38   16   17 1   
    39   16   21 1   
    40   17   18 1   
    41   17   49 1   
    42   17   50 1   
    43   18   19 1   
    44   18   51 1   
    45   18   52 1   
    46   19   20 1   
    47   19   53 1   
    48   20   21 1   
    49   20   54 1   
    50   20   55 1   
    51   21   56 1   
    52   21   57 1   
    53   22   23 1   
    54   22   29 1   
    55   22   58 1   
    56   23   24 2   
    57   23   59 1   
    58   24   30 1   
    59   24   60 1   
    60   25   26 ar  
    61   25   30 ar  
    62   25   61 1   
    63   26   27 ar  
    64   27   28 ar  
    65   27   62 1   
    66   28   29 ar  
    67   28   63 1   
    68   29   30 ar  
@<TRIPOS>SUBSTRUCTURE
     1 P13         1 TEMP              0 ****  ****    0 ROOT
