@<TRIPOS>MOLECULE
P13
   65    68     1     0     0
SMALL
bcc


@<TRIPOS>ATOM
      1 C1         -0.4410   -0.7040    0.9210 ca        1 P13     -0.059000
      2 C2          0.9530   -0.5140    0.9250 cp        1 P13      0.016000
      3 C3          1.5930   -0.2750    2.1470 ca        1 P13     -0.103000
      4 C4          0.8760   -0.2360    3.3490 ca        1 P13     -0.187300
      5 C5         -0.5220   -0.3960    3.3170 ca        1 P13      0.117100
      6 C6         -1.1740   -0.6390    2.1000 ca        1 P13     -0.188000
      7 N          -4.7810    2.2130    5.0530 nz        1 P13     -0.838600
      8 CB         -3.7240    1.2040    5.3580 c3        1 P13      0.102800
      9 CA         -3.5790    0.1500    4.2690 c3        1 P13     -0.145400
     10 C          -2.4780   -0.8380    4.6370 c3        1 P13      0.132400
     11 O          -1.1850   -0.2440    4.5290 os        1 P13     -0.359900
     12 CA1         1.6090    0.0000    4.6250 c3        1 P13      0.178100
     13 NB          2.5090   -1.1540    4.9500 ny        1 P13     -0.756000
     14 CG          3.3620   -0.8900    6.1440 c3        1 P13      0.099800
     15 CD          4.4130   -1.9980    6.3750 c3        1 P13      0.141800
     16 NE          3.8210   -3.3230    6.3390 n3        1 P13     -0.777600
     17 CH1         3.3050   -3.7370    7.6420 c3        1 P13      0.160800
     18 CI1         2.7190   -5.1650    7.6310 c3        1 P13      0.169800
     19 NJ          3.6400   -6.1230    7.0640 n7        1 P13     -0.825200
     20 CI2         4.1170   -5.7400    5.7540 c3        1 P13      0.169800
     21 CH2         4.7130   -4.3170    5.7430 c3        1 P13      0.160800
     22 N1          3.7750   -0.8700   -3.9170 na        1 P13     -0.178400
     23 C21         3.0990   -1.9510   -4.4950 cc        1 P13     -0.078100
     24 C31         2.1000   -2.4060   -3.6390 cd        1 P13     -0.185200
     25 C41         1.4030   -1.5290   -1.2820 ca        1 P13     -0.049000
     26 C51         1.7140   -0.5690   -0.3170 cp        1 P13     -0.130000
     27 C61         2.7610    0.3580   -0.5350 ca        1 P13     -0.107000
     28 C71         3.5100    0.3540   -1.6980 ca        1 P13     -0.130000
     29 C81         3.2100   -0.6130   -2.6730 ca        1 P13     -0.027200
     30 C91         2.1400   -1.5710   -2.4600 ca        1 P13     -0.097800
     31 H1         -0.9570   -0.8950   -0.0350 ha        1 P13      0.170000
     32 H3          2.6830   -0.1090    2.1540 ha        1 P13      0.145000
     33 H6         -2.2630   -0.7850    2.0640 ha        1 P13      0.142000
     34 HN1A       -5.6930    1.7520    4.9490 hn        1 P13      0.467467
     35 HN2        -4.8420    2.8990    5.8140 hn        1 P13      0.467467
     36 HB1        -2.7440    1.7540    5.4830 hx        1 P13      0.118200
     37 HB2        -3.9930    0.7160    6.3400 hx        1 P13      0.118200
     38 HA1        -3.3300    0.6350    3.2880 hc        1 P13      0.085700
     39 HA2        -4.5370   -0.4240    4.1470 hc        1 P13      0.085700
     40 HC1        -2.5640   -1.7580    4.0000 h1        1 P13      0.087700
     41 HC2        -2.5450   -1.1280    5.7230 h1        1 P13      0.087700
     42 HA11        2.2550    0.9220    4.5380 hx        1 P13      0.107200
     43 HA12        0.8960    0.1340    5.4880 hx        1 P13      0.107200
     44 HB11        1.9420   -1.9960    5.1200 hn        1 P13      0.459300
     45 HG1         3.8980    0.0890    5.9940 hx        1 P13      0.100200
     46 HG2         2.6820   -0.8040    7.0380 hx        1 P13      0.100200
     47 HD1         4.9000   -1.7550    7.3670 h1        1 P13      0.080200
     48 HD2         5.2090   -1.9080    5.5810 h1        1 P13      0.080200
     49 HH11        4.1050   -3.6850    8.4370 h1        1 P13      0.046950
     50 HH12        2.4840   -3.0220    7.9280 h1        1 P13      0.046950
     51 HI11        1.7290   -5.1390    7.0880 h1        1 P13      0.044200
     52 HI12        2.5210   -5.4630    8.6990 h1        1 P13      0.044200
     53 HJ1         3.2480   -7.0450    7.0550 hn        1 P13      0.393800
     54 HI21        3.3080   -5.7940    4.9660 h1        1 P13      0.044200
     55 HI22        4.9350   -6.4560    5.4600 h1        1 P13      0.044200
     56 HH21        4.8910   -4.0240    4.6710 h1        1 P13      0.046950
     57 HH22        5.7100   -4.3410    6.2720 h1        1 P13      0.046950
     58 HN1         4.5140   -0.3620   -4.3290 hn        1 P13      0.314700
     59 H2          3.3870   -2.3170   -5.4850 h4        1 P13      0.186000
     60 H31         1.4160   -3.2300   -3.8170 ha        1 P13      0.169000
     61 H4          0.5940   -2.2560   -1.1160 ha        1 P13      0.135000
     62 H61         2.9710    1.1180    0.2320 ha        1 P13      0.123000
     63 H7          4.3130    1.0880   -1.8570 ha        1 P13      0.149000
     64 HN3        -4.5640    2.7040    4.1790 hn        1 P13      0.467467
     65 HB21        3.1110   -1.3550    4.1420 hn        1 P13      0.459300
@<TRIPOS>BOND
     1    1    2 ar  
     2    1    6 ar  
     3    1   31 1   
     4    2    3 ar  
     5    2   26 1   
     6    3    4 ar  
     7    3   32 1   
     8    4    5 ar  
     9    4   12 1   
    10    5    6 ar  
    11    5   11 1   
    12    6   33 1   
    13    7    8 1   
    14    7   34 1   
    15    7   35 1   
    16    7   64 1   
    17    8    9 1   
    18    8   36 1   
    19    8   37 1   
    20    9   10 1   
    21    9   38 1   
    22    9   39 1   
    23   10   11 1   
    24   10   40 1   
    25   10   41 1   
    26   12   13 1   
    27   12   42 1   
    28   12   43 1   
    29   13   14 1   
    30   13   44 1   
    31   13   65 1   
    32   14   15 1   
    33   14   45 1   
    34   14   46 1   
    35   15   16 1   
    36   15   47 1   
    37   15   48 1   
    38   16   17 1   
    39   16   21 1   
    40   17   18 1   
    41   17   49 1   
    42   17   50 1   
    43   18   19 1   
    44   18   51 1   
    45   18   52 1   
    46   19   20 1   
    47   19   53 1   
    48   20   21 1   
    49   20   54 1   
    50   20   55 1   
    51   21   56 1   
    52   21   57 1   
    53   22   23 1   
    54   22   29 1   
    55   22   58 1   
    56   23   24 2   
    57   23   59 1   
    58   24   30 1   
    59   24   60 1   
    60   25   26 ar  
    61   25   30 ar  
    62   25   61 1   
    63   26   27 ar  
    64   27   28 ar  
    65   27   62 1   
    66   28   29 ar  
    67   28   63 1   
    68   29   30 ar  
@<TRIPOS>SUBSTRUCTURE
     1 P13         1 TEMP              0 ****  ****    0 ROOT
