@<TRIPOS>MOLECULE
P13
   63    66     1     0     0
SMALL
bcc


@<TRIPOS>ATOM
      1 C1         -0.8620    3.9580   17.2340 ca        1 P13     -0.102000
      2 C2         -0.5800    3.7300   15.8800 cp        1 P13     -0.049000
      3 C3          0.7560    3.6900   15.4590 ca        1 P13     -0.102000
      4 C4          1.8040    3.8670   16.3610 ca        1 P13     -0.132300
      5 C5          1.4990    4.1020   17.7170 ca        1 P13      0.121100
      6 C6          0.1680    4.1460   18.1510 ca        1 P13     -0.175000
      7 N           6.2300    3.7570   20.6820 n3        1 P13     -0.915800
      8 CB          5.0340    3.5640   19.8950 c3        1 P13      0.149800
      9 CA          3.7730    4.0830   20.5810 c3        1 P13     -0.084400
     10 C           2.5290    3.6740   19.8130 c3        1 P13      0.124400
     11 O           2.5630    4.3790   18.5610 os        1 P13     -0.345900
     12 CA1         3.2320    3.8510   15.8920 c3        1 P13      0.217100
     13 NB          4.0940    2.8210   16.4220 n3        1 P13     -0.819200
     14 CG          3.9510    1.5040   15.8520 c3        1 P13      0.166800
     15 CD          2.8250    0.6010   16.3940 c3        1 P13      0.126800
     16 NE          2.8750    0.3760   17.8310 n3        1 P13     -0.735600
     17 CH1         4.0820   -0.3190   18.2570 c3        1 P13      0.163800
     18 CI1         4.1050   -0.6250   19.7680 c3        1 P13      0.160300
     19 NJ          2.8920   -1.2640   20.2360 n3        1 P13     -0.819200
     20 CI2         1.6910   -0.5690   19.8200 c3        1 P13      0.160300
     21 CH2         1.6630   -0.2830   18.3060 c3        1 P13      0.163800
     22 N1         -4.8390    2.8750   12.3060 na        1 P13     -0.195400
     23 C21        -5.6480    2.0610   13.1070 cc        1 P13     -0.108100
     24 C31        -5.0470    1.8580   14.3450 cd        1 P13     -0.186200
     25 C41        -2.7710    2.7560   15.2630 ca        1 P13     -0.071000
     26 C51        -1.6660    3.5340   14.9210 cp        1 P13     -0.066000
     27 C61        -1.5850    4.1430   13.6460 ca        1 P13     -0.101000
     28 C71        -2.5820    3.9940   12.6980 ca        1 P13     -0.146000
     29 C81        -3.6960    3.2090   13.0340 ca        1 P13     -0.044200
     30 C91        -3.7940    2.5800   14.3340 ca        1 P13     -0.096800
     31 H1         -1.9080    4.0010   17.5740 ha        1 P13      0.137000
     32 H3          0.9830    3.5060   14.3970 ha        1 P13      0.136000
     33 H6         -0.0660    4.3400   19.2070 ha        1 P13      0.138000
     34 HN1A        7.0370    3.5010   20.1480 hn        1 P13      0.347300
     35 HN2         6.3190    4.7130   20.9670 hn        1 P13      0.347300
     36 HB1         4.9240    2.4540   19.7180 h1        1 P13      0.038700
     37 HB2         5.0960    4.0570   18.8790 h1        1 P13      0.038700
     38 HA1         3.6900    3.6670   21.6180 hc        1 P13      0.056700
     39 HA2         3.8140    5.2010   20.6560 hc        1 P13      0.056700
     40 HC1         1.6110    3.9700   20.3860 h1        1 P13      0.045700
     41 HC2         2.5110    2.5690   19.6140 h1        1 P13      0.045700
     42 HA11        3.6970    4.8350   16.2000 h1        1 P13      0.057700
     43 HA12        3.2520    3.7970   14.7660 h1        1 P13      0.057700
     44 HB11        4.0240    2.7900   17.4250 hn        1 P13      0.383800
     45 HG1         4.9410    0.9840   16.0010 h1        1 P13      0.047700
     46 HG2         3.7830    1.5950   14.7410 h1        1 P13      0.047700
     47 HD1         2.8660   -0.3690   15.8170 h1        1 P13      0.039700
     48 HD2         1.8370    1.0960   16.1650 h1        1 P13      0.039700
     49 HH11        4.2310   -1.2840   17.6910 h1        1 P13      0.039450
     50 HH12        4.9590    0.3530   18.0370 h1        1 P13      0.039450
     51 HI11        4.3190    0.3390   20.3190 h1        1 P13      0.033700
     52 HI12        4.9600   -1.3300   19.9660 h1        1 P13      0.033700
     53 HJ1         2.9120   -1.3490   21.2350 hn        1 P13      0.363800
     54 HI21        0.8120   -1.2270   20.0660 h1        1 P13      0.033700
     55 HI22        1.5530    0.4110   20.3670 h1        1 P13      0.033700
     56 HH21        0.7950    0.4040   18.1010 h1        1 P13      0.039450
     57 HH22        1.4750   -1.2520   17.7590 h1        1 P13      0.039450
     58 HN1        -5.0420    3.1720   11.3910 hn        1 P13      0.298700
     59 H2         -6.6000    1.6850   12.7270 h4        1 P13      0.165000
     60 H31        -5.4360    1.2710   15.1710 ha        1 P13      0.157000
     61 H4         -2.8360    2.2770   16.2510 ha        1 P13      0.136000
     62 H61        -0.7040    4.7600   13.4100 ha        1 P13      0.134000
     63 H7         -2.5050    4.4770   11.7150 ha        1 P13      0.133000
@<TRIPOS>BOND
     1    1    2 ar  
     2    1    6 ar  
     3    1   31 1   
     4    2    3 ar  
     5    2   26 1   
     6    3    4 ar  
     7    3   32 1   
     8    4    5 ar  
     9    4   12 1   
    10    5    6 ar  
    11    5   11 1   
    12    6   33 1   
    13    7    8 1   
    14    7   34 1   
    15    7   35 1   
    16    8    9 1   
    17    8   36 1   
    18    8   37 1   
    19    9   10 1   
    20    9   38 1   
    21    9   39 1   
    22   10   11 1   
    23   10   40 1   
    24   10   41 1   
    25   12   13 1   
    26   12   42 1   
    27   12   43 1   
    28   13   14 1   
    29   13   44 1   
    30   14   15 1   
    31   14   45 1   
    32   14   46 1   
    33   15   16 1   
    34   15   47 1   
    35   15   48 1   
    36   16   17 1   
    37   16   21 1   
    38   17   18 1   
    39   17   49 1   
    40   17   50 1   
    41   18   19 1   
    42   18   51 1   
    43   18   52 1   
    44   19   20 1   
    45   19   53 1   
    46   20   21 1   
    47   20   54 1   
    48   20   55 1   
    49   21   56 1   
    50   21   57 1   
    51   22   23 1   
    52   22   29 1   
    53   22   58 1   
    54   23   24 2   
    55   23   59 1   
    56   24   30 1   
    57   24   60 1   
    58   25   26 ar  
    59   25   30 ar  
    60   25   61 1   
    61   26   27 ar  
    62   27   28 ar  
    63   27   62 1   
    64   28   29 ar  
    65   28   63 1   
    66   29   30 ar  
@<TRIPOS>SUBSTRUCTURE
     1 P13         1 TEMP              0 ****  ****    0 ROOT
