@<TRIPOS>MOLECULE
P13
   65    68     1     0     0
SMALL
bcc


@<TRIPOS>ATOM
      1 C1         -0.4300   -0.6650    0.9270 ca        1 P13     -0.059000
      2 C2          0.9670   -0.4960    0.9310 cp        1 P13      0.016000
      3 C3          1.6100   -0.2730    2.1540 ca        1 P13     -0.103000
      4 C4          0.8950   -0.2290    3.3570 ca        1 P13     -0.187300
      5 C5         -0.5050   -0.3680    3.3240 ca        1 P13      0.117100
      6 C6         -1.1620   -0.5950    2.1070 ca        1 P13     -0.188000
      7 N          -4.7230    2.2970    5.0760 n4        1 P13     -0.838600
      8 CB         -3.6810    1.2710    5.3760 c3        1 P13      0.102800
      9 CA         -3.5530    0.2200    4.2810 c3        1 P13     -0.145400
     10 C          -2.4670   -0.7870    4.6430 c3        1 P13      0.132400
     11 O          -1.1650   -0.2120    4.5380 os        1 P13     -0.359900
     12 CA1         1.6330   -0.0110    4.6330 c3        1 P13      0.178100
     13 NB          2.5140   -1.1810    4.9520 n4        1 P13     -0.756000
     14 CG          3.3690   -0.9370    6.1490 c3        1 P13      0.099800
     15 CD          4.4050   -2.0610    6.3730 c3        1 P13      0.141800
     16 NE          3.7930   -3.3770    6.3270 n3        1 P13     -0.777600
     17 CH1         3.2690   -3.7930    7.6260 c3        1 P13      0.160800
     18 CI1         2.6620   -5.2120    7.6040 c3        1 P13      0.169800
     19 NJ          3.5700   -6.1790    7.0320 n3        1 P13     -0.825200
     20 CI2         4.0550   -5.7950    5.7260 c3        1 P13      0.169800
     21 CH2         4.6720   -4.3800    5.7260 c3        1 P13      0.160800
     22 N1          3.7800   -0.8710   -3.9150 na        1 P13     -0.178400
     23 C21         3.0870   -1.9390   -4.4980 cc        1 P13     -0.078100
     24 C31         2.0810   -2.3830   -3.6430 cd        1 P13     -0.185200
     25 C41         1.3990   -1.5080   -1.2810 ca        1 P13     -0.049000
     26 C51         1.7260   -0.5560   -0.3110 cp        1 P13     -0.130000
     27 C61         2.7870    0.3550   -0.5270 ca        1 P13     -0.107000
     28 C71         3.5350    0.3460   -1.6900 ca        1 P13     -0.130000
     29 C81         3.2190   -0.6110   -2.6690 ca        1 P13     -0.027200
     30 C91         2.1350   -1.5550   -2.4600 ca        1 P13     -0.097800
     31 H1         -0.9500   -0.8440   -0.0300 ha        1 P13      0.170000
     32 H3          2.7030   -0.1240    2.1610 ha        1 P13      0.145000
     33 H6         -2.2530   -0.7240    2.0710 ha        1 P13      0.142000
     34 HN1A       -4.7730    2.9800    5.8410 hn        1 P13      0.467467
     35 HN2        -4.4980    2.7890    4.2050 hn        1 P13      0.467467
     36 HB1        -3.9580    0.7810    6.3560 hx        1 P13      0.118200
     37 HB2        -2.6930    1.8040    5.5030 hx        1 P13      0.118200
     38 HA1        -4.5190   -0.3390    4.1560 hc        1 P13      0.085700
     39 HA2        -3.2970    0.7070    3.3020 hc        1 P13      0.085700
     40 HC1        -2.5380   -1.0810    5.7280 h1        1 P13      0.087700
     41 HC2        -2.5680   -1.7020    4.0020 h1        1 P13      0.087700
     42 HA11        0.9220    0.1300    5.4970 hx        1 P13      0.107200
     43 HA12        2.2920    0.9010    4.5500 hx        1 P13      0.107200
     44 HB11        1.9350   -2.0150    5.1160 hn        1 P13      0.459300
     45 HG1         3.9200    0.0350    6.0060 hx        1 P13      0.100200
     46 HG2         2.6900   -0.8470    7.0420 hx        1 P13      0.100200
     47 HD1         5.2020   -1.9780    5.5800 h1        1 P13      0.080200
     48 HD2         4.8930   -1.8330    7.3670 h1        1 P13      0.080200
     49 HH11        4.0680   -3.7580    8.4230 h1        1 P13      0.046950
     50 HH12        2.4580   -3.0690    7.9150 h1        1 P13      0.046950
     51 HI11        1.6730   -5.1690    7.0590 h1        1 P13      0.044200
     52 HI12        2.4570   -5.5150    8.6690 h1        1 P13      0.044200
     53 HJ1         3.1650   -7.0960    7.0160 hn        1 P13      0.393800
     54 HI21        3.2480   -5.8320    4.9360 h1        1 P13      0.044200
     55 HI22        4.8640   -6.5210    5.4280 h1        1 P13      0.044200
     56 HH21        4.8560   -4.0820    4.6570 h1        1 P13      0.046950
     57 HH22        5.6670   -4.4220    6.2560 h1        1 P13      0.046950
     58 HN1         4.5260   -0.3730   -4.3250 hn        1 P13      0.314700
     59 H2          3.3680   -2.3050   -5.4890 h4        1 P13      0.186000
     60 H31         1.3850   -3.1960   -3.8240 ha        1 P13      0.169000
     61 H4          0.5800   -2.2230   -1.1180 ha        1 P13      0.135000
     62 H61         3.0080    1.1090    0.2450 ha        1 P13      0.123000
     63 H7          4.3480    1.0680   -1.8460 ha        1 P13      0.149000
     64 HN3        -5.6420    1.8500    4.9700 hn        1 P13      0.467467
     65 HB21        3.1140   -1.3860    4.1430 hn        1 P13      0.459300
@<TRIPOS>BOND
     1    1    2 ar  
     2    1    6 ar  
     3    1   31 1   
     4    2    3 ar  
     5    2   26 1   
     6    3    4 ar  
     7    3   32 1   
     8    4    5 ar  
     9    4   12 1   
    10    5    6 ar  
    11    5   11 1   
    12    6   33 1   
    13    7    8 1   
    14    7   34 1   
    15    7   35 1   
    16    7   64 1   
    17    8    9 1   
    18    8   36 1   
    19    8   37 1   
    20    9   10 1   
    21    9   38 1   
    22    9   39 1   
    23   10   11 1   
    24   10   40 1   
    25   10   41 1   
    26   12   13 1   
    27   12   42 1   
    28   12   43 1   
    29   13   14 1   
    30   13   44 1   
    31   13   65 1   
    32   14   15 1   
    33   14   45 1   
    34   14   46 1   
    35   15   16 1   
    36   15   47 1   
    37   15   48 1   
    38   16   17 1   
    39   16   21 1   
    40   17   18 1   
    41   17   49 1   
    42   17   50 1   
    43   18   19 1   
    44   18   51 1   
    45   18   52 1   
    46   19   20 1   
    47   19   53 1   
    48   20   21 1   
    49   20   54 1   
    50   20   55 1   
    51   21   56 1   
    52   21   57 1   
    53   22   23 1   
    54   22   29 1   
    55   22   58 1   
    56   23   24 2   
    57   23   59 1   
    58   24   30 1   
    59   24   60 1   
    60   25   26 ar  
    61   25   30 ar  
    62   25   61 1   
    63   26   27 ar  
    64   27   28 ar  
    65   27   62 1   
    66   28   29 ar  
    67   28   63 1   
    68   29   30 ar  
@<TRIPOS>SUBSTRUCTURE
     1 P13         1 TEMP              0 ****  ****    0 ROOT
