@<TRIPOS>MOLECULE
P13
   63    56     1     0     0
SMALL
bcc


@<TRIPOS>ATOM
      1 C1         -1.6510    1.9710   -2.8460 c1        1 P13     -0.145500
      2 C2         -0.2630    1.8620   -2.8720 c1        1 P13     -0.060000
      3 C3          0.4560    1.7470   -1.6710 c1        1 P13     -0.099000
      4 C4         -0.2290    1.7420   -0.4380 c1        1 P13     -0.132000
      5 C5         -1.6120    1.8510   -0.4160 c1        1 P13      0.083000
      6 C6         -2.3300    1.9670   -1.6320 c1        1 P13     -0.145500
      7 N          -3.5720   -2.4090    2.1190 n3        1 P13     -0.354000
      8 CB         -4.2610   -1.3840    1.5530 c3        1 P13     -0.074000
      9 CA         -3.6200   -0.0030    1.9800 c3        1 P13     -0.205000
     10 C          -3.5200    0.9500    0.7160 c3        1 P13     -0.019000
     11 O          -2.3120    1.7310    0.8060 os        1 P13     -0.214000
     12 CA1         0.5500    1.6420    0.8600 c3        1 P13     -0.037000
     13 NB          1.1900    0.4360    0.9200 n3        1 P13     -0.296000
     14 CG          1.8040    0.2780    2.2610 c3        1 P13     -0.075000
     15 CD          1.5850   -1.2070    2.7670 c3        1 P13     -0.114000
     16 NE          2.1290   -1.3650    4.1130 n3        1 P13     -0.242000
     17 CH1         2.7050   -2.6830    4.2360 c3        1 P13     -0.076500
     18 CI1         1.6510   -3.7700    4.2330 c3        1 P13     -0.106000
     19 NJ          0.5810   -3.5130    5.2210 n3        1 P13     -0.298000
     20 CI2         0.0200   -2.2180    5.0980 c3        1 P13     -0.106000
     21 CH2         1.0760   -1.1230    5.0910 c3        1 P13     -0.076500
     22 N1          2.6380    2.0460   -7.7200 n2        1 P13     -0.217000
     23 C21         2.7140    0.7180   -7.9780 c1        1 P13     -0.080000
     24 C31         2.0410    0.0370   -6.9430 c1        1 P13     -0.199000
     25 C41         0.8130    0.8560   -4.8460 c1        1 P13     -0.071000
     26 C51         0.4440    2.0060   -4.1240 c1        1 P13     -0.060000
     27 C61         0.8040    3.2520   -4.5870 c1        1 P13     -0.099000
     28 C71         1.5480    3.3730   -5.7970 c1        1 P13     -0.145000
     29 C81         1.9140    2.2200   -6.5160 c1        1 P13      0.001000
     30 C91         1.5550    0.9810   -6.0520 c1        1 P13     -0.085000
     31 H1         -2.1870    2.0570   -3.7480 ha        1 P13      0.136500
     32 H3          1.4760    1.6680   -1.6920 ha        1 P13      0.136500
     33 H6         -3.3240    2.0460   -1.6180 ha        1 P13      0.136500
     34 HN1A       -4.1190   -2.9020    2.5900 hn        1 P13      0.148500
     35 HN2        -3.1720   -2.9460    1.4270 hn        1 P13      0.148500
     36 HB1        -4.2310   -1.4710    0.5830 h1        1 P13      0.066000
     37 HB2        -5.1280   -1.4140    1.8340 h1        1 P13      0.066000
     38 HA1        -4.2000    0.4340    2.6900 hc        1 P13      0.102500
     39 HA2        -2.7310   -0.1550    2.3360 hc        1 P13      0.102500
     40 HC1        -3.5050    0.4180   -0.0870 h1        1 P13      0.096500
     41 HC2        -4.2920    1.5490    0.6950 h1        1 P13      0.096500
     42 HA11       -0.0730    1.7250    1.6360 h1        1 P13      0.106000
     43 HA12        1.2550    2.4100    0.8980 h1        1 P13      0.106000
     44 HB11        0.6100   -0.2170    0.7790 hn        1 P13      0.157000
     45 HG1         2.7950    0.4750    2.2020 h1        1 P13      0.096500
     46 HG2         1.3620    0.9330    2.9190 h1        1 P13      0.096500
     47 HD1         2.0560   -1.8450    2.1390 h1        1 P13      0.073000
     48 HD2         0.5780   -1.4190    2.7800 h1        1 P13      0.073000
     49 HH11        3.2590   -2.8160    3.5620 h1        1 P13      0.096500
     50 HH12        3.1910   -2.7320    5.0470 h1        1 P13      0.096500
     51 HI11        1.2820   -3.8170    3.4070 h1        1 P13      0.067500
     52 HI12        2.1160   -4.7120    4.4600 h1        1 P13      0.067500
     53 HJ1        -0.0530   -4.1170    5.1350 hn        1 P13      0.172000
     54 HI21       -0.5950   -2.0610    5.8700 h1        1 P13      0.067500
     55 HI22       -0.4730   -2.1730    4.3050 h1        1 P13      0.067500
     56 HH21        0.6140   -0.2140    4.8700 h1        1 P13      0.096500
     57 HH22        1.4710   -1.0680    5.9660 h1        1 P13      0.096500
     58 HN1         2.9890    2.7080   -8.2320 DU        1 P13      0.190333
     59 H2          3.2280    0.2790   -8.7580 DU        1 P13      0.190333
     60 H31         1.9440   -0.8790   -6.8700 DU        1 P13      0.190333
     61 H4          0.6630    0.0080   -4.4780 ha        1 P13      0.136000
     62 H61         0.5550    4.0590   -4.0750 ha        1 P13      0.136500
     63 H7          1.7900    4.1960   -6.1060 ha        1 P13      0.134000
@<TRIPOS>BOND
     1    1    6 1   
     2    1   31 1   
     3    2    3 1   
     4    3   32 1   
     5    4    5 1   
     6    4   12 1   
     7    5   11 1   
     8    6   33 1   
     9    7    8 1   
    10    7   34 1   
    11    7   35 1   
    12    8    9 1   
    13    8   36 1   
    14    8   37 1   
    15    9   10 1   
    16    9   38 1   
    17    9   39 1   
    18   10   11 1   
    19   10   40 1   
    20   10   41 1   
    21   12   13 1   
    22   12   42 1   
    23   12   43 1   
    24   13   14 1   
    25   13   44 1   
    26   14   15 1   
    27   14   45 1   
    28   14   46 1   
    29   15   16 1   
    30   15   47 1   
    31   15   48 1   
    32   16   17 1   
    33   16   21 1   
    34   17   18 1   
    35   17   49 1   
    36   17   50 1   
    37   18   19 1   
    38   18   51 1   
    39   18   52 1   
    40   19   20 1   
    41   19   53 1   
    42   20   21 1   
    43   20   54 1   
    44   20   55 1   
    45   21   56 1   
    46   21   57 1   
    47   22   23 1   
    48   22   29 1   
    49   23   24 1   
    50   24   30 1   
    51   25   30 1   
    52   25   61 1   
    53   26   27 1   
    54   27   62 1   
    55   28   29 1   
    56   28   63 1   
@<TRIPOS>SUBSTRUCTURE
     1 P13         1 TEMP              0 ****  ****    0 ROOT
