@<TRIPOS>MOLECULE
P14
   56    51     1     0     0
SMALL
bcc


@<TRIPOS>ATOM
      1 C1         -0.8680    0.4440    2.7270 c1        1 P14      0.031600
      2 C2          0.5260    0.4040    2.7370 c1        1 P14     -0.017100
      3 C3          1.2260    0.3990    3.9700 c1        1 P14     -0.093500
      4 C4          0.5210    0.4330    5.1710 c1        1 P14      0.126600
      5 C5         -0.8780    0.4720    5.1610 c1        1 P14     -0.121500
      6 C6         -1.5740    0.4780    3.9340 c1        1 P14     -0.065500
      7 OA         -1.5950    0.3970    1.4510 os        1 P14     -0.309400
      8 CB         -2.1900    1.6650    1.0560 c3        1 P14      0.121400
      9 CG         -3.5550    1.4080    0.4230 c3        1 P14      0.163800
     10 ND         -3.7270    2.2630   -0.7090 nh        1 P14     -0.832200
     11 CE         -5.0060    2.8180   -1.0020 c2        1 P14      0.985100
     12 NZ1        -5.3720    4.0260   -0.4590 n2        1 P14     -0.900100
     13 NZ2        -5.9120    2.1120   -1.8610 nh        1 P14     -0.921800
     14 CA          1.2910    0.3510    1.4320 c3        1 P14      0.170900
     15 NB          1.3970   -1.0340    0.9910 n3        1 P14     -0.821200
     16 CG1         2.5800   -1.1870    0.1130 c3        1 P14      0.166800
     17 CD          2.2640   -2.2370   -1.0270 c3        1 P14     -0.124400
     18 CE1         3.0920   -1.9260   -2.2360 c3        1 P14     -0.090400
     19 CZ          2.4930   -2.6090   -3.4440 c3        1 P14      0.196800
     20 NH          3.1840   -2.2030   -4.6060 nh        1 P14     -0.835200
     21 CI          2.6860   -2.6060   -5.9690 c2        1 P14      0.985100
     22 NJ1         3.3340   -3.4980   -6.6640 n2        1 P14     -0.900100
     23 NJ2         1.5180   -2.0180   -6.4910 nh        1 P14     -0.923800
     24 O1          1.2500    0.3280    6.4550 os        1 P14     -0.304400
     25 C11         1.2550    1.5430    7.2230 c3        1 P14      0.108700
     26 H3          2.2490    0.3710    3.9790 ha        1 P14      0.093500
     27 H5         -1.3760    0.4950    6.0090 ha        1 P14      0.097500
     28 H6         -2.5500    0.5050    3.9260 ha        1 P14      0.071500
     29 HB1        -1.5840    2.1310    0.3780 h1        1 P14      0.073200
     30 HB2        -2.2970    2.2330    1.8430 h1        1 P14      0.073200
     31 HG1        -4.2800    1.5980    1.0970 h1        1 P14      0.077200
     32 HG2        -3.6090    0.4840    0.1430 h1        1 P14      0.077200
     33 HD         -2.9960    2.4930   -1.2260 hn        1 P14      0.478800
     34 HZ11       -4.7830    4.4730    0.0960 DU        1 P14      0.278500
     35 HZ12       -6.2180    4.4040   -0.6500 hn        1 P14      0.525400
     36 HZ21       -5.7290    1.2340   -2.0970 hn        1 P14      0.485300
     37 HZ22       -6.5520    2.5490   -2.2570 hn        1 P14      0.485300
     38 HA1         2.1580    0.7110    1.5610 h1        1 P14      0.052700
     39 HA2         0.8150    0.8760    0.7500 h1        1 P14      0.052700
     40 HB11        0.6240   -1.2710    0.5190 hn        1 P14      0.370800
     41 HG11        3.3610   -1.5110    0.6590 h1        1 P14      0.060200
     42 HG12        2.8140   -0.2780   -0.3120 h1        1 P14      0.060200
     43 HD1         2.4700   -3.1070   -0.7200 hc        1 P14      0.051700
     44 HD2         1.2750   -2.1890   -1.2730 hc        1 P14      0.051700
     45 HE1         3.1070   -0.9850   -2.3770 hc        1 P14      0.066200
     46 HE2         4.0530   -2.2660   -2.0920 hc        1 P14      0.066200
     47 HZ1         2.5740   -3.5800   -3.3430 h1        1 P14      0.067700
     48 HZ2         1.5330   -2.3620   -3.5220 h1        1 P14      0.067700
     49 HH          3.8000   -1.5250   -4.5390 hn        1 P14      0.479800
     50 HJ11        4.0730   -3.8670   -6.3290 DU        1 P14      0.278500
     51 HJ12        3.0350   -3.7440   -7.4950 hn        1 P14      0.525400
     52 HJ21        1.4040   -1.9370   -7.4190 hn        1 P14      0.483800
     53 HJ22        0.8750   -1.6280   -5.8830 hn        1 P14      0.483800
     54 H11         0.5370    1.5170    7.8750 h1        1 P14      0.056033
     55 H12         2.1520    1.6380    7.7080 h1        1 P14      0.056033
     56 H13         1.1250    2.3130    6.6180 h1        1 P14      0.056033
@<TRIPOS>BOND
     1    1    6 3   
     2    1    7 1   
     3    2    3 3   
     4    2   14 1   
     5    3   26 1   
     6    4    5 3   
     7    4   24 1   
     8    5   27 1   
     9    6   28 1   
    10    7    8 1   
    11    8    9 1   
    12    8   29 1   
    13    8   30 1   
    14    9   10 1   
    15    9   31 1   
    16    9   32 1   
    17   10   11 1   
    18   10   33 1   
    19   11   12 2   
    20   11   13 1   
    21   12   35 1   
    22   13   36 1   
    23   13   37 1   
    24   14   15 1   
    25   14   38 1   
    26   14   39 1   
    27   15   16 1   
    28   15   40 1   
    29   16   17 1   
    30   16   41 1   
    31   16   42 1   
    32   17   18 1   
    33   17   43 1   
    34   17   44 1   
    35   18   19 1   
    36   18   45 1   
    37   18   46 1   
    38   19   20 1   
    39   19   47 1   
    40   19   48 1   
    41   20   21 1   
    42   20   49 1   
    43   21   22 2   
    44   21   23 1   
    45   22   51 1   
    46   23   52 1   
    47   23   53 1   
    48   24   25 1   
    49   25   54 1   
    50   25   55 1   
    51   25   56 1   
@<TRIPOS>SUBSTRUCTURE
     1 P14         1 TEMP              0 ****  ****    0 ROOT
