@<TRIPOS>MOLECULE
P14
   56    56     1     0     0
SMALL
bcc


@<TRIPOS>ATOM
      1 C1         -0.3660    0.9070   -0.5290 ca        1 P14      0.056100
      2 C2          0.6230    1.7740   -1.0480 ca        1 P14     -0.091300
      3 C3          1.7460    2.0330   -0.2700 ca        1 P14     -0.148000
      4 C4          1.8950    1.4250    0.9920 ca        1 P14      0.133100
      5 C5          0.9150    0.5580    1.4880 ca        1 P14     -0.172000
      6 C6         -0.2210    0.3050    0.7220 ca        1 P14     -0.134000
      7 OA         -1.5110    0.7560   -1.3120 os        1 P14     -0.360900
      8 CB         -2.1950   -0.4850   -1.1350 c3        1 P14      0.116400
      9 CG         -3.2480   -0.5690   -2.2510 c3        1 P14      0.014300
     10 ND         -4.2500    0.4690   -2.1300 nh        1 P14     -0.395100
     11 CE         -5.3640    0.5460   -2.9420 cz        1 P14      0.521300
     12 NZ1        -5.6330   -0.4340   -3.8700 nh        1 P14     -0.502700
     13 NZ2        -6.2250    1.6130   -2.8110 nh        1 P14     -0.502700
     14 CA          0.4040    2.3870   -2.4030 c3        1 P14      0.215100
     15 NB          1.3790    3.3160   -2.9200 n3        1 P14     -0.817200
     16 CG1         2.6100    2.7080   -3.3900 c3        1 P14      0.156800
     17 CD          3.7600    3.7070   -3.5370 c3        1 P14     -0.094400
     18 CE1         4.9630    3.0170   -4.1390 c3        1 P14     -0.098400
     19 CZ          6.2140    3.8940   -4.1300 c3        1 P14      0.021300
     20 NH          6.1300    5.0110   -5.0500 nh        1 P14     -0.405100
     21 CI          7.1630    5.9010   -5.2560 cz        1 P14      0.524300
     22 NJ1         8.3470    5.7800   -4.5660 nh        1 P14     -0.503200
     23 NJ2         7.0070    6.9270   -6.1620 nh        1 P14     -0.503200
     24 O1          3.0590    1.7530    1.6510 os        1 P14     -0.326900
     25 C11         3.2220    1.2080    2.9590 c3        1 P14      0.108700
     26 H3          2.5430    2.7110   -0.6100 ha        1 P14      0.147000
     27 H5          1.0250    0.0780    2.4720 ha        1 P14      0.158000
     28 H6         -0.9900   -0.3720    1.1200 ha        1 P14      0.142000
     29 HB1        -2.6780   -0.5110   -0.1220 h1        1 P14      0.073700
     30 HB2        -1.4860   -1.3480   -1.2430 h1        1 P14      0.073700
     31 HG1        -3.7390   -1.5820   -2.1690 h1        1 P14      0.078200
     32 HG2        -2.7300   -0.4810   -3.2500 h1        1 P14      0.078200
     33 HD         -4.0020    1.2560   -1.5620 hn        1 P14      0.333700
     34 HZ11       -5.0200   -1.2090   -3.9860 hn        1 P14      0.328450
     35 HZ12       -6.4770   -0.4190   -4.3980 hn        1 P14      0.328450
     36 HZ21       -6.0610    2.3230   -2.1330 hn        1 P14      0.328450
     37 HZ22       -7.0670    1.6590   -3.3410 hn        1 P14      0.328450
     38 HA1        -0.5780    2.9460   -2.3650 h1        1 P14      0.067200
     39 HA2         0.2840    1.5440   -3.1440 h1        1 P14      0.067200
     40 HB11        1.5700    4.0390   -2.2500 hn        1 P14      0.366800
     41 HG11        2.9570    1.8690   -2.7160 h1        1 P14      0.043200
     42 HG12        2.3870    2.2550   -4.3980 h1        1 P14      0.043200
     43 HD1         3.4370    4.5630   -4.1850 hc        1 P14      0.049700
     44 HD2         4.0260    4.1280   -2.5310 hc        1 P14      0.049700
     45 HE1         5.2140    2.1000   -3.5370 hc        1 P14      0.078700
     46 HE2         4.7290    2.6730   -5.1810 hc        1 P14      0.078700
     47 HZ1         6.3780    4.2910   -3.0860 h1        1 P14      0.069200
     48 HZ2         7.0980    3.2510   -4.4170 h1        1 P14      0.069200
     49 HH          5.2730    5.1280   -5.5520 hn        1 P14      0.324700
     50 HJ11        8.4810    5.0470   -3.9060 hn        1 P14      0.328950
     51 HJ12        9.0970    6.4160   -4.7220 hn        1 P14      0.328950
     52 HJ21        7.7400    7.5800   -6.3270 hn        1 P14      0.328950
     53 HJ22        6.1630    7.0310   -6.6790 hn        1 P14      0.328950
     54 H11         4.2020    1.6350    3.2940 h1        1 P14      0.055700
     55 H12         2.3950    1.5440    3.6310 h1        1 P14      0.055700
     56 H13         3.2700    0.0930    2.9150 h1        1 P14      0.055700
@<TRIPOS>BOND
     1    1    2 ar  
     2    1    6 ar  
     3    1    7 1   
     4    2    3 ar  
     5    2   14 1   
     6    3    4 ar  
     7    3   26 1   
     8    4    5 ar  
     9    4   24 1   
    10    5    6 ar  
    11    5   27 1   
    12    6   28 1   
    13    7    8 1   
    14    8    9 1   
    15    8   29 1   
    16    8   30 1   
    17    9   10 1   
    18    9   31 1   
    19    9   32 1   
    20   10   11 2   
    21   10   33 1   
    22   11   12 1   
    23   11   13 1   
    24   12   34 1   
    25   12   35 1   
    26   13   36 1   
    27   13   37 1   
    28   14   15 1   
    29   14   38 1   
    30   14   39 1   
    31   15   16 1   
    32   15   40 1   
    33   16   17 1   
    34   16   41 1   
    35   16   42 1   
    36   17   18 1   
    37   17   43 1   
    38   17   44 1   
    39   18   19 1   
    40   18   45 1   
    41   18   46 1   
    42   19   20 1   
    43   19   47 1   
    44   19   48 1   
    45   20   21 2   
    46   20   49 1   
    47   21   22 1   
    48   21   23 1   
    49   22   50 1   
    50   22   51 1   
    51   23   52 1   
    52   23   53 1   
    53   24   25 1   
    54   25   54 1   
    55   25   55 1   
    56   25   56 1   
@<TRIPOS>SUBSTRUCTURE
     1 P14         1 TEMP              0 ****  ****    0 ROOT
