@<TRIPOS>MOLECULE
P14
   56    56     1     0     0
SMALL
bcc


@<TRIPOS>ATOM
      1 C1          2.8450   -5.0830   -5.0900 ca        1 P14      0.024100
      2 C2          1.8160   -4.9370   -4.1380 ca        1 P14     -0.049300
      3 C3          2.0320   -5.4160   -2.8490 ca        1 P14     -0.133000
      4 C4          3.2530   -6.0380   -2.5190 ca        1 P14      0.145100
      5 C5          4.2700   -6.1790   -3.4730 ca        1 P14     -0.187000
      6 C6          4.0590   -5.6940   -4.7600 ca        1 P14     -0.115000
      7 OA          2.6210   -4.6920   -6.4120 os        1 P14     -0.362900
      8 CB          3.3630   -3.5270   -6.7880 c3        1 P14      0.115400
      9 CG          3.5570   -3.5840   -8.3120 c3        1 P14      0.005300
     10 ND          4.2610   -4.7790   -8.7280 nh        1 P14     -0.388100
     11 CE          4.5880   -5.0400  -10.0450 cz        1 P14      0.519300
     12 NZ1         4.4140   -4.0850  -11.0200 nh        1 P14     -0.501700
     13 NZ2         5.1230   -6.2640  -10.3820 nh        1 P14     -0.501700
     14 CA          0.5360   -4.2460   -4.5130 c3        1 P14      0.216100
     15 NB         -0.6170   -4.7010   -3.7600 n3        1 P14     -0.837200
     16 CG1        -1.8620   -4.0880   -4.1670 c3        1 P14      0.176800
     17 CD         -2.9830   -4.3460   -3.1540 c3        1 P14     -0.090400
     18 CE1        -4.2540   -3.6590   -3.6010 c3        1 P14     -0.099400
     19 CZ         -5.2840   -3.5320   -2.4800 c3        1 P14      0.021300
     20 NH         -5.8000   -4.8110   -2.0360 nh        1 P14     -0.404100
     21 CI         -6.7590   -4.9390   -1.0540 cz        1 P14      0.524300
     22 NJ1        -7.2960   -3.8300   -0.4420 nh        1 P14     -0.503700
     23 NJ2        -7.1900   -6.1950   -0.6810 nh        1 P14     -0.503700
     24 O1          3.3380   -6.4740   -1.2170 os        1 P14     -0.316900
     25 C11         4.5740   -7.0680   -0.8220 c3        1 P14      0.107700
     26 H3          1.2680   -5.3080   -2.0620 ha        1 P14      0.174000
     27 H5          5.2250   -6.6610   -3.2190 ha        1 P14      0.155000
     28 H6          4.8480   -5.7900   -5.5200 ha        1 P14      0.125000
     29 HB1         2.7530   -2.6170   -6.5440 h1        1 P14      0.074700
     30 HB2         4.3460   -3.4830   -6.2510 h1        1 P14      0.074700
     31 HG1         2.5440   -3.5470   -8.8080 h1        1 P14      0.076200
     32 HG2         4.1540   -2.6730   -8.6090 h1        1 P14      0.076200
     33 HD          4.2450   -5.5390   -8.0720 hn        1 P14      0.329700
     34 HZ11        4.0310   -3.1940  -10.7980 hn        1 P14      0.327950
     35 HZ12        4.7360   -4.2390  -11.9490 hn        1 P14      0.327950
     36 HZ21        5.4430   -6.4460  -11.3060 hn        1 P14      0.327950
     37 HZ22        5.2620   -6.9680   -9.6920 hn        1 P14      0.327950
     38 HA1         0.6650   -3.1440   -4.3010 h1        1 P14      0.048200
     39 HA2         0.3810   -4.3570   -5.6290 h1        1 P14      0.048200
     40 HB11       -0.6830   -5.7000   -3.7660 hn        1 P14      0.370800
     41 HG11       -2.2080   -4.4450   -5.1820 h1        1 P14      0.035200
     42 HG12       -1.6990   -2.9750   -4.2430 h1        1 P14      0.035200
     43 HD1        -2.6700   -3.9610   -2.1470 hc        1 P14      0.051700
     44 HD2        -3.1560   -5.4500   -3.0530 hc        1 P14      0.051700
     45 HE1        -4.6950   -4.1950   -4.4830 hc        1 P14      0.076700
     46 HE2        -4.0220   -2.6100   -3.9340 hc        1 P14      0.076700
     47 HZ1        -6.1440   -2.9050   -2.8580 h1        1 P14      0.069200
     48 HZ2        -4.8060   -3.0030   -1.6030 h1        1 P14      0.069200
     49 HH         -5.4030   -5.6330   -2.4440 hn        1 P14      0.323700
     50 HJ11       -6.9980   -2.9140   -0.6920 hn        1 P14      0.328700
     51 HJ12       -8.0010   -3.9220    0.2560 hn        1 P14      0.328700
     52 HJ21       -7.8900   -6.3090    0.0170 hn        1 P14      0.328700
     53 HJ22       -6.8220   -7.0120   -1.1140 hn        1 P14      0.328700
     54 H11         5.4140   -6.3410   -0.9370 h1        1 P14      0.056033
     55 H12         4.7680   -7.9970   -1.4110 h1        1 P14      0.056033
     56 H13         4.4040   -7.3110    0.2580 h1        1 P14      0.056033
@<TRIPOS>BOND
     1    1    2 ar  
     2    1    6 ar  
     3    1    7 1   
     4    2    3 ar  
     5    2   14 1   
     6    3    4 ar  
     7    3   26 1   
     8    4    5 ar  
     9    4   24 1   
    10    5    6 ar  
    11    5   27 1   
    12    6   28 1   
    13    7    8 1   
    14    8    9 1   
    15    8   29 1   
    16    8   30 1   
    17    9   10 1   
    18    9   31 1   
    19    9   32 1   
    20   10   11 2   
    21   10   33 1   
    22   11   12 1   
    23   11   13 1   
    24   12   34 1   
    25   12   35 1   
    26   13   36 1   
    27   13   37 1   
    28   14   15 1   
    29   14   38 1   
    30   14   39 1   
    31   15   16 1   
    32   15   40 1   
    33   16   17 1   
    34   16   41 1   
    35   16   42 1   
    36   17   18 1   
    37   17   43 1   
    38   17   44 1   
    39   18   19 1   
    40   18   45 1   
    41   18   46 1   
    42   19   20 1   
    43   19   47 1   
    44   19   48 1   
    45   20   21 2   
    46   20   49 1   
    47   21   22 1   
    48   21   23 1   
    49   22   50 1   
    50   22   51 1   
    51   23   52 1   
    52   23   53 1   
    53   24   25 1   
    54   25   54 1   
    55   25   55 1   
    56   25   56 1   
@<TRIPOS>SUBSTRUCTURE
     1 P14         1 TEMP              0 ****  ****    0 ROOT
