@<TRIPOS>MOLECULE
P15
   48    47     1     0     0
SMALL
bcc


@<TRIPOS>ATOM
      1 C13         0.0570   -1.5200   -1.5540 c3        1 P15      0.117700
      2 O6          0.4500   -1.0170   -0.2890 os        1 P15     -0.425600
      3 C12         0.7440    0.3790   -0.3220 c3        1 P15      0.123400
      4 C11         1.2980    0.7380    1.0520 c3        1 P15      0.127400
      5 O5          2.6810    1.0330    0.8660 os        1 P15     -0.429600
      6 C10         3.3650    1.2200    2.1030 c3        1 P15      0.127400
      7 C9          4.7710    1.6950    1.7540 c3        1 P15      0.127400
      8 O4          4.8270    3.0800    2.0910 os        1 P15     -0.429600
      9 C8          6.0420    3.6910    1.6640 c3        1 P15      0.127400
     10 C7          6.0440    5.1030    2.2420 c3        1 P15      0.127400
     11 O3          6.9990    5.1060    3.3010 os        1 P15     -0.429600
     12 C6          6.9810    6.3250    4.0400 c3        1 P15      0.127400
     13 C5          8.1510    6.2580    5.0150 c3        1 P15      0.127400
     14 O2          9.1480    7.1470    4.5140 os        1 P15     -0.428600
     15 C4         10.3700    7.0530    5.2420 c3        1 P15      0.127400
     16 C3         11.2730    8.1640    4.7160 c3        1 P15      0.128400
     17 O1         11.3210    9.1640    5.7330 os        1 P15     -0.438600
     18 C2         11.9940   10.3450    5.3020 c3        1 P15      0.087400
     19 C1         12.0160   11.2830    6.5040 c3        1 P15      0.131400
     20 OXT        12.8160   10.7710    7.5490 oh        1 P15     -0.600800
     21 H131        0.8780   -1.3950   -2.3020 h1        1 P15      0.032700
     22 H132       -0.1460   -2.6050   -1.3720 h1        1 P15      0.032700
     23 H133       -0.8670   -1.0040   -1.9140 h1        1 P15      0.032700
     24 H121       -0.2010    0.9490   -0.5260 h1        1 P15      0.042700
     25 H122        1.4960    0.5980   -1.1260 h1        1 P15      0.042700
     26 H111        1.1770   -0.1200    1.7670 h1        1 P15      0.043200
     27 H112        0.7810    1.6450    1.4610 h1        1 P15      0.043200
     28 H101        3.4070    0.2430    2.6520 h1        1 P15      0.043700
     29 H102        2.8310    1.9830    2.7300 h1        1 P15      0.043700
     30 H91         4.9790    1.5540    0.6600 h1        1 P15      0.043700
     31 H92         5.5340    1.1380    2.3590 h1        1 P15      0.043700
     32 H81         6.0620    3.7280    0.5430 h1        1 P15      0.043200
     33 H82         6.9240    3.1070    2.0380 h1        1 P15      0.043200
     34 H71         6.3580    5.8450    1.4610 h1        1 P15      0.043700
     35 H72         5.0280    5.3740    2.6340 h1        1 P15      0.043700
     36 H61         6.0110    6.4030    4.5990 h1        1 P15      0.043700
     37 H62         7.0890    7.2010    3.3480 h1        1 P15      0.043700
     38 H51         8.5580    5.2140    5.0780 h1        1 P15      0.044200
     39 H52         7.8320    6.6010    6.0350 h1        1 P15      0.044200
     40 H41        10.8360    6.0500    5.0540 h1        1 P15      0.043200
     41 H42        10.1790    7.1810    6.3400 h1        1 P15      0.043200
     42 H31        10.8600    8.5970    3.7660 h1        1 P15      0.045200
     43 H32        12.3100    7.7750    4.5350 h1        1 P15      0.045200
     44 H21        11.4370   10.8100    4.4480 h1        1 P15      0.039200
     45 H22        13.0370   10.0880    4.9780 h1        1 P15      0.039200
     46 H11        10.9700   11.4610    6.8700 h1        1 P15      0.053200
     47 H12        12.4950   12.2560    6.2180 h1        1 P15      0.053200
     48 HOXT       12.4640    9.9000    7.7720 ho        1 P15      0.412000
@<TRIPOS>BOND
     1    1    2 1   
     2    1   21 1   
     3    1   22 1   
     4    1   23 1   
     5    2    3 1   
     6    3    4 1   
     7    3   24 1   
     8    3   25 1   
     9    4    5 1   
    10    4   26 1   
    11    4   27 1   
    12    5    6 1   
    13    6    7 1   
    14    6   28 1   
    15    6   29 1   
    16    7    8 1   
    17    7   30 1   
    18    7   31 1   
    19    8    9 1   
    20    9   10 1   
    21    9   32 1   
    22    9   33 1   
    23   10   11 1   
    24   10   34 1   
    25   10   35 1   
    26   11   12 1   
    27   12   13 1   
    28   12   36 1   
    29   12   37 1   
    30   13   14 1   
    31   13   38 1   
    32   13   39 1   
    33   14   15 1   
    34   15   16 1   
    35   15   40 1   
    36   15   41 1   
    37   16   17 1   
    38   16   42 1   
    39   16   43 1   
    40   17   18 1   
    41   18   19 1   
    42   18   44 1   
    43   18   45 1   
    44   19   20 1   
    45   19   46 1   
    46   19   47 1   
    47   20   48 1   
@<TRIPOS>SUBSTRUCTURE
     1 P15         1 TEMP              0 ****  ****    0 ROOT
