@<TRIPOS>MOLECULE
P15
   48    47     1     0     0
SMALL
bcc


@<TRIPOS>ATOM
      1 C13        -6.1680   -2.8090   -8.9650 c3        1 P15      0.118700
      2 O6         -5.7770   -3.0070   -7.5900 os        1 P15     -0.425600
      3 C12        -4.8610   -2.0100   -7.0940 c3        1 P15      0.125400
      4 C11        -4.6800   -2.1870   -5.5660 c3        1 P15      0.128400
      5 O5         -3.4830   -1.5380   -5.1500 os        1 P15     -0.430600
      6 C10        -3.3670   -1.3890   -3.7310 c3        1 P15      0.129400
      7 C9         -1.8920   -1.0060   -3.3620 c3        1 P15      0.127400
      8 O4         -1.8540   -0.4890   -2.0190 os        1 P15     -0.428600
      9 C8         -0.5700   -0.4500   -1.4610 c3        1 P15      0.127400
     10 C7         -0.5820    0.4390   -0.2180 c3        1 P15      0.127400
     11 O3          0.4840    0.0820    0.6280 os        1 P15     -0.428600
     12 C6          0.8440    1.0960    1.5490 c3        1 P15      0.127400
     13 C5          1.4620    0.4560    2.8040 c3        1 P15      0.128400
     14 O2          2.5540    1.2450    3.2480 os        1 P15     -0.429600
     15 C4          2.8590    1.0790    4.6140 c3        1 P15      0.128400
     16 C3          4.2370    1.7180    4.9190 c3        1 P15      0.130400
     17 O1          4.3650    1.9320    6.3540 os        1 P15     -0.431600
     18 C2          5.7470    2.0720    6.8150 c3        1 P15      0.129400
     19 C1          5.7540    2.5960    8.2920 c3        1 P15      0.127400
     20 OXT         7.0770    2.5010    8.8250 oh        1 P15     -0.602800
     21 H131       -6.5280   -3.6590   -9.3330 h1        1 P15      0.033700
     22 H132       -6.8600   -2.1110   -9.0130 h1        1 P15      0.033700
     23 H133       -5.3910   -2.5320   -9.4870 h1        1 P15      0.033700
     24 H121       -3.9950   -2.1140   -7.5390 h1        1 P15      0.039700
     25 H122       -5.2190   -1.1170   -7.2800 h1        1 P15      0.039700
     26 H111       -5.4530   -1.7850   -5.0940 h1        1 P15      0.040700
     27 H112       -4.6260   -3.1350   -5.3520 h1        1 P15      0.040700
     28 H101       -3.9780   -0.6780   -3.4240 h1        1 P15      0.044700
     29 H102       -3.6040   -2.2320   -3.2950 h1        1 P15      0.044700
     30 H91        -1.3170   -1.8090   -3.4240 h1        1 P15      0.043700
     31 H92        -1.5630   -0.3120   -3.9930 h1        1 P15      0.043700
     32 H81         0.0640   -0.0840   -2.1200 h1        1 P15      0.044200
     33 H82        -0.2950   -1.3580   -1.2110 h1        1 P15      0.044200
     34 H71        -1.4360    0.3210    0.2630 h1        1 P15      0.044200
     35 H72        -0.4840    1.3880   -0.4890 h1        1 P15      0.044200
     36 H61         0.0460    1.6040    1.8020 h1        1 P15      0.044200
     37 H62         1.5000    1.7010    1.1320 h1        1 P15      0.044200
     38 H51         0.7860    0.4060    3.5120 h1        1 P15      0.044700
     39 H52         1.7800   -0.4560    2.5870 h1        1 P15      0.044700
     40 H41         2.8880    0.1180    4.8300 h1        1 P15      0.040700
     41 H42         2.1710    1.5150    5.1580 h1        1 P15      0.040700
     42 H31         4.3090    2.5800    4.4500 h1        1 P15      0.042200
     43 H32         4.9570    1.1120    4.6100 h1        1 P15      0.042200
     44 H21         6.2170    2.7060    6.2440 h1        1 P15      0.042700
     45 H22         6.1940    1.2020    6.7760 h1        1 P15      0.042700
     46 H11         5.1410    2.0510    8.8370 h1        1 P15      0.035700
     47 H12         5.4610    3.5310    8.3090 h1        1 P15      0.035700
     48 HOXT        7.0860    2.8160    9.6530 ho        1 P15      0.405000
@<TRIPOS>BOND
     1    1    2 1   
     2    1   21 1   
     3    1   22 1   
     4    1   23 1   
     5    2    3 1   
     6    3    4 1   
     7    3   24 1   
     8    3   25 1   
     9    4    5 1   
    10    4   26 1   
    11    4   27 1   
    12    5    6 1   
    13    6    7 1   
    14    6   28 1   
    15    6   29 1   
    16    7    8 1   
    17    7   30 1   
    18    7   31 1   
    19    8    9 1   
    20    9   10 1   
    21    9   32 1   
    22    9   33 1   
    23   10   11 1   
    24   10   34 1   
    25   10   35 1   
    26   11   12 1   
    27   12   13 1   
    28   12   36 1   
    29   12   37 1   
    30   13   14 1   
    31   13   38 1   
    32   13   39 1   
    33   14   15 1   
    34   15   16 1   
    35   15   40 1   
    36   15   41 1   
    37   16   17 1   
    38   16   42 1   
    39   16   43 1   
    40   17   18 1   
    41   18   19 1   
    42   18   44 1   
    43   18   45 1   
    44   19   20 1   
    45   19   46 1   
    46   19   47 1   
    47   20   48 1   
@<TRIPOS>SUBSTRUCTURE
     1 P15         1 TEMP              0 ****  ****    0 ROOT
