@<TRIPOS>MOLECULE
P15
   48    47     1     0     0
SMALL
bcc


@<TRIPOS>ATOM
      1 C13         0.0270   -1.4980   -1.5370 c3        1 P15      0.117700
      2 O6          0.4170   -0.9910   -0.2730 os        1 P15     -0.425600
      3 C12         0.7250    0.4020   -0.3110 c3        1 P15      0.123400
      4 C11         1.2740    0.7620    1.0650 c3        1 P15      0.127400
      5 O5          2.6610    1.0420    0.8860 os        1 P15     -0.429600
      6 C10         3.3380    1.2310    2.1270 c3        1 P15      0.127400
      7 C9          4.7510    1.6900    1.7840 c3        1 P15      0.127400
      8 O4          4.8170    3.0770    2.1100 os        1 P15     -0.429600
      9 C8          6.0400    3.6740    1.6850 c3        1 P15      0.127400
     10 C7          6.0500    5.0910    2.2490 c3        1 P15      0.127400
     11 O3          7.0010    5.0980    3.3120 os        1 P15     -0.429600
     12 C6          6.9890    6.3250    4.0380 c3        1 P15      0.127400
     13 C5          8.1580    6.2600    5.0160 c3        1 P15      0.127400
     14 O2          9.1620    7.1370    4.5070 os        1 P15     -0.428600
     15 C4         10.3820    7.0430    5.2390 c3        1 P15      0.127400
     16 C3         11.2930    8.1420    4.7020 c3        1 P15      0.128400
     17 O1         11.3450    9.1540    5.7060 os        1 P15     -0.438600
     18 C2         12.0270   10.3250    5.2620 c3        1 P15      0.087400
     19 C1         12.0520   11.2780    6.4530 c3        1 P15      0.131400
     20 OXT        12.8450   10.7740    7.5060 oh        1 P15     -0.600800
     21 H131        0.8540   -1.3840   -2.2800 h1        1 P15      0.032700
     22 H132       -0.1880   -2.5790   -1.3510 h1        1 P15      0.032700
     23 H133       -0.8900   -0.9740   -1.9060 h1        1 P15      0.032700
     24 H121       -0.2130    0.9800   -0.5250 h1        1 P15      0.042700
     25 H122        1.4840    0.6090   -1.1110 h1        1 P15      0.042700
     26 H111        1.1390   -0.0900    1.7830 h1        1 P15      0.043200
     27 H112        0.7630    1.6770    1.4650 h1        1 P15      0.043200
     28 H101        3.3670    0.2570    2.6820 h1        1 P15      0.043700
     29 H102        2.8070    2.0020    2.7450 h1        1 P15      0.043700
     30 H91         4.9660    1.5370    0.6930 h1        1 P15      0.043700
     31 H92         5.5040    1.1310    2.4000 h1        1 P15      0.043700
     32 H81         6.0680    3.6990    0.5640 h1        1 P15      0.043200
     33 H82         6.9140    3.0860    2.0710 h1        1 P15      0.043200
     34 H71         6.3710    5.8230    1.4620 h1        1 P15      0.043700
     35 H72         5.0340    5.3730    2.6350 h1        1 P15      0.043700
     36 H61         6.0190    6.4150    4.5950 h1        1 P15      0.043700
     37 H62         7.1040    7.1930    3.3370 h1        1 P15      0.043700
     38 H51         8.5570    5.2140    5.0910 h1        1 P15      0.044200
     39 H52         7.8390    6.6170    6.0310 h1        1 P15      0.044200
     40 H41        10.8410    6.0350    5.0630 h1        1 P15      0.043200
     41 H42        10.1890    7.1850    6.3350 h1        1 P15      0.043200
     42 H31        10.8860    8.5650    3.7450 h1        1 P15      0.045200
     43 H32        12.3280    7.7440    4.5290 h1        1 P15      0.045200
     44 H21        11.4750   10.7840    4.4010 h1        1 P15      0.039200
     45 H22        13.0690   10.0580    4.9440 h1        1 P15      0.039200
     46 H11        11.0060   11.4680    6.8130 h1        1 P15      0.053200
     47 H12        12.5380   12.2440    6.1560 h1        1 P15      0.053200
     48 HOXT       12.4870    9.9080    7.7390 ho        1 P15      0.412000
@<TRIPOS>BOND
     1    1    2 1   
     2    1   21 1   
     3    1   22 1   
     4    1   23 1   
     5    2    3 1   
     6    3    4 1   
     7    3   24 1   
     8    3   25 1   
     9    4    5 1   
    10    4   26 1   
    11    4   27 1   
    12    5    6 1   
    13    6    7 1   
    14    6   28 1   
    15    6   29 1   
    16    7    8 1   
    17    7   30 1   
    18    7   31 1   
    19    8    9 1   
    20    9   10 1   
    21    9   32 1   
    22    9   33 1   
    23   10   11 1   
    24   10   34 1   
    25   10   35 1   
    26   11   12 1   
    27   12   13 1   
    28   12   36 1   
    29   12   37 1   
    30   13   14 1   
    31   13   38 1   
    32   13   39 1   
    33   14   15 1   
    34   15   16 1   
    35   15   40 1   
    36   15   41 1   
    37   16   17 1   
    38   16   42 1   
    39   16   43 1   
    40   17   18 1   
    41   18   19 1   
    42   18   44 1   
    43   18   45 1   
    44   19   20 1   
    45   19   46 1   
    46   19   47 1   
    47   20   48 1   
@<TRIPOS>SUBSTRUCTURE
     1 P15         1 TEMP              0 ****  ****    0 ROOT
