@<TRIPOS>MOLECULE
P15
   48    47     1     0     0
SMALL
bcc


@<TRIPOS>ATOM
      1 C13       -10.1440   -0.2840   -0.3690 c3        1 P15      0.117700
      2 O6         -9.0550    0.4380    0.1770 os        1 P15     -0.425600
      3 C12        -7.9720    0.5750   -0.7430 c3        1 P15      0.123400
      4 C11        -6.8280    1.2240    0.0290 c3        1 P15      0.127400
      5 O5         -5.8190    0.2260    0.1700 os        1 P15     -0.429600
      6 C10        -4.7570    0.6490    1.0230 c3        1 P15      0.127400
      7 C9         -3.6810   -0.4290    0.9430 c3        1 P15      0.127400
      8 O4         -2.6130    0.1210    0.1740 os        1 P15     -0.429600
      9 C8         -1.6050   -0.8450   -0.1170 c3        1 P15      0.127400
     10 C7         -0.4580   -0.0880   -0.7780 c3        1 P15      0.127400
     11 O3          0.5930   -0.0240    0.1840 os        1 P15     -0.429600
     12 C6          1.6700    0.8060   -0.2470 c3        1 P15      0.127400
     13 C5          2.7810    0.6440    0.7850 c3        1 P15      0.127400
     14 O2          3.7930   -0.1510    0.1700 os        1 P15     -0.428600
     15 C4          4.8200   -0.5220    1.0860 c3        1 P15      0.127400
     16 C3          5.9040   -1.2130    0.2650 c3        1 P15      0.128400
     17 O1          6.9950   -0.2970    0.1800 os        1 P15     -0.438600
     18 C2          8.0130   -0.7480   -0.7100 c3        1 P15      0.087400
     19 C1          9.1240    0.2960   -0.6460 c3        1 P15      0.131400
     20 OXT         9.7390    0.3250    0.6240 oh        1 P15     -0.600800
     21 H131       -9.8340   -1.3240   -0.6400 h1        1 P15      0.032700
     22 H132      -10.9060   -0.3030    0.4490 h1        1 P15      0.032700
     23 H133      -10.5510    0.2370   -1.2710 h1        1 P15      0.032700
     24 H121       -7.6680   -0.4300   -1.1370 h1        1 P15      0.042700
     25 H122       -8.2940    1.2310   -1.5940 h1        1 P15      0.042700
     26 H111       -6.4090    2.0920   -0.5450 h1        1 P15      0.043200
     27 H112       -7.1750    1.5720    1.0380 h1        1 P15      0.043200
     28 H101       -4.3550    1.6400    0.6800 h1        1 P15      0.043700
     29 H102       -5.1420    0.7410    2.0720 h1        1 P15      0.043700
     30 H91        -3.3040   -0.6820    1.9690 h1        1 P15      0.043700
     31 H92        -4.0800   -1.3540    0.4480 h1        1 P15      0.043700
     32 H81        -1.2610   -1.3440    0.8280 h1        1 P15      0.043200
     33 H82        -2.0230   -1.6130   -0.8190 h1        1 P15      0.043200
     34 H71        -0.0940   -0.6420   -1.6830 h1        1 P15      0.043700
     35 H72        -0.7800    0.9460   -1.0710 h1        1 P15      0.043700
     36 H61         2.0210    0.4890   -1.2640 h1        1 P15      0.043700
     37 H62         1.3220    1.8720   -0.2830 h1        1 P15      0.043700
     38 H51         3.2130    1.6440    1.0540 h1        1 P15      0.044200
     39 H52         2.3960    0.1370    1.7090 h1        1 P15      0.044200
     40 H41         5.2280    0.3880    1.6010 h1        1 P15      0.043200
     41 H42         4.3970   -1.2280    1.8480 h1        1 P15      0.043200
     42 H31         6.2490   -2.1480    0.7790 h1        1 P15      0.045200
     43 H32         5.5260   -1.4630   -0.7620 h1        1 P15      0.045200
     44 H21         8.3900   -1.7510   -0.3760 h1        1 P15      0.039200
     45 H22         7.6030   -0.8250   -1.7500 h1        1 P15      0.039200
     46 H11         9.9430    0.0230   -1.3630 h1        1 P15      0.053200
     47 H12         8.7120    1.3090   -0.8990 h1        1 P15      0.053200
     48 HOXT        9.0420    0.4930    1.2710 ho        1 P15      0.412000
@<TRIPOS>BOND
     1    1    2 1   
     2    1   21 1   
     3    1   22 1   
     4    1   23 1   
     5    2    3 1   
     6    3    4 1   
     7    3   24 1   
     8    3   25 1   
     9    4    5 1   
    10    4   26 1   
    11    4   27 1   
    12    5    6 1   
    13    6    7 1   
    14    6   28 1   
    15    6   29 1   
    16    7    8 1   
    17    7   30 1   
    18    7   31 1   
    19    8    9 1   
    20    9   10 1   
    21    9   32 1   
    22    9   33 1   
    23   10   11 1   
    24   10   34 1   
    25   10   35 1   
    26   11   12 1   
    27   12   13 1   
    28   12   36 1   
    29   12   37 1   
    30   13   14 1   
    31   13   38 1   
    32   13   39 1   
    33   14   15 1   
    34   15   16 1   
    35   15   40 1   
    36   15   41 1   
    37   16   17 1   
    38   16   42 1   
    39   16   43 1   
    40   17   18 1   
    41   18   19 1   
    42   18   44 1   
    43   18   45 1   
    44   19   20 1   
    45   19   46 1   
    46   19   47 1   
    47   20   48 1   
@<TRIPOS>SUBSTRUCTURE
     1 P15         1 TEMP              0 ****  ****    0 ROOT
