@<TRIPOS>MOLECULE
P16
   45    48     1     0     0
SMALL
bcc


@<TRIPOS>ATOM
      1 O1          0.4850   -1.3540   -9.0880 oh        1 P16     -0.597800
      2 C2          1.1190   -0.8270   -7.9320 c3        1 P16      0.176700
      3 C3          0.0880   -0.5210   -6.8950 ca        1 P16     -0.076300
      4 C4         -1.2540   -0.8690   -7.0660 ca        1 P16     -0.104000
      5 C5         -2.1780   -0.5680   -6.0670 ca        1 P16     -0.125000
      6 C6         -1.7850    0.0790   -4.8990 ca        1 P16     -0.101000
      7 C7         -0.4310    0.4260   -4.7130 ca        1 P16      0.125600
      8 N9         -0.0070    1.1470   -3.5700 nh        1 P16     -0.708300
      9 C10        -0.1420    0.6450   -2.2680 ca        1 P16      0.919900
     10 N11        -1.0460   -0.4020   -2.0330 nb        1 P16     -0.748000
     11 C12        -1.1870   -0.7760   -0.7660 ca        1 P16      0.516200
     12 C13        -0.4910   -0.1900    0.3180 ca        1 P16     -0.419400
     13 C16        -0.6610   -0.6050    1.6720 cc        1 P16      0.028800
     14 C17         0.0410   -0.0090    2.6680 cd        1 P16     -0.156400
     15 C18         0.9940    1.0800    2.3750 c         1 P16      0.717700
     16 O21         1.6670    1.6620    3.2430 o         1 P16     -0.606500
     17 N19         1.1490    1.4850    1.0220 n         1 P16     -0.424300
     18 C14         0.4280    0.8690   -0.0020 ca        1 P16      0.624200
     19 N15         0.6110    1.2770   -1.3010 nb        1 P16     -0.809000
     20 C20         2.0700    2.5530    0.7040 c3        1 P16      0.070300
     21 C22        -0.1060   -0.4070    4.0680 ca        1 P16     -0.022800
     22 C27         0.7030   -1.4140    4.6220 ca        1 P16      0.045400
     23 CL28        1.8700   -2.2040    3.6700 cl        1 P16     -0.079900
     24 C26         0.5680   -1.7910    5.9620 ca        1 P16     -0.128000
     25 C25        -0.3810   -1.1630    6.7640 ca        1 P16     -0.107000
     26 C24        -1.1970   -0.1650    6.2380 ca        1 P16     -0.128000
     27 C23        -1.0600    0.2090    4.8980 ca        1 P16      0.045400
     28 CL29       -2.0750    1.4290    4.2870 cl        1 P16     -0.079900
     29 C8          0.5020    0.1200   -5.7250 ca        1 P16     -0.162000
     30 HO1         1.1900   -1.5450   -9.7180 ho        1 P16      0.405000
     31 H21         1.6780    0.1120   -8.2040 h1        1 P16      0.032700
     32 H22         1.8510   -1.5790   -7.5260 h1        1 P16      0.032700
     33 H4         -1.5720   -1.3760   -7.9900 ha        1 P16      0.157000
     34 H5         -3.2360   -0.8400   -6.2030 ha        1 P16      0.138000
     35 H6         -2.5350    0.3110   -4.1270 ha        1 P16      0.153000
     36 HN9         0.7800    1.7470   -3.7210 hn        1 P16      0.446800
     37 H12        -1.9010   -1.6030   -0.5840 h4        1 P16      0.033100
     38 H16        -1.3750   -1.4190    1.8810 ha        1 P16      0.148000
     39 H201        2.5470    2.9360    1.6460 h1        1 P16      0.063700
     40 H202        2.8710    2.1740    0.0150 h1        1 P16      0.063700
     41 H203        1.5220    3.3940    0.2020 h1        1 P16      0.063700
     42 H26         1.2140   -2.5780    6.3810 ha        1 P16      0.152000
     43 H25        -0.4850   -1.4560    7.8200 ha        1 P16      0.143000
     44 H24        -1.9450    0.3310    6.8750 ha        1 P16      0.152000
     45 H8          1.5640    0.3860   -5.6050 ha        1 P16      0.131000
@<TRIPOS>BOND
     1    1    2 1   
     2    1   30 1   
     3    2    3 1   
     4    2   31 1   
     5    2   32 1   
     6    3    4 ar  
     7    3   29 ar  
     8    4    5 ar  
     9    4   33 1   
    10    5    6 ar  
    11    5   34 1   
    12    6    7 ar  
    13    6   35 1   
    14    7    8 1   
    15    7   29 ar  
    16    8    9 1   
    17    8   36 1   
    18    9   10 ar  
    19    9   19 ar  
    20   10   11 ar  
    21   11   12 ar  
    22   11   37 1   
    23   12   13 1   
    24   12   18 ar  
    25   13   14 2   
    26   13   38 1   
    27   14   15 1   
    28   14   21 1   
    29   15   16 2   
    30   15   17 1   
    31   17   18 1   
    32   17   20 1   
    33   18   19 ar  
    34   20   39 1   
    35   20   40 1   
    36   20   41 1   
    37   21   22 ar  
    38   21   27 ar  
    39   22   23 1   
    40   22   24 ar  
    41   24   25 ar  
    42   24   42 1   
    43   25   26 ar  
    44   25   43 1   
    45   26   27 ar  
    46   26   44 1   
    47   27   28 1   
    48   29   45 1   
@<TRIPOS>SUBSTRUCTURE
     1 P16         1 TEMP              0 ****  ****    0 ROOT
