@<TRIPOS>MOLECULE
P16
   46    49     1     0     0
SMALL
bcc


@<TRIPOS>ATOM
      1 O1          3.4990   -0.7390    0.2280 oh        1 P16     -0.585800
      2 C2          2.9350   -1.3990    1.3410 c3        1 P16      0.163700
      3 C3          2.3280   -0.4360    2.3170 ca        1 P16     -0.102300
      4 C4          1.3320   -0.8630    3.2020 ca        1 P16     -0.072000
      5 C5          0.7960    0.0200    4.1400 ca        1 P16     -0.107000
      6 C6          1.2410    1.3380    4.2080 ca        1 P16     -0.096000
      7 C7          2.2350    1.7640    3.3090 ca        1 P16     -0.054400
      8 N9          2.6990    3.1560    3.3490 n4        1 P16     -0.609100
      9 C10         3.9050    3.3000    4.2350 ca        1 P16      0.752900
     10 N11         5.1190    3.0980    3.6220 nb        1 P16     -0.704000
     11 C12         6.1850    3.2170    4.4340 ca        1 P16      0.505200
     12 C13         6.0810    3.5250    5.8040 ca        1 P16     -0.308400
     13 C16         7.2270    3.6480    6.6590 cc        1 P16     -0.031200
     14 C17         7.0770    3.9490    7.9690 cd        1 P16     -0.058400
     15 C18         5.7330    4.1570    8.5580 c         1 P16      0.703700
     16 O21         5.5240    4.4300    9.7450 o         1 P16     -0.535500
     17 N19         4.5980    4.0340    7.6910 n         1 P16     -0.414300
     18 C14         4.7590    3.7240    6.3530 ca        1 P16      0.604200
     19 N15         3.6470    3.6030    5.5320 nb        1 P16     -0.731000
     20 C20         3.2720    4.2380    8.2350 c3        1 P16      0.058300
     21 C22         8.2200    4.0850    8.8750 ca        1 P16     -0.075800
     22 C27         8.8440    5.3300    9.0610 ca        1 P16      0.050400
     23 CL28        8.2880    6.7020    8.2270 cl        1 P16     -0.075900
     24 C26         9.9300    5.4630    9.9320 ca        1 P16     -0.118500
     25 C25        10.4000    4.3490   10.6250 ca        1 P16     -0.088000
     26 C24         9.7980    3.1040   10.4530 ca        1 P16     -0.118500
     27 C23         8.7130    2.9740    9.5810 ca        1 P16      0.050400
     28 CL29        7.9950    1.4460    9.3880 cl        1 P16     -0.075900
     29 C8          2.7900    0.8810    2.3690 ca        1 P16     -0.081000
     30 HO1         2.7850   -0.5500   -0.3940 ho        1 P16      0.411000
     31 H21         3.8030   -1.9270    1.8320 h1        1 P16      0.077200
     32 H22         2.1740   -2.1610    1.0210 h1        1 P16      0.077200
     33 H4          0.9690   -1.9050    3.1600 ha        1 P16      0.167000
     34 H5          0.0140   -0.3240    4.8370 ha        1 P16      0.170000
     35 H6          0.8150    2.0210    4.9610 ha        1 P16      0.161000
     36 HN9         2.9540    3.4560    2.3970 hn        1 P16      0.476800
     37 H12         7.1730    3.0580    3.9540 h4        1 P16      0.070100
     38 H16         8.2250    3.4910    6.2140 ha        1 P16      0.174000
     39 H201        2.7670    5.0880    7.7040 h1        1 P16      0.075033
     40 H202        2.6610    3.3040    8.1120 h1        1 P16      0.075033
     41 H203        3.3460    4.4840    9.3300 h1        1 P16      0.075033
     42 H26        10.4080    6.4460   10.0730 ha        1 P16      0.164500
     43 H25        11.2530    4.4540   11.3150 ha        1 P16      0.158000
     44 H24        10.1720    2.2270   11.0050 ha        1 P16      0.164500
     45 H8          3.5880    1.1920    1.6700 ha        1 P16      0.182000
     46 H92         1.9430    3.7570    3.7080 hn        1 P16      0.476800
@<TRIPOS>BOND
     1    1    2 1   
     2    1   30 1   
     3    2    3 1   
     4    2   31 1   
     5    2   32 1   
     6    3    4 ar  
     7    3   29 ar  
     8    4    5 ar  
     9    4   33 1   
    10    5    6 ar  
    11    5   34 1   
    12    6    7 ar  
    13    6   35 1   
    14    7    8 1   
    15    7   29 ar  
    16    8    9 1   
    17    8   36 1   
    18    8   46 1   
    19    9   10 ar  
    20    9   19 ar  
    21   10   11 ar  
    22   11   12 ar  
    23   11   37 1   
    24   12   13 1   
    25   12   18 ar  
    26   13   14 2   
    27   13   38 1   
    28   14   15 1   
    29   14   21 1   
    30   15   16 2   
    31   15   17 1   
    32   17   18 1   
    33   17   20 1   
    34   18   19 ar  
    35   20   39 1   
    36   20   40 1   
    37   20   41 1   
    38   21   22 ar  
    39   21   27 ar  
    40   22   23 1   
    41   22   24 ar  
    42   24   25 ar  
    43   24   42 1   
    44   25   26 ar  
    45   25   43 1   
    46   26   27 ar  
    47   26   44 1   
    48   27   28 1   
    49   29   45 1   
@<TRIPOS>SUBSTRUCTURE
     1 P16         1 TEMP              0 ****  ****    0 ROOT
