@<TRIPOS>MOLECULE
P16
   45    48     1     0     0
SMALL
bcc


@<TRIPOS>ATOM
      1 O1          1.2730   -0.6540   -0.7890 oh        1 P16     -0.597800
      2 C2          1.6250    0.5220   -0.0760 c3        1 P16      0.176700
      3 C3          1.8630    0.1820    1.3600 ca        1 P16     -0.076300
      4 C4          1.8600   -1.1390    1.8130 ca        1 P16     -0.104000
      5 C5          2.0920   -1.4080    3.1610 ca        1 P16     -0.125000
      6 C6          2.3280   -0.3770    4.0660 ca        1 P16     -0.101000
      7 C7          2.3420    0.9590    3.6170 ca        1 P16      0.125600
      8 N9          2.5070    2.0380    4.5200 nu        1 P16     -0.708300
      9 C10         3.6620    2.2000    5.2980 ca        1 P16      0.919900
     10 N11         4.5120    1.1010    5.4930 nb        1 P16     -0.748000
     11 C12         5.5440    1.2990    6.3050 ca        1 P16      0.516200
     12 C13         5.8170    2.5250    6.9590 ca        1 P16     -0.419400
     13 C16         6.9290    2.7140    7.8310 cc        1 P16      0.028800
     14 C17         7.1430    3.9160    8.4230 cd        1 P16     -0.156400
     15 C18         6.2310    5.0520    8.1790 c         1 P16      0.717700
     16 O21         6.3770    6.1760    8.6900 o         1 P16     -0.606500
     17 N19         5.1260    4.8460    7.3110 n         1 P16     -0.424300
     18 C14         4.9090    3.6100    6.7020 ca        1 P16      0.624200
     19 N15         3.8370    3.4480    5.8580 nb        1 P16     -0.809000
     20 C20         4.2120    5.9380    7.0580 c3        1 P16      0.070300
     21 C22         8.2720    4.1490    9.3240 ca        1 P16     -0.022800
     22 C27         9.5070    4.6040    8.8310 ca        1 P16      0.045400
     23 Cl28        9.7220    4.8860    7.1680 cl        1 P16     -0.079900
     24 C26        10.5860    4.8330    9.6910 ca        1 P16     -0.128000
     25 C25        10.4400    4.6080   11.0580 ca        1 P16     -0.107000
     26 C24         9.2270    4.1540   11.5700 ca        1 P16     -0.128000
     27 C23         8.1510    3.9250   10.7070 ca        1 P16      0.045400
     28 Cl29        6.6860    3.3680   11.3660 cl        1 P16     -0.079900
     29 C8          2.1070    1.2280    2.2520 ca        1 P16     -0.162000
     30 HO1         1.1440   -0.3840   -1.7050 ho        1 P16      0.405000
     31 H21         0.7920    1.2750   -0.1570 h1        1 P16      0.032700
     32 H22         2.5600    0.9670   -0.5180 h1        1 P16      0.032700
     33 H4          1.6700   -1.9590    1.1030 ha        1 P16      0.157000
     34 H5          2.0870   -2.4490    3.5180 ha        1 P16      0.138000
     35 H6          2.5030   -0.6140    5.1270 ha        1 P16      0.153000
     36 HN9         2.0460    2.8840    4.2510 hn        1 P16      0.446800
     37 H12         6.2140    0.4300    6.4560 h4        1 P16      0.033100
     38 H16         7.6040    1.8600    8.0070 ha        1 P16      0.148000
     39 H201        3.1740    5.6480    7.3720 h1        1 P16      0.063700
     40 H202        4.5330    6.8430    7.6400 h1        1 P16      0.063700
     41 H203        4.2090    6.1860    5.9630 h1        1 P16      0.063700
     42 H26        11.5450    5.1950    9.2900 ha        1 P16      0.152000
     43 H25        11.2860    4.7930   11.7370 ha        1 P16      0.143000
     44 H24         9.1140    3.9790   12.6510 ha        1 P16      0.152000
     45 H8          2.1080    2.2640    1.8780 ha        1 P16      0.131000
@<TRIPOS>BOND
     1    1    2 1   
     2    1   30 1   
     3    2    3 1   
     4    2   31 1   
     5    2   32 1   
     6    3    4 ar  
     7    3   29 ar  
     8    4    5 ar  
     9    4   33 1   
    10    5    6 ar  
    11    5   34 1   
    12    6    7 ar  
    13    6   35 1   
    14    7    8 1   
    15    7   29 ar  
    16    8    9 1   
    17    8   36 1   
    18    9   10 ar  
    19    9   19 ar  
    20   10   11 ar  
    21   11   12 ar  
    22   11   37 1   
    23   12   13 1   
    24   12   18 ar  
    25   13   14 2   
    26   13   38 1   
    27   14   15 1   
    28   14   21 1   
    29   15   16 2   
    30   15   17 1   
    31   17   18 1   
    32   17   20 1   
    33   18   19 ar  
    34   20   39 1   
    35   20   40 1   
    36   20   41 1   
    37   21   22 ar  
    38   21   27 ar  
    39   22   23 1   
    40   22   24 ar  
    41   24   25 ar  
    42   24   42 1   
    43   25   26 ar  
    44   25   43 1   
    45   26   27 ar  
    46   26   44 1   
    47   27   28 1   
    48   29   45 1   
@<TRIPOS>SUBSTRUCTURE
     1 P16         1 TEMP              0 ****  ****    0 ROOT
