@<TRIPOS>MOLECULE
P16
   45    38     1     0     0
SMALL
bcc


@<TRIPOS>ATOM
      1 O1          7.6950   -2.0250   -2.8880 oh        1 P16     -0.325000
      2 C2          6.3820   -1.9220   -3.4860 c3        1 P16      0.019000
      3 C3          5.5330   -1.0060   -2.6680 c2        1 P16     -0.069000
      4 C4          5.9720    0.2840   -2.3910 c1        1 P16     -0.104000
      5 C5          5.2400    1.0970   -1.5400 c1        1 P16     -0.115250
      6 C6          4.0580    0.6200   -0.9580 c1        1 P16     -0.115250
      7 C7          3.6180   -0.6660   -1.2330 c1        1 P16      0.044000
      8 N9          2.4620   -1.1900   -0.5490 n3        1 P16     -0.229000
      9 C10         1.2620   -0.3450   -0.3750 c2        1 P16      0.201000
     10 N11         1.4650    0.7020    0.5160 n1        1 P16     -0.222000
     11 C12         0.4230    1.2280    1.1880 c1        1 P16      0.051000
     12 C13        -0.8540    0.7230    0.9910 c1        1 P16     -0.277000
     13 C16        -1.9350    1.2580    1.6830 c1        1 P16      0.017000
     14 C17        -3.1860    0.7520    1.4840 c1        1 P16     -0.149000
     15 C18        -3.3720   -0.2850    0.5980 c1        1 P16      0.356000
     16 O21        -4.4850   -0.7050    0.3830 o         1 P16     -0.331000
     17 N19        -2.3030   -0.8070   -0.0800 n2        1 P16     -0.240000
     18 C14        -1.0480   -0.2990    0.1200 c1        1 P16      0.216000
     19 N15         0.0270   -0.8350   -0.5690 n2        1 P16     -0.283000
     20 C20        -2.5090   -1.8940   -1.0730 c3        1 P16     -0.085000
     21 C22        -4.3750    1.1490    2.1200 c1        1 P16     -0.011000
     22 C27        -5.2110    2.0970    1.5180 c1        1 P16     -0.033000
     23 CL28       -4.7610    2.8190   -0.0560 cl        1 P16     -0.002000
     24 C26        -6.4380    2.4530    2.1370 c1        1 P16     -0.128000
     25 C25        -6.8080    1.8600    3.3370 c1        1 P16     -0.115250
     26 C24        -5.9600    0.9000    3.9450 c1        1 P16     -0.115250
     27 C23        -4.7560    0.5480    3.3410 c1        1 P16     -0.033000
     28 CL29       -3.6780   -0.6590    4.1230 cl        1 P16     -0.001000
     29 C8          4.3500   -1.4820   -2.0860 c2        1 P16     -0.162000
     30 HO1         8.1450   -2.7100   -3.2620 ho        1 P16      0.204000
     31 H21         5.9680   -2.8110   -3.5180 h1        1 P16      0.072000
     32 H22         6.4670   -1.5630   -4.4070 h1        1 P16      0.072000
     33 H4          6.8000    0.6190   -2.7980 ha        1 P16      0.157000
     34 H5          5.5460    1.9960   -1.3460 ha        1 P16      0.146500
     35 H6          3.5320    1.2060   -0.3460 ha        1 P16      0.146500
     36 HN9         2.4970   -2.0420   -0.1520 hn        1 P16      0.242000
     37 H12         0.5700    1.9700    1.8210 ha        1 P16      0.170000
     38 H16        -1.7900    2.0340    2.3460 ha        1 P16      0.148000
     39 H201       -2.0120   -2.6990   -0.7890 h1        1 P16      0.103000
     40 H202       -3.4460   -2.1010   -1.1320 h1        1 P16      0.103000
     41 H203       -2.1750   -1.5960   -1.9640 h1        1 P16      0.103000
     42 H26        -7.0350    3.1270    1.7130 ha        1 P16      0.152000
     43 H25        -7.6890    2.1170    3.7820 ha        1 P16      0.146500
     44 H24        -6.2250    0.4780    4.8000 ha        1 P16      0.146500
     45 H8          4.0390   -2.3930   -2.2800 ha        1 P16      0.131000
@<TRIPOS>BOND
     1    1    2 1   
     2    1   30 1   
     3    2    3 1   
     4    2   31 1   
     5    2   32 1   
     6    3    4 1   
     7    3   29 1   
     8    4   33 1   
     9    5    6 1   
    10    5   34 1   
    11    6   35 1   
    12    7    8 1   
    13    7   29 1   
    14    8    9 1   
    15    8   36 1   
    16    9   10 1   
    17    9   19 1   
    18   11   12 1   
    19   11   37 1   
    20   12   18 1   
    21   13   14 1   
    22   13   38 1   
    23   15   16 1   
    24   15   17 1   
    25   17   20 1   
    26   18   19 1   
    27   20   39 1   
    28   20   40 1   
    29   20   41 1   
    30   21   27 1   
    31   22   23 1   
    32   22   24 1   
    33   24   42 1   
    34   25   26 1   
    35   25   43 1   
    36   26   44 1   
    37   27   28 1   
    38   29   45 1   
@<TRIPOS>SUBSTRUCTURE
     1 P16         1 TEMP              0 ****  ****    0 ROOT
