@<TRIPOS>MOLECULE
P17
   45    48     1     0     0
SMALL
bcc


@<TRIPOS>ATOM
      1 S2          0.1890    0.9590   -0.4340 ss        1 P17      0.258000
      2 C3          1.7250    0.2640   -0.3470 c2        1 P17     -0.298000
      3 C8          2.0810   -0.4460    0.7550 c2        1 P17     -0.149000
      4 C7          3.3730   -1.2090    0.8320 c3        1 P17      0.036000
      5 N9          4.1250   -0.9970    2.0590 nu        1 P17     -0.253000
      6 C10         3.6480   -1.4900    3.2840 c2        1 P17      0.194000
      7 N15         4.1850   -0.9190    4.4170 n2        1 P17     -0.273000
      8 C14         3.8360   -1.4780    5.6230 c2        1 P17      0.215000
      9 N19         4.3650   -0.9560    6.8040 n         1 P17     -0.232000
     10 C20         5.2710    0.1710    6.7440 c3        1 P17     -0.087000
     11 C18         4.0360   -1.5170    8.0620 c2        1 P17      0.360000
     12 O21         4.5610   -1.0240    9.0810 o         1 P17     -0.357000
     13 C17         3.0900   -2.6480    8.1000 c2        1 P17     -0.172000
     14 C22         2.7320   -3.1970    9.4040 c2        1 P17      0.004000
     15 C27         3.8610   -3.6320   10.2870 c3        1 P17     -0.049000
     16 C26         3.4590   -4.1400   11.6240 c2        1 P17     -0.086000
     17 C25         2.1600   -4.2780   11.9730 c2        1 P17     -0.198000
     18 C24         1.1200   -4.0930   11.0140 c1        1 P17     -0.003000
     19 C23         1.4450   -3.3360    9.8410 c2        1 P17     -0.118000
     20 Cl2         4.8410   -4.8660    9.4760 cl        1 P17     -0.080000
     21 C16         2.5670   -3.1480    6.9470 c2        1 P17      0.032000
     22 C13         2.9260   -2.5900    5.6880 c2        1 P17     -0.275000
     23 C12         2.4150   -3.0660    4.4550 c2        1 P17      0.060000
     24 N11         2.7360   -2.5570    3.2720 n2        1 P17     -0.234000
     25 C6          4.2540   -1.0130   -0.3730 c2        1 P17     -0.087000
     26 C5          3.8470   -0.2850   -1.4370 c2        1 P17     -0.196000
     27 C4          2.6630    0.5090   -1.4010 c1        1 P17     -0.049000
     28 C1          0.1530    1.8560   -1.9410 c3        1 P17     -0.365000
     29 H10         1.4240   -0.5230    1.6360 ha        1 P17      0.153000
     30 H1          4.5910   -0.1140    2.1070 hn        1 P17      0.236000
     31 H4          4.7590    1.0450    6.2610 h1        1 P17      0.106333
     32 H5          6.1790   -0.1020    6.1430 h1        1 P17      0.106333
     33 H6          5.5890    0.4590    7.7820 h1        1 P17      0.106333
     34 H7          4.5500   -2.7430   10.4310 h1        1 P17      0.194000
     35 H8          4.2870   -4.4160   12.2980 ha        1 P17      0.151000
     36 H9          1.8640   -4.6140   12.9810 ha        1 P17      0.164000
     37 H3          1.8580   -3.9940    6.9620 ha        1 P17      0.158000
     38 H2          1.6980   -3.9110    4.4420 h4        1 P17      0.176000
     39 H16         3.0690   -2.3120    0.7800 h1        1 P17      0.174000
     40 H15         5.2320   -1.5200   -0.3440 ha        1 P17      0.147000
     41 H14         4.4620   -0.2240   -2.3510 ha        1 P17      0.157000
     42 H11         1.1770    2.0870   -2.3210 h1        1 P17      0.119333
     43 H12        -0.3940    2.8050   -1.7400 h1        1 P17      0.119333
     44 H13        -0.3930    1.2770   -2.7190 h1        1 P17      0.119333
     45 Cl1         0.1210   -2.7140    8.9770 cl        1 P17      0.014000
@<TRIPOS>BOND
     1    1    2 1   
     2    1   28 1   
     3    2    3 1   
     4    2   27 1   
     5    3    4 1   
     6    3   29 1   
     7    4    5 1   
     8    4   25 1   
     9    4   39 1   
    10    5    6 1   
    11    5   30 1   
    12    6    7 1   
    13    6   24 1   
    14    7    8 1   
    15    8    9 1   
    16    8   22 1   
    17    9   10 1   
    18    9   11 1   
    19   10   31 1   
    20   10   32 1   
    21   10   33 1   
    22   11   12 1   
    23   11   13 1   
    24   13   14 1   
    25   13   21 1   
    26   14   15 1   
    27   14   19 1   
    28   15   16 1   
    29   15   20 1   
    30   15   34 1   
    31   16   17 1   
    32   16   35 1   
    33   17   18 1   
    34   17   36 1   
    35   18   19 1   
    36   19   45 1   
    37   21   22 1   
    38   21   37 1   
    39   22   23 1   
    40   23   24 1   
    41   23   38 1   
    42   25   26 1   
    43   25   40 1   
    44   26   27 1   
    45   26   41 1   
    46   28   42 1   
    47   28   43 1   
    48   28   44 1   
@<TRIPOS>SUBSTRUCTURE
     1 P17         1 TEMP              0 ****  ****    0 ROOT
