@<TRIPOS>MOLECULE
P17
   45    39     1     0     0
SMALL
bcc


@<TRIPOS>ATOM
      1 S2         -3.2900    3.7750   -4.7430 ss        1 P17      0.242000
      2 C3         -1.8740    2.6860   -4.7260 c2        1 P17     -0.214000
      3 C8         -1.0720    2.5970   -3.5730 c1        1 P17     -0.156000
      4 C7         -0.0610    1.6590   -3.5060 c1        1 P17      0.064000
      5 N9          0.7520    1.5860   -2.3670 n3        1 P17     -0.231000
      6 C10         0.3990    0.6580   -1.2650 c2        1 P17      0.202000
      7 N15         1.2040    0.8250   -0.1450 n1        1 P17     -0.281000
      8 C14         1.1040   -0.0520    0.9120 c1        1 P17      0.216000
      9 N19         1.8630    0.1540    2.0620 n3        1 P17     -0.240000
     10 C20         2.7780    1.2620    2.1280 c3        1 P17     -0.085000
     11 C18         1.7140   -0.6980    3.1640 c1        1 P17      0.356000
     12 O21         2.4030   -0.5270    4.1750 o         1 P17     -0.331000
     13 C17         0.8120   -1.7470    3.1110 c1        1 P17     -0.148000
     14 C22         0.5210   -2.6300    4.1730 c1        1 P17     -0.012000
     15 C27         1.1980   -3.8380    4.2740 c1        1 P17     -0.033000
     16 CL1        -1.2230   -0.7140    5.0450 cl        1 P17     -0.001000
     17 C26         0.9370   -4.6910    5.3320 c1        1 P17     -0.128000
     18 C25        -0.0150   -4.3340    6.3050 c1        1 P17     -0.117500
     19 C24        -0.6880   -3.1340    6.2030 c1        1 P17     -0.117500
     20 C23        -0.4230   -2.2750    5.1360 c1        1 P17     -0.033000
     21 CL2         2.4500   -4.2440    3.1040 cl        1 P17     -0.001000
     22 C16         0.0560   -1.9530    1.9660 c1        1 P17      0.017000
     23 C13         0.2070   -1.0950    0.8570 c1        1 P17     -0.276000
     24 C12        -0.5970   -1.2590   -0.2640 c2        1 P17      0.051000
     25 N11        -0.4950   -0.3790   -1.3210 n2        1 P17     -0.222000
     26 C6          0.1670    0.7890   -4.5920 c1        1 P17     -0.114000
     27 C5         -0.6200    0.8760   -5.7230 c1        1 P17     -0.104000
     28 C4         -1.6500    1.8330   -5.7920 c2        1 P17     -0.150000
     29 C1         -3.0460    5.0360   -5.9450 c3        1 P17     -0.369000
     30 H10        -1.2070    3.2140   -2.8420 ha        1 P17      0.144000
     31 H1          1.5790    2.0600   -2.3420 hn        1 P17      0.244000
     32 H4          3.2920    1.2020    2.9270 h1        1 P17      0.103000
     33 H5          3.3800    1.2380    1.3470 h1        1 P17      0.103000
     34 H6          2.2700    2.1120    2.1270 h1        1 P17      0.103000
     35 H7          1.4050   -5.5230    5.4020 ha        1 P17      0.152000
     36 H8         -0.2010   -4.9420    7.0580 ha        1 P17      0.147500
     37 H9         -1.3500   -2.8850    6.8800 ha        1 P17      0.147500
     38 H3         -0.6020   -2.7180    1.9250 ha        1 P17      0.148000
     39 H2         -1.2530   -2.0190   -0.3040 h4        1 P17      0.170000
     40 H16         0.8760    0.1310   -4.5450 ha        1 P17      0.155000
     41 H15        -0.4570    0.2590   -6.4930 ha        1 P17      0.137000
     42 H14        -2.2120    1.8950   -6.5990 ha        1 P17      0.134000
     43 H11        -2.8780    4.6160   -6.8390 h1        1 P17      0.110000
     44 H12        -3.8710    5.6190   -5.9940 h1        1 P17      0.110000
     45 H13        -2.2840    5.5760   -5.6940 h1        1 P17      0.110000
@<TRIPOS>BOND
     1    1    2 1   
     2    1   29 1   
     3    2    3 1   
     4    2   28 1   
     5    3   30 1   
     6    4    5 1   
     7    4   26 1   
     8    5    6 1   
     9    5   31 1   
    10    6    7 1   
    11    6   25 1   
    12    8    9 1   
    13    8   23 1   
    14    9   10 1   
    15    9   11 1   
    16   10   32 1   
    17   10   33 1   
    18   10   34 1   
    19   11   12 1   
    20   13   22 1   
    21   14   20 1   
    22   15   17 1   
    23   15   21 1   
    24   16   20 1   
    25   17   35 1   
    26   18   19 1   
    27   18   36 1   
    28   19   37 1   
    29   22   38 1   
    30   23   24 1   
    31   24   25 1   
    32   24   39 1   
    33   26   40 1   
    34   27   28 1   
    35   27   41 1   
    36   28   42 1   
    37   29   43 1   
    38   29   44 1   
    39   29   45 1   
@<TRIPOS>SUBSTRUCTURE
     1 P17         1 TEMP              0 ****  ****    0 ROOT
