@<TRIPOS>MOLECULE
P17
   46    49     1     0     0
SMALL
bcc


@<TRIPOS>ATOM
      1 S2          0.5600   -0.7850   -1.5100 ss        1 P17      0.435000
      2 C3          1.8790   -0.3120   -0.6250 c2        1 P17     -0.267000
      3 C8          2.0500   -0.6890    0.6830 c2        1 P17     -0.289000
      4 C7          3.3080   -0.4020    1.4220 c3        1 P17      0.030000
      5 N9          3.0140    0.5510    2.5960 n4        1 P17     -0.004000
      6 C10         2.7650   -0.2020    3.8610 c2        1 P17      0.032000
      7 N15         3.8510   -0.3960    4.6550 n2        1 P17     -0.206000
      8 C14         3.6260   -1.0940    5.8300 c2        1 P17      0.193000
      9 N19         4.6740   -1.3380    6.7000 n         1 P17     -0.225000
     10 C20         6.0030   -0.8490    6.3920 c3        1 P17     -0.097000
     11 C18         4.4650   -2.0690    7.9090 c2        1 P17      0.345000
     12 O21         5.4460   -2.2860    8.6330 o         1 P17     -0.288000
     13 C17         3.0880   -2.5190    8.2240 c2        1 P17     -0.074000
     14 C22         2.8870   -3.2200    9.4890 c2        1 P17     -0.076000
     15 C27         3.7060   -4.4550    9.7170 c3        1 P17     -0.039000
     16 C26         3.3800   -5.2000   10.9640 c2        1 P17     -0.077000
     17 C25         2.5820   -4.6710   11.9190 c2        1 P17     -0.201000
     18 C24         2.1070   -3.3330   11.7970 c1        1 P17      0.033000
     19 C23         2.0480   -2.7780   10.4700 c2        1 P17     -0.080000
     20 CL2         3.5250   -5.5560    8.3420 cl        1 P17     -0.067000
     21 C16         2.0670   -2.2760    7.3660 c2        1 P17     -0.028000
     22 C13         2.2970   -1.5670    6.1420 c2        1 P17     -0.170000
     23 C12         1.2700   -1.2940    5.2160 c2        1 P17      0.042000
     24 N11         1.4700   -0.6200    4.0710 n2        1 P17     -0.175000
     25 C6          4.4140    0.1650    0.5820 c2        1 P17     -0.215000
     26 C5          4.1900    0.5110   -0.7100 c2        1 P17     -0.113000
     27 C4          2.8380    0.6210   -1.1280 c1        1 P17      0.044000
     28 C1          0.7600   -0.0100   -3.0640 c3        1 P17     -0.411000
     29 H10         1.2690   -1.2440    1.2250 ha        1 P17      0.181000
     30 H1          2.1760    1.1080    2.3730 hn        1 P17      0.264000
     31 H4          6.3650   -1.3090    5.4340 h1        1 P17      0.116000
     32 H5          6.7100   -1.1270    7.2210 h1        1 P17      0.116000
     33 H6          5.9840    0.2680    6.2880 h1        1 P17      0.116000
     34 H7          4.8010   -4.1700    9.7310 h1        1 P17      0.178000
     35 H8          3.8770   -6.1780   11.0810 ha        1 P17      0.165000
     36 H9          2.3510   -5.2100   12.8530 ha        1 P17      0.180000
     37 H3          1.0390   -2.6140    7.5870 ha        1 P17      0.179000
     38 H2          0.2280   -1.6310    5.4000 h4        1 P17      0.208000
     39 H16         3.6880   -1.3680    1.8850 hx        1 P17      0.174000
     40 H15         5.4090    0.2410    1.0460 ha        1 P17      0.169000
     41 H14         4.9990    0.8170   -1.3960 ha        1 P17      0.199000
     42 H11         1.1920    1.0160   -2.9870 h1        1 P17      0.136667
     43 H12        -0.2660    0.0600   -3.5030 h1        1 P17      0.136667
     44 H13         1.3990   -0.6140   -3.7470 h1        1 P17      0.136667
     45 CL1         0.9970   -1.4660   10.2640 cl        1 P17      0.030000
     46 H92         3.8130    1.1840    2.7320 hn        1 P17      0.264000
@<TRIPOS>BOND
     1    1    2 1   
     2    1   28 1   
     3    2    3 1   
     4    2   27 1   
     5    3    4 1   
     6    3   29 1   
     7    4    5 1   
     8    4   25 1   
     9    4   39 1   
    10    5    6 1   
    11    5   30 1   
    12    5   46 1   
    13    6    7 1   
    14    6   24 1   
    15    7    8 1   
    16    8    9 1   
    17    8   22 1   
    18    9   10 1   
    19    9   11 1   
    20   10   31 1   
    21   10   32 1   
    22   10   33 1   
    23   11   12 1   
    24   11   13 1   
    25   13   14 1   
    26   13   21 1   
    27   14   15 1   
    28   14   19 1   
    29   15   16 1   
    30   15   20 1   
    31   15   34 1   
    32   16   17 1   
    33   16   35 1   
    34   17   18 1   
    35   17   36 1   
    36   18   19 1   
    37   19   45 1   
    38   21   22 1   
    39   21   37 1   
    40   22   23 1   
    41   23   24 1   
    42   23   38 1   
    43   25   26 1   
    44   25   40 1   
    45   26   27 1   
    46   26   41 1   
    47   28   42 1   
    48   28   43 1   
    49   28   44 1   
@<TRIPOS>SUBSTRUCTURE
     1 P17         1 TEMP              0 ****  ****    0 ROOT
