@<TRIPOS>MOLECULE
P17
   45    48     1     0     0
SMALL
bcc


@<TRIPOS>ATOM
      1 S2          2.3600    0.1400    6.5270 ss        1 P17     -0.157000
      2 C3          0.7210   -0.1040    6.1700 ca        1 P17      0.007900
      3 C8          0.3070    0.3950    4.9260 ca        1 P17     -0.100000
      4 C7         -1.0270    0.2450    4.5110 ca        1 P17      0.145600
      5 N9         -1.4880    0.8000    3.2930 nh        1 P17     -0.711300
      6 C10        -0.9540    0.4480    2.0460 ca        1 P17      0.920900
      7 N15        -1.7070    0.8140    0.9500 nb        1 P17     -0.808000
      8 C14        -1.1680    0.5620   -0.2890 ca        1 P17      0.624200
      9 N19        -1.8760    0.9260   -1.4350 n         1 P17     -0.424300
     10 C20        -3.1620    1.5740   -1.3050 c3        1 P17      0.070300
     11 C18        -1.3550    0.6700   -2.7320 c         1 P17      0.717700
     12 O21        -2.0330    1.0120   -3.7160 o         1 P17     -0.606500
     13 C17        -0.0360    0.0120   -2.8310 cc        1 P17     -0.156400
     14 C22         0.4830   -0.2380   -4.1760 ca        1 P17     -0.022800
     15 C27         0.2030   -1.4410   -4.8470 ca        1 P17      0.045400
     16 C26         0.6930   -1.6790   -6.1350 ca        1 P17     -0.128500
     17 C25         1.4740   -0.7130   -6.7670 ca        1 P17     -0.107000
     18 C24         1.7690    0.4850   -6.1210 ca        1 P17     -0.128500
     19 C23         1.2770    0.7190   -4.8330 ca        1 P17      0.045400
     20 CL2        -0.7440   -2.6420   -4.1050 cl        1 P17     -0.079900
     21 C16         0.6510   -0.3390   -1.7160 cd        1 P17      0.028800
     22 C13         0.1120   -0.0790   -0.4220 ca        1 P17     -0.419400
     23 C12         0.7760   -0.4270    0.7790 ca        1 P17      0.517200
     24 N11         0.2930   -0.1910    1.9940 nb        1 P17     -0.747000
     25 C6         -1.9490   -0.4000    5.3690 ca        1 P17     -0.172000
     26 C5         -1.5270   -0.8790    6.6020 ca        1 P17     -0.098000
     27 C4         -0.2000   -0.7400    7.0050 ca        1 P17     -0.152000
     28 C1          2.6060   -0.5190    8.1270 c3        1 P17     -0.072000
     29 H10         1.0440    0.9020    4.2830 ha        1 P17      0.163000
     30 H1         -2.4520    1.0660    3.2920 hn        1 P17      0.448800
     31 H4         -3.5750    1.8040   -2.3230 h1        1 P17      0.063700
     32 H5         -3.8760    0.9000   -0.7620 h1        1 P17      0.063700
     33 H6         -3.0500    2.5310   -0.7290 h1        1 P17      0.063700
     34 H7          0.4590   -2.6230   -6.6490 ha        1 P17      0.151500
     35 H8          1.8560   -0.8970   -7.7820 ha        1 P17      0.143000
     36 H9          2.3840    1.2470   -6.6240 ha        1 P17      0.151500
     37 H3          1.6360   -0.8310   -1.7810 ha        1 P17      0.148000
     38 H2          1.7610   -0.9330    0.7420 h4        1 P17      0.034100
     39 H16        -3.0010   -0.5240    5.0690 ha        1 P17      0.135000
     40 H15        -2.2470   -1.3800    7.2670 ha        1 P17      0.135000
     41 H14         0.1130   -1.1340    7.9830 ha        1 P17      0.134000
     42 H11         3.6830   -0.3380    8.3560 h1        1 P17      0.070367
     43 H12         1.9840   -0.0130    8.8990 h1        1 P17      0.070367
     44 H13         2.4080   -1.6130    8.1750 h1        1 P17      0.070367
     45 CL1         1.6590    2.1920   -4.0740 cl        1 P17     -0.079900
@<TRIPOS>BOND
     1    1    2 1   
     2    1   28 1   
     3    2    3 ar  
     4    2   27 ar  
     5    3    4 ar  
     6    3   29 1   
     7    4    5 1   
     8    4   25 ar  
     9    5    6 1   
    10    5   30 1   
    11    6    7 ar  
    12    6   24 ar  
    13    7    8 ar  
    14    8    9 1   
    15    8   22 ar  
    16    9   10 1   
    17    9   11 1   
    18   10   31 1   
    19   10   32 1   
    20   10   33 1   
    21   11   12 2   
    22   11   13 1   
    23   13   14 1   
    24   13   21 2   
    25   14   15 ar  
    26   14   19 ar  
    27   15   16 ar  
    28   15   20 1   
    29   16   17 ar  
    30   16   34 1   
    31   17   18 ar  
    32   17   35 1   
    33   18   19 ar  
    34   18   36 1   
    35   19   45 1   
    36   21   22 1   
    37   21   37 1   
    38   22   23 ar  
    39   23   24 ar  
    40   23   38 1   
    41   25   26 ar  
    42   25   39 1   
    43   26   27 ar  
    44   26   40 1   
    45   27   41 1   
    46   28   42 1   
    47   28   43 1   
    48   28   44 1   
@<TRIPOS>SUBSTRUCTURE
     1 P17         1 TEMP              0 ****  ****    0 ROOT
