@<TRIPOS>MOLECULE
P18
   21    18     1     0     0
SMALL
bcc


@<TRIPOS>ATOM
      1 O           0.1540    1.2100    1.7370 o         1 P18     -0.302000
      2 C          -0.1840    0.4320    0.8680 c1        1 P18      0.271000
      3 C1         -1.3910   -0.4560    1.0750 c2        1 P18     -0.212000
      4 C2         -1.7530   -0.4810    2.5430 c3        1 P18     -0.013000
      5 C3          0.5920    0.3630   -0.4290 c2        1 P18     -0.157000
      6 C8          0.1690    1.0920   -1.5290 c2        1 P18     -0.090000
      7 C7          0.8900    1.0430   -2.7120 c1        1 P18     -0.145000
      8 C4          1.7360   -0.4150   -0.5110 c1        1 P18     -0.073000
      9 C5          2.4580   -0.4640   -1.6940 c1        1 P18     -0.122500
     10 C6          2.0350    0.2650   -2.7940 c1        1 P18     -0.122500
     11 OXT        -3.0710   -0.9620    2.6950 oh        1 P18     -0.335000
     12 H11C       -1.1840   -1.3640    0.7750 ha        1 P18      0.121000
     13 H12C       -2.1450   -0.1070    0.5590 ha        1 P18      0.121000
     14 H21C       -1.6920    0.4250    2.9100 h1        1 P18      0.076000
     15 H22C       -1.1340   -1.0690    3.0220 h1        1 P18      0.076000
     16 HXT        -3.2760   -0.9970    3.5590 ho        1 P18      0.203000
     17 H8         -0.6370    1.6400   -1.4720 ha        1 P18      0.137000
     18 H4          2.0340   -0.9280    0.2640 ha        1 P18      0.156000
     19 H7          0.5930    1.5560   -3.4870 ha        1 P18      0.137000
     20 H6          2.5430    0.2300   -3.6270 ha        1 P18      0.136500
     21 H5          3.2630   -1.0120   -1.7520 ha        1 P18      0.136500
@<TRIPOS>BOND
     1    1    2 1   
     2    2    5 1   
     3    3    4 1   
     4    3   12 1   
     5    3   13 1   
     6    4   11 1   
     7    4   14 1   
     8    4   15 1   
     9    5    6 1   
    10    5    8 1   
    11    6    7 1   
    12    6   17 1   
    13    7   19 1   
    14    8   18 1   
    15    9   10 1   
    16    9   21 1   
    17   10   20 1   
    18   11   16 1   
@<TRIPOS>SUBSTRUCTURE
     1 P18         1 TEMP              0 ****  ****    0 ROOT
