@<TRIPOS>MOLECULE
P18
   21    21     1     0     0
SMALL
bcc


@<TRIPOS>ATOM
      1 O          -0.1010   -0.0070   -0.0380 o         1 P18     -0.541100
      2 C           1.1370   -0.0050   -0.0140 c         1 P18      0.580700
      3 C1          1.9010   -0.0010    1.2780 c3        1 P18     -0.183400
      4 C2          0.9730   -0.0000    2.4810 c3        1 P18      0.137400
      5 C3          1.9320   -0.0060   -1.2610 ca        1 P18     -0.177600
      6 C8          1.2550   -0.0110   -2.4900 ca        1 P18     -0.081500
      7 C7          1.9670   -0.0120   -3.6870 ca        1 P18     -0.145000
      8 C4          3.3320   -0.0040   -1.2510 ca        1 P18     -0.081500
      9 C5          4.0420   -0.0050   -2.4510 ca        1 P18     -0.145000
     10 C6          3.3620   -0.0090   -3.6690 ca        1 P18     -0.100000
     11 OXT         1.8020    0.0040    3.6340 oh        1 P18     -0.607800
     12 H11C        2.5610    0.9060    1.3180 hc        1 P18      0.081700
     13 H12C        2.5650   -0.9050    1.3220 hc        1 P18      0.081700
     14 H21C        0.3180    0.9110    2.4700 h1        1 P18      0.036700
     15 H22C        0.3210   -0.9150    2.4740 h1        1 P18      0.036700
     16 HXT         1.2110    0.0040    4.3950 ho        1 P18      0.404000
     17 H8          0.1520   -0.0130   -2.4930 ha        1 P18      0.146500
     18 H4          3.8850    0.0000   -0.2990 ha        1 P18      0.146500
     19 H7          1.4280   -0.0160   -4.6460 ha        1 P18      0.137500
     20 H6          3.9250   -0.0110   -4.6140 ha        1 P18      0.135000
     21 H5          5.1420   -0.0030   -2.4350 ha        1 P18      0.137500
@<TRIPOS>BOND
     1    1    2 2   
     2    2    3 1   
     3    2    5 1   
     4    3    4 1   
     5    3   12 1   
     6    3   13 1   
     7    4   11 1   
     8    4   14 1   
     9    4   15 1   
    10    5    6 ar  
    11    5    8 ar  
    12    6    7 ar  
    13    6   17 1   
    14    7   10 ar  
    15    7   19 1   
    16    8    9 ar  
    17    8   18 1   
    18    9   10 ar  
    19    9   21 1   
    20   10   20 1   
    21   11   16 1   
@<TRIPOS>SUBSTRUCTURE
     1 P18         1 TEMP              0 ****  ****    0 ROOT
