@<TRIPOS>MOLECULE
P18
   21    21     1     0     0
SMALL
bcc


@<TRIPOS>ATOM
      1 O           0.9810   -1.8320   -0.0020 o         1 P18     -0.541100
      2 C           0.6850   -0.6290   -0.0010 c         1 P18      0.580700
      3 C1          1.7360    0.4420    0.0000 c3        1 P18     -0.183400
      4 C2          3.1380   -0.1450   -0.0010 c3        1 P18      0.137400
      5 C3         -0.7250   -0.1830   -0.0010 ca        1 P18     -0.177600
      6 C8         -1.7380   -1.1550   -0.0020 ca        1 P18     -0.081500
      7 C7         -3.0780   -0.7750   -0.0010 ca        1 P18     -0.145000
      8 C4         -1.0770    1.1720    0.0010 ca        1 P18     -0.081500
      9 C5         -2.4190    1.5480    0.0010 ca        1 P18     -0.145000
     10 C6         -3.4210    0.5770    0.0000 ca        1 P18     -0.100000
     11 OXT         4.0380    0.9530    0.0010 oh        1 P18     -0.607800
     12 H11C        1.6060    1.0930   -0.9050 hc        1 P18      0.081700
     13 H12C        1.6060    1.0910    0.9070 hc        1 P18      0.081700
     14 H21C        3.2970   -0.7800    0.9110 h1        1 P18      0.036700
     15 H22C        3.2970   -0.7770   -0.9140 h1        1 P18      0.036700
     16 HXT         4.9260    0.5790    0.0000 ho        1 P18      0.404000
     17 H8         -1.4560   -2.2210   -0.0030 ha        1 P18      0.146500
     18 H4         -0.3000    1.9520    0.0020 ha        1 P18      0.146500
     19 H7         -3.8650   -1.5440   -0.0020 ha        1 P18      0.137500
     20 H6         -4.4790    0.8780    0.0000 ha        1 P18      0.135000
     21 H5         -2.6870    2.6150    0.0020 ha        1 P18      0.137500
@<TRIPOS>BOND
     1    1    2 2   
     2    2    3 1   
     3    2    5 1   
     4    3    4 1   
     5    3   12 1   
     6    3   13 1   
     7    4   11 1   
     8    4   14 1   
     9    4   15 1   
    10    5    6 ar  
    11    5    8 ar  
    12    6    7 ar  
    13    6   17 1   
    14    7   10 ar  
    15    7   19 1   
    16    8    9 ar  
    17    8   18 1   
    18    9   10 ar  
    19    9   21 1   
    20   10   20 1   
    21   11   16 1   
@<TRIPOS>SUBSTRUCTURE
     1 P18         1 TEMP              0 ****  ****    0 ROOT
