@<TRIPOS>MOLECULE
P19
   37    40     1     0     0
SMALL
bcc


@<TRIPOS>ATOM
      1 N01         1.3320   -3.4230   -0.3140 nc        1 P19     -0.577100
      2 C02         0.3320   -4.3370   -0.2600 cd        1 P19      0.395500
      3 C03        -0.9590   -3.7230   -0.0690 cd        1 P19     -0.339600
      4 C04        -0.7010   -2.3370   -0.0030 cc        1 P19      0.427500
      5 N05         0.7420   -2.2210   -0.1560 na        1 P19     -0.171600
      6 N06        -1.5150   -1.2450    0.1720 nc        1 P19     -0.744000
      7 C07        -0.8820   -0.0420    0.1880 cd        1 P19      0.910900
      8 N08         0.5100    0.1650   -0.0010 nd        1 P19     -0.824000
      9 C09         1.3000   -0.9150   -0.1800 cc        1 P19      0.843400
     10 N10         2.6690   -0.7880   -0.4540 nh        1 P19     -0.721300
     11 C11         3.3660    0.4260   -0.2310 ca        1 P19      0.125600
     12 C12         4.5040    0.4280    0.6060 ca        1 P19     -0.129500
     13 C13         5.2460    1.5930    0.7690 ca        1 P19     -0.118500
     14 C14         4.8710    2.7680    0.1190 ca        1 P19     -0.131000
     15 C15         3.7490    2.7720   -0.7070 ca        1 P19     -0.118500
     16 C16         2.9970    1.6140   -0.8920 ca        1 P19     -0.129500
     17 N17        -1.6040    1.1360    0.4710 nh        1 P19     -0.702300
     18 C18        -3.0080    1.2110    0.3010 ca        1 P19      0.124600
     19 C19        -3.8820    0.3700    1.0180 ca        1 P19     -0.133000
     20 C20        -5.2600    0.5240    0.8850 ca        1 P19     -0.119000
     21 C21        -5.7900    1.5110    0.0560 ca        1 P19     -0.137000
     22 C22        -4.9320    2.3530   -0.6500 ca        1 P19     -0.119000
     23 C23        -3.5530    2.2090   -0.5390 ca        1 P19     -0.133000
     24 H02         0.5390   -5.4060   -0.3550 h4        1 P19      0.052800
     25 H03        -1.9210   -4.2150    0.0080 ha        1 P19      0.181000
     26 HN10        3.2230   -1.6140   -0.3430 hn        1 P19      0.459800
     27 H12         4.8150   -0.4880    1.1310 ha        1 P19      0.144000
     28 H13         6.1320    1.5850    1.4220 ha        1 P19      0.136000
     29 H14         5.4590    3.6870    0.2580 ha        1 P19      0.136000
     30 H15         3.4500    3.6970   -1.2240 ha        1 P19      0.136000
     31 H16         2.1180    1.6380   -1.5540 ha        1 P19      0.144000
     32 HN17       -1.1190    1.9840    0.2490 hn        1 P19      0.439800
     33 H19        -3.4880   -0.4130    1.6850 ha        1 P19      0.144500
     34 H20        -5.9320   -0.1420    1.4450 ha        1 P19      0.134000
     35 H21        -6.8790    1.6250   -0.0410 ha        1 P19      0.133000
     36 H22        -5.3450    3.1350   -1.3040 ha        1 P19      0.134000
     37 H23        -2.8940    2.8830   -1.1070 ha        1 P19      0.144500
@<TRIPOS>BOND
     1    1    2 2   
     2    1    5 1   
     3    2    3 1   
     4    2   24 1   
     5    3    4 2   
     6    3   25 1   
     7    4    5 1   
     8    4    6 1   
     9    5    9 1   
    10    6    7 2   
    11    7    8 1   
    12    7   17 1   
    13    8    9 2   
    14    9   10 1   
    15   10   11 1   
    16   10   26 1   
    17   11   12 ar  
    18   11   16 ar  
    19   12   13 ar  
    20   12   27 1   
    21   13   14 ar  
    22   13   28 1   
    23   14   15 ar  
    24   14   29 1   
    25   15   16 ar  
    26   15   30 1   
    27   16   31 1   
    28   17   18 1   
    29   17   32 1   
    30   18   19 ar  
    31   18   23 ar  
    32   19   20 ar  
    33   19   33 1   
    34   20   21 ar  
    35   20   34 1   
    36   21   22 ar  
    37   21   35 1   
    38   22   23 ar  
    39   22   36 1   
    40   23   37 1   
@<TRIPOS>SUBSTRUCTURE
     1 P19         1 TEMP              0 ****  ****    0 ROOT
