@<TRIPOS>MOLECULE
P19
   39    42     1     0     0
SMALL
bcc


@<TRIPOS>ATOM
      1 N01        -0.9890   -0.1040    0.4710 nc        1 P19     -0.515100
      2 C02        -0.0930    0.7700   -0.0550 cd        1 P19      0.444500
      3 C03         0.5300    1.5990    0.9600 cd        1 P19     -0.168600
      4 C04        -0.0370    1.1810    2.1760 cc        1 P19      0.347500
      5 N05        -0.9870    0.1050    1.7940 na        1 P19     -0.136600
      6 N06         0.1270    1.5470    3.4890 nc        1 P19     -0.546000
      7 C07        -0.6220    0.8800    4.3790 cd        1 P19      0.727900
      8 N08        -1.5590   -0.1460    4.1120 nd        1 P19     -0.707000
      9 C09        -1.7100   -0.4930    2.8270 cc        1 P19      0.717400
     10 N10        -2.7060   -1.5590    2.4800 n4        1 P19     -0.613100
     11 C11        -3.9900   -0.9840    2.0520 ca        1 P19     -0.092400
     12 C12        -4.2740   -0.8710    0.6790 ca        1 P19     -0.089500
     13 C13        -5.5220   -0.3860    0.2900 ca        1 P19     -0.100000
     14 C14        -6.4680   -0.0140    1.2470 ca        1 P19     -0.045000
     15 C15        -6.1720   -0.1250    2.6090 ca        1 P19     -0.100000
     16 C16        -4.9340   -0.6060    3.0260 ca        1 P19     -0.089500
     17 N17        -0.4510    1.2290    5.8250 n4        1 P19     -0.594100
     18 C18         0.7020    0.5350    6.4180 ca        1 P19     -0.084400
     19 C19         1.9920    1.0690    6.2450 ca        1 P19     -0.093500
     20 C20         3.0680    0.4370    6.8650 ca        1 P19     -0.100000
     21 C21         2.8680   -0.7100    7.6370 ca        1 P19     -0.051000
     22 C22         1.5830   -1.2360    7.7930 ca        1 P19     -0.100000
     23 C23         0.4900   -0.6250    7.1850 ca        1 P19     -0.093500
     24 H02         0.1020    0.8040   -1.1390 h4        1 P19      0.115800
     25 H03         1.2810    2.3760    0.8040 ha        1 P19      0.235000
     26 HN10       -2.8670   -2.1500    3.3140 hn        1 P19      0.496800
     27 H12        -3.5430   -1.1650   -0.0940 ha        1 P19      0.163500
     28 H13        -5.7590   -0.3040   -0.7850 ha        1 P19      0.185000
     29 H14        -7.4560    0.3650    0.9280 ha        1 P19      0.187000
     30 H15        -6.9260    0.1630    3.3630 ha        1 P19      0.185000
     31 H16        -4.7200   -0.6960    4.1030 ha        1 P19      0.163500
     32 HN17       -1.3070    0.9710    6.3410 hn        1 P19      0.489300
     33 H19         2.1680    1.9750    5.6410 ha        1 P19      0.161500
     34 H20         4.0840    0.8540    6.7460 ha        1 P19      0.183000
     35 H21         3.7280   -1.2000    8.1290 ha        1 P19      0.185000
     36 H22         1.4270   -2.1390    8.4090 ha        1 P19      0.183000
     37 H23        -0.5170   -1.0500    7.3270 ha        1 P19      0.161500
     38 H102       -2.3230   -2.1460    1.7180 hn        1 P19      0.496800
     39 H172       -0.3020    2.2500    5.9020 hn        1 P19      0.489300
@<TRIPOS>BOND
     1    1    2 2   
     2    1    5 1   
     3    2    3 1   
     4    2   24 1   
     5    3    4 2   
     6    3   25 1   
     7    4    5 1   
     8    4    6 1   
     9    5    9 1   
    10    6    7 2   
    11    7    8 1   
    12    7   17 1   
    13    8    9 2   
    14    9   10 1   
    15   10   11 1   
    16   10   26 1   
    17   10   38 1   
    18   11   12 ar  
    19   11   16 ar  
    20   12   13 ar  
    21   12   27 1   
    22   13   14 ar  
    23   13   28 1   
    24   14   15 ar  
    25   14   29 1   
    26   15   16 ar  
    27   15   30 1   
    28   16   31 1   
    29   17   18 1   
    30   17   32 1   
    31   17   39 1   
    32   18   19 ar  
    33   18   23 ar  
    34   19   20 ar  
    35   19   33 1   
    36   20   21 ar  
    37   20   34 1   
    38   21   22 ar  
    39   21   35 1   
    40   22   23 ar  
    41   22   36 1   
    42   23   37 1   
@<TRIPOS>SUBSTRUCTURE
     1 P19         1 TEMP              0 ****  ****    0 ROOT
