@<TRIPOS>MOLECULE
P19
   37    40     1     0     0
SMALL
bcc


@<TRIPOS>ATOM
      1 N01        -0.2100   -0.1610   -0.1060 nc        1 P19     -0.577100
      2 C02         1.1320   -0.0120   -0.2330 cd        1 P19      0.395500
      3 C03         1.7810    0.1940    1.0390 cd        1 P19     -0.339600
      4 C04         0.7390    0.1670    1.9920 cc        1 P19      0.427500
      5 N05        -0.4700   -0.0520    1.2120 na        1 P19     -0.171600
      6 N06         0.7230    0.3090    3.3570 nc        1 P19     -0.744000
      7 C07        -0.5040    0.2270    3.9380 cd        1 P19      0.910900
      8 N08        -1.7250   -0.0300    3.2610 nd        1 P19     -0.824000
      9 C09        -1.6960   -0.1760    1.9190 cc        1 P19      0.843400
     10 N10        -2.8450   -0.5120    1.1900 nh        1 P19     -0.721300
     11 C11        -4.1440   -0.3910    1.7440 ca        1 P19      0.125600
     12 C12        -5.1100    0.3980    1.0810 ca        1 P19     -0.129500
     13 C13        -6.4120    0.4620    1.5680 ca        1 P19     -0.118500
     14 C14        -6.7720   -0.2410    2.7170 ca        1 P19     -0.131000
     15 C15        -5.8230   -1.0200    3.3760 ca        1 P19     -0.118500
     16 C16        -4.5170   -1.1050    2.9000 ca        1 P19     -0.129500
     17 N17        -0.6540    0.4680    5.3190 nh        1 P19     -0.702300
     18 C18         0.4330    0.3510    6.2190 ca        1 P19      0.124600
     19 C19         1.5850    1.1540    6.0900 ca        1 P19     -0.133000
     20 C20         2.6010    1.0680    7.0400 ca        1 P19     -0.119000
     21 C21         2.4900    0.2030    8.1270 ca        1 P19     -0.137000
     22 C22         1.3500   -0.5870    8.2670 ca        1 P19     -0.119000
     23 C23         0.3290   -0.5240    7.3250 ca        1 P19     -0.133000
     24 H02         1.6140   -0.0510   -1.2120 h4        1 P19      0.052800
     25 H03         2.8370    0.3400    1.2270 ha        1 P19      0.181000
     26 HN10       -2.8000   -0.3760    0.1990 hn        1 P19      0.459800
     27 H12        -4.8450    0.9640    0.1740 ha        1 P19      0.144000
     28 H13        -7.1570    1.0770    1.0430 ha        1 P19      0.136000
     29 H14        -7.8010   -0.1820    3.1000 ha        1 P19      0.136000
     30 H15        -6.1040   -1.5790    4.2820 ha        1 P19      0.136000
     31 H16        -3.7850   -1.7320    3.4330 ha        1 P19      0.144000
     32 HN17       -1.5330    0.1750    5.6990 hn        1 P19      0.439800
     33 H19         1.6930    1.8500    5.2440 ha        1 P19      0.144500
     34 H20         3.4980    1.6950    6.9250 ha        1 P19      0.134000
     35 H21         3.2970    0.1440    8.8710 ha        1 P19      0.133000
     36 H22         1.2560   -1.2700    9.1230 ha        1 P19      0.134000
     37 H23        -0.5610   -1.1590    7.4520 ha        1 P19      0.144500
@<TRIPOS>BOND
     1    1    2 2   
     2    1    5 1   
     3    2    3 1   
     4    2   24 1   
     5    3    4 2   
     6    3   25 1   
     7    4    5 1   
     8    4    6 1   
     9    5    9 1   
    10    6    7 2   
    11    7    8 1   
    12    7   17 1   
    13    8    9 2   
    14    9   10 1   
    15   10   11 1   
    16   10   26 1   
    17   11   12 ar  
    18   11   16 ar  
    19   12   13 ar  
    20   12   27 1   
    21   13   14 ar  
    22   13   28 1   
    23   14   15 ar  
    24   14   29 1   
    25   15   16 ar  
    26   15   30 1   
    27   16   31 1   
    28   17   18 1   
    29   17   32 1   
    30   18   19 ar  
    31   18   23 ar  
    32   19   20 ar  
    33   19   33 1   
    34   20   21 ar  
    35   20   34 1   
    36   21   22 ar  
    37   21   35 1   
    38   22   23 ar  
    39   22   36 1   
    40   23   37 1   
@<TRIPOS>SUBSTRUCTURE
     1 P19         1 TEMP              0 ****  ****    0 ROOT
