@<TRIPOS>MOLECULE
P19
   37    40     1     0     0
SMALL
bcc


@<TRIPOS>ATOM
      1 N01        -0.2140   -0.1660   -0.1070 nc        1 P19     -0.577100
      2 C02         1.1280   -0.0190   -0.2360 cd        1 P19      0.395500
      3 C03         1.7780    0.1880    1.0350 cd        1 P19     -0.339600
      4 C04         0.7380    0.1630    1.9890 cc        1 P19      0.427500
      5 N05        -0.4730   -0.0550    1.2110 na        1 P19     -0.171600
      6 N06         0.7230    0.3060    3.3540 nc        1 P19     -0.744000
      7 C07        -0.5040    0.2270    3.9360 cd        1 P19      0.910900
      8 N08        -1.7260   -0.0300    3.2610 nd        1 P19     -0.824000
      9 C09        -1.6980   -0.1770    1.9200 cc        1 P19      0.843400
     10 N10        -2.8490   -0.5130    1.1920 nu        1 P19     -0.721300
     11 C11        -4.1470   -0.3900    1.7480 ca        1 P19      0.125600
     12 C12        -5.1130    0.4000    1.0850 ca        1 P19     -0.129500
     13 C13        -6.4140    0.4650    1.5740 ca        1 P19     -0.118500
     14 C14        -6.7740   -0.2370    2.7240 ca        1 P19     -0.131000
     15 C15        -5.8240   -1.0160    3.3830 ca        1 P19     -0.118500
     16 C16        -4.5190   -1.1030    2.9050 ca        1 P19     -0.129500
     17 N17        -0.6510    0.4700    5.3170 nu        1 P19     -0.702300
     18 C18         0.4370    0.3520    6.2170 ca        1 P19      0.124600
     19 C19         1.5890    1.1530    6.0850 ca        1 P19     -0.133000
     20 C20         2.6060    1.0670    7.0340 ca        1 P19     -0.119000
     21 C21         2.4950    0.2040    8.1230 ca        1 P19     -0.137000
     22 C22         1.3540   -0.5840    8.2640 ca        1 P19     -0.119000
     23 C23         0.3320   -0.5210    7.3240 ca        1 P19     -0.133000
     24 H02         1.6080   -0.0600   -1.2160 h4        1 P19      0.052800
     25 H03         2.8350    0.3320    1.2220 ha        1 P19      0.181000
     26 HN10       -2.8040   -0.3770    0.2020 hn        1 P19      0.459800
     27 H12        -4.8480    0.9640    0.1780 ha        1 P19      0.144000
     28 H13        -7.1600    1.0810    1.0490 ha        1 P19      0.136000
     29 H14        -7.8020   -0.1760    3.1080 ha        1 P19      0.136000
     30 H15        -6.1050   -1.5740    4.2890 ha        1 P19      0.136000
     31 H16        -3.7870   -1.7300    3.4380 ha        1 P19      0.144000
     32 HN17       -1.5300    0.1790    5.6990 hn        1 P19      0.439800
     33 H19         1.6980    1.8470    5.2380 ha        1 P19      0.144500
     34 H20         3.5040    1.6920    6.9180 ha        1 P19      0.134000
     35 H21         3.3030    0.1450    8.8660 ha        1 P19      0.133000
     36 H22         1.2600   -1.2660    9.1220 ha        1 P19      0.134000
     37 H23        -0.5590   -1.1550    7.4530 ha        1 P19      0.144500
@<TRIPOS>BOND
     1    1    2 2   
     2    1    5 1   
     3    2    3 1   
     4    2   24 1   
     5    3    4 2   
     6    3   25 1   
     7    4    5 1   
     8    4    6 1   
     9    5    9 1   
    10    6    7 2   
    11    7    8 1   
    12    7   17 1   
    13    8    9 2   
    14    9   10 1   
    15   10   11 1   
    16   10   26 1   
    17   11   12 ar  
    18   11   16 ar  
    19   12   13 ar  
    20   12   27 1   
    21   13   14 ar  
    22   13   28 1   
    23   14   15 ar  
    24   14   29 1   
    25   15   16 ar  
    26   15   30 1   
    27   16   31 1   
    28   17   18 1   
    29   17   32 1   
    30   18   19 ar  
    31   18   23 ar  
    32   19   20 ar  
    33   19   33 1   
    34   20   21 ar  
    35   20   34 1   
    36   21   22 ar  
    37   21   35 1   
    38   22   23 ar  
    39   22   36 1   
    40   23   37 1   
@<TRIPOS>SUBSTRUCTURE
     1 P19         1 TEMP              0 ****  ****    0 ROOT
