@<TRIPOS>MOLECULE
P19
   37    31     1     0     0
SMALL
bcc


@<TRIPOS>ATOM
      1 N01         1.3080   -1.1120   -3.0550 n2        1 P19     -0.078000
      2 C02         2.6560   -1.0780   -2.9760 c1        1 P19     -0.119000
      3 C03         2.9970   -0.9170   -1.6630 c1        1 P19     -0.249000
      4 C04         1.8270   -0.8510   -0.9220 c1        1 P19      0.064000
      5 N05         0.7960   -0.9700   -1.7670 n2        1 P19     -0.159000
      6 N06         1.6000   -0.6910    0.4090 n1        1 P19     -0.212000
      7 C07         0.3390   -0.6520    0.8760 c1        1 P19      0.187000
      8 N08        -0.7010   -0.7720    0.0240 n1        1 P19     -0.313000
      9 C09        -0.4780   -0.9300   -1.2940 c1        1 P19      0.293000
     10 N10        -1.6230   -1.1630   -2.0980 n3        1 P19     -0.244000
     11 C11        -2.4970   -0.0920   -2.4170 c2        1 P19      0.038000
     12 C12        -3.7290    0.0080   -1.7900 c2        1 P19     -0.121000
     13 C13        -4.6020    1.0270   -2.1360 c1        1 P19     -0.119000
     14 C14        -4.2440    1.9460   -3.1080 c1        1 P19     -0.125250
     15 C15        -3.0120    1.8470   -3.7350 c1        1 P19     -0.125250
     16 C16        -2.1380    0.8280   -3.3900 c1        1 P19     -0.130000
     17 N17         0.1180   -0.6590    2.2770 n3        1 P19     -0.221000
     18 C18         1.1420   -0.2280    3.1590 c2        1 P19      0.041000
     19 C19         1.2800    1.1190    3.4560 c2        1 P19     -0.164000
     20 C20         2.2610    1.5360    4.3420 c1        1 P19     -0.117000
     21 C21         3.1040    0.6070    4.9310 c1        1 P19     -0.125250
     22 C22         2.9660   -0.7400    4.6340 c1        1 P19     -0.125250
     23 C23         1.9850   -1.1570    3.7480 c1        1 P19     -0.102000
     24 H02         3.2770   -1.1570   -3.7250 DU        1 P19      0.181500
     25 H03         3.9050   -0.8590   -1.3090 DU        1 P19      0.181500
     26 HN10       -1.7960   -2.0020   -2.4130 hn        1 P19      0.249000
     27 H12        -3.9810   -0.6400   -1.1050 ha        1 P19      0.143000
     28 H13        -5.4700    1.0960   -1.6940 ha        1 P19      0.136000
     29 H14        -4.8590    2.6640   -3.3520 ha        1 P19      0.135250
     30 H15        -2.7590    2.4950   -4.4200 ha        1 P19      0.135250
     31 H16        -1.2700    0.7590   -3.8310 ha        1 P19      0.139000
     32 HN17       -0.6890   -0.9220    2.6100 hn        1 P19      0.232000
     33 H19         0.6870    1.7730    3.0410 ha        1 P19      0.131000
     34 H20         2.3580    2.4850    4.5500 ha        1 P19      0.133000
     35 H21         3.7950    0.9010    5.5550 ha        1 P19      0.135250
     36 H22         3.5600   -1.3940    5.0490 ha        1 P19      0.135250
     37 H23         1.8880   -2.1060    3.5390 ha        1 P19      0.158000
@<TRIPOS>BOND
     1    1    2 1   
     2    1    5 1   
     3    2    3 1   
     4    3    4 1   
     5    4    6 1   
     6    5    9 1   
     7    7    8 1   
     8    7   17 1   
     9    9   10 1   
    10   10   11 1   
    11   10   26 1   
    12   11   12 1   
    13   11   16 1   
    14   12   13 1   
    15   12   27 1   
    16   13   28 1   
    17   14   15 1   
    18   14   29 1   
    19   15   30 1   
    20   16   31 1   
    21   17   18 1   
    22   17   32 1   
    23   18   19 1   
    24   18   23 1   
    25   19   20 1   
    26   19   33 1   
    27   20   34 1   
    28   21   22 1   
    29   21   35 1   
    30   22   36 1   
    31   23   37 1   
@<TRIPOS>SUBSTRUCTURE
     1 P19         1 TEMP              0 ****  ****    0 ROOT
