@<TRIPOS>MOLECULE
P1B
   45    41     1     0     0
SMALL
bcc


@<TRIPOS>ATOM
      1 O4         -0.9330   -0.1340    0.7130 o         1 P1B     -0.239000
      2 C4          0.0820   -0.1520    1.3620 c1        1 P1B      0.318000
      3 N3          0.9400   -0.2010    2.2410 n2        1 P1B     -0.356000
      4 C5         -0.3970   -0.1060   -2.6070 c2        1 P1B     -0.184000
      5 S1          5.5610    0.3150   -1.0720 s         1 P1B      0.147000
      6 C2          4.3710    0.2050   -0.2270 c1        1 P1B      0.002000
      7 O2          3.3950    0.1140    0.4710 o         1 P1B     -0.232000
      8 C6          0.2980    0.9610   -3.0120 c2        1 P1B     -0.078000
      9 C21        10.2110    2.5530   -8.5100 c2        1 P1B     -0.158000
     10 C7          1.1010    0.9900   -4.1620 c1        1 P1B     -0.114000
     11 C12         1.7920    1.0320   -5.1410 c1        1 P1B     -0.170000
     12 C11         2.6080    1.0740   -6.3190 c3        1 P1B      0.007000
     13 C10         3.8660    1.8260   -6.0970 c2        1 P1B     -0.245000
     14 C9          7.1770    0.6250   -2.9060 c1        1 P1B     -0.194500
     15 C8          7.8490    0.3440   -1.9480 c1        1 P1B     -0.194500
     16 O13         4.9740    1.1460   -6.3330 os        1 P1B      0.105000
     17 C14         6.1660    1.6740   -6.0580 c2        1 P1B     -0.342000
     18 C15         7.3180    0.8930   -6.5450 c3        1 P1B     -0.062000
     19 C24        12.1530    3.6730  -10.3700 c3        1 P1B     -0.212000
     20 C20         9.8760    3.5920   -9.2840 c2        1 P1B     -0.129000
     21 C19         6.6710    2.0370   -9.7950 c1        1 P1B      0.125000
     22 N18         7.3070    1.8370   -8.8170 n2        1 P1B     -0.290000
     23 C22         9.3510    1.9170   -7.5380 c2        1 P1B     -0.130000
     24 C17         8.0410    1.5920   -7.6770 c2        1 P1B      0.041000
     25 H3          1.9200   -0.1420    2.1270 hn        1 P1B      0.276000
     26 H5         -1.0060   -0.0840   -1.6900 ha        1 P1B      0.127500
     27 H61C       -0.4020   -1.0580   -3.1530 ha        1 P1B      0.127500
     28 H62C        0.2750    1.9080   -2.4400 ha        1 P1B      0.137000
     29 H21         9.8540    1.6490   -6.5900 ha        1 P1B      0.138000
     30 H22        11.2290    2.1240   -8.5530 ha        1 P1B      0.131000
     31 H12         2.0400    1.5890   -7.1500 hc        1 P1B      0.118500
     32 H8          8.4710    0.0990   -1.1220 ha        1 P1B      0.235500
     33 H11         2.8310    0.0240   -6.6640 hc        1 P1B      0.118500
     34 H9          3.8950    2.8450   -5.7070 h4        1 P1B      0.163000
     35 H141        6.6150    0.8770   -3.7780 ha        1 P1B      0.235500
     36 H142        6.2500    2.6760   -5.6370 h4        1 P1B      0.159000
     37 H151        8.0320    0.7530   -5.6870 hc        1 P1B      0.109500
     38 H152        6.9910   -0.1270   -6.8880 hc        1 P1B      0.109500
     39 H241       12.1110    2.6000  -10.6750 hc        1 P1B      0.075667
     40 H242       12.6900    3.7420   -9.3930 hc        1 P1B      0.075667
     41 H243       12.7430    4.2330  -11.1350 hc        1 P1B      0.075667
     42 H231       10.2700    4.2120  -11.2730 hc        1 P1B      0.093000
     43 H232       10.8440    5.3450   -9.9870 hc        1 P1B      0.093000
     44 H19         8.8690    4.0430   -9.2250 ha        1 P1B      0.124000
     45 C23        10.7670    4.2560  -10.2630 c3        1 P1B     -0.137000
@<TRIPOS>BOND
     1    1    2 1   
     2    2    3 1   
     3    3   25 1   
     4    4    8 1   
     5    4   26 1   
     6    4   27 1   
     7    5    6 1   
     8    6    7 1   
     9    8   10 1   
    10    8   28 1   
    11    9   20 1   
    12    9   23 1   
    13    9   30 1   
    14   10   11 1   
    15   11   12 1   
    16   12   13 1   
    17   12   31 1   
    18   12   33 1   
    19   13   16 1   
    20   13   34 1   
    21   14   15 1   
    22   14   35 1   
    23   15   32 1   
    24   16   17 1   
    25   17   18 1   
    26   17   36 1   
    27   18   24 1   
    28   18   37 1   
    29   18   38 1   
    30   19   39 1   
    31   19   40 1   
    32   19   41 1   
    33   19   45 1   
    34   20   44 1   
    35   20   45 1   
    36   21   22 1   
    37   22   24 1   
    38   23   24 1   
    39   23   29 1   
    40   42   45 1   
    41   43   45 1   
@<TRIPOS>SUBSTRUCTURE
     1 P1B         1 TEMP              0 ****  ****    0 ROOT
