@<TRIPOS>MOLECULE
P1B
   45    44     1     0     0
SMALL
bcc


@<TRIPOS>ATOM
      1 O4          2.0540    3.4090    0.8820 o         1 P1B     -0.312000
      2 C4          1.5550    2.2790    0.8250 c2        1 P1B      0.257000
      3 N3          2.0190    1.2650    1.6630 ns        1 P1B     -0.401000
      4 C5          1.0800   -0.2940   -1.0310 c2        1 P1B     -0.393000
      5 S1          0.4810   -0.6990    0.4750 ss        1 P1B      0.336000
      6 C2          1.4960   -0.0250    1.7460 c2        1 P1B      0.161000
      7 O2          1.7180   -0.6910    2.7670 o         1 P1B     -0.273000
      8 C6          2.2700    0.1790   -1.4290 c2        1 P1B     -0.070000
      9 C21        10.0640    2.0760   -9.3060 c3        1 P1B     -0.225000
     10 C7          2.6190    0.4030   -2.8240 c2        1 P1B     -0.298000
     11 C12         1.8940   -0.0820   -3.8370 c1        1 P1B      0.262000
     12 C11         3.2360   -0.8220   -6.9590 c2        1 P1B     -0.294000
     13 C10         4.5100   -0.4170   -6.9460 c2        1 P1B     -0.044000
     14 C9          4.8390    0.8890   -3.8480 c1        1 P1B      0.225000
     15 C8          3.8130    1.1970   -3.0810 c2        1 P1B     -0.424000
     16 O13         5.2780   -0.6130   -8.0820 os        1 P1B     -0.224000
     17 C14         6.5630    0.0100   -8.0440 c3        1 P1B     -0.018000
     18 C15         6.4380    1.5150   -8.2170 c3        1 P1B     -0.135000
     19 C24        11.8060    4.6860   -9.9990 c3        1 P1B     -0.209000
     20 C20        10.3140    3.3280   -8.5500 c2        1 P1B     -0.105000
     21 C19         9.3150    3.8290   -7.7640 c2        1 P1B     -0.138000
     22 N18         8.0580    3.2550   -7.6270 n2        1 P1B     -0.071000
     23 C22         8.7520    1.4640   -9.1620 c1        1 P1B     -0.063000
     24 C17         7.7980    2.1490   -8.2970 c2        1 P1B     -0.107000
     25 H3          2.6670    1.5250    2.3830 hn        1 P1B      0.249000
     26 H5          0.7390    1.9890    0.1240 h5        1 P1B      0.152000
     27 H61C        0.3070   -0.5470   -1.7870 h4        1 P1B      0.172000
     28 H62C        3.0700    0.4300   -0.7110 ha        1 P1B      0.148000
     29 H21        10.8260    1.2890   -9.0170 hc        1 P1B      0.177500
     30 H22        10.2260    2.2530  -10.4140 hc        1 P1B      0.177500
     31 H12         2.7710   -1.2810   -7.8390 ha        1 P1B      0.127000
     32 H8          3.8480    2.1730   -2.5450 ha        1 P1B      0.207000
     33 H11         2.5970   -0.7160   -6.0730 ha        1 P1B      0.127000
     34 H9          5.0140    0.0520   -6.0830 h4        1 P1B      0.139000
     35 H141        7.0900   -0.2400   -7.0870 h1        1 P1B      0.107500
     36 H142        7.1060   -0.4490   -8.9150 h1        1 P1B      0.107500
     37 H151        5.8250    1.9420   -7.3800 hc        1 P1B      0.108000
     38 H152        5.8980    1.7340   -9.1780 hc        1 P1B      0.108000
     39 H241       11.0320    5.4810  -10.1250 hc        1 P1B      0.079333
     40 H242       12.8150    5.1620  -10.0500 hc        1 P1B      0.079333
     41 H243       11.7120    3.9640  -10.8460 hc        1 P1B      0.079333
     42 H231       11.7780    4.7240   -7.8400 hc        1 P1B      0.093000
     43 H232       12.4420    3.2030   -8.5600 hc        1 P1B      0.093000
     44 H19         9.4410    4.7530   -7.1710 h4        1 P1B      0.162000
     45 C23        11.6390    3.9810   -8.6730 c3        1 P1B     -0.131000
@<TRIPOS>BOND
     1    1    2 1   
     2    2    3 1   
     3    2   26 1   
     4    3    6 1   
     5    3   25 1   
     6    4    5 1   
     7    4    8 1   
     8    4   27 1   
     9    5    6 1   
    10    6    7 1   
    11    8   10 1   
    12    8   28 1   
    13    9   20 1   
    14    9   23 1   
    15    9   29 1   
    16    9   30 1   
    17   10   11 1   
    18   10   15 1   
    19   12   13 1   
    20   12   31 1   
    21   12   33 1   
    22   13   16 1   
    23   13   34 1   
    24   14   15 1   
    25   15   32 1   
    26   16   17 1   
    27   17   18 1   
    28   17   35 1   
    29   17   36 1   
    30   18   24 1   
    31   18   37 1   
    32   18   38 1   
    33   19   39 1   
    34   19   40 1   
    35   19   41 1   
    36   19   45 1   
    37   20   21 1   
    38   20   45 1   
    39   21   22 1   
    40   21   44 1   
    41   22   24 1   
    42   23   24 1   
    43   42   45 1   
    44   43   45 1   
@<TRIPOS>SUBSTRUCTURE
     1 P1B         1 TEMP              0 ****  ****    0 ROOT
