@<TRIPOS>MOLECULE
P1B
   45    42     1     0     0
SMALL
bcc


@<TRIPOS>ATOM
      1 O4          0.8350    4.2230   -4.6000 o         1 P1B     -0.253000
      2 C4          0.4260    3.8260   -3.5370 c1        1 P1B      0.314000
      3 N3         -0.1780    3.6210   -2.4880 n2        1 P1B     -0.361000
      4 C5          1.0030    1.4440   -0.4020 c2        1 P1B     -0.365000
      5 S1          5.9830   -1.9290   -2.8150 s         1 P1B      0.171000
      6 C2          6.9510   -1.6900   -3.8850 c1        1 P1B     -0.033000
      7 O2          7.7340   -1.4780   -4.7770 o         1 P1B     -0.243000
      8 C6          1.0860    0.5860   -1.4330 c2        1 P1B     -0.083000
      9 C21        10.3880    2.2440   -7.7000 c2        1 P1B     -0.090000
     10 C7          2.1590    0.4330   -2.3170 c1        1 P1B     -0.245000
     11 C12         2.5110    1.0520   -3.4720 c2        1 P1B     -0.250000
     12 C11         3.6680    0.6520   -4.1460 c2        1 P1B      0.106000
     13 C10         4.0980    1.2600   -5.3140 c2        1 P1B     -0.325000
     14 C9          4.7150   -2.6960   -0.9160 c1        1 P1B     -0.221000
     15 C8          4.0220   -1.8030   -1.3400 c1        1 P1B     -0.221000
     16 O13         5.2660    0.7340   -5.8360 os        1 P1B      0.040000
     17 C14         5.7800    1.2310   -6.9250 c2        1 P1B      0.062000
     18 C15         7.0140    0.5640   -7.4070 c3        1 P1B     -0.126000
     19 C24        11.3680    4.2540  -10.4110 c3        1 P1B     -0.210000
     20 C20        10.0600    3.3350   -8.5090 c2        1 P1B     -0.100000
     21 C19         8.7090    3.4720   -8.9080 c2        1 P1B     -0.060000
     22 N18         7.7350    2.6180   -8.5640 n2        1 P1B     -0.150000
     23 C22         9.3880    1.3420   -7.3270 c2        1 P1B     -0.151000
     24 C17         8.0740    1.5600   -7.7810 c2        1 P1B     -0.045000
     25 H3          0.0150    2.9320   -1.7970 hn        1 P1B      0.289000
     26 H5          0.1920    1.3890    0.3310 ha        1 P1B      0.107000
     27 H61C        1.7720    2.1970   -0.1950 ha        1 P1B      0.107000
     28 H62C        0.2970   -0.1840   -1.5710 ha        1 P1B      0.134000
     29 H21         9.6220    0.4780   -6.6870 ha        1 P1B      0.158000
     30 H22        11.4230    2.0930   -7.3580 ha        1 P1B      0.148000
     31 H12         4.2680   -0.1820   -3.7200 ha        1 P1B      0.153000
     32 H8          3.3580   -1.0030   -1.6800 ha        1 P1B      0.257500
     33 H11         1.9210    1.8770   -3.9170 ha        1 P1B      0.082000
     34 H9          3.6300    2.0930   -5.8430 h4        1 P1B      0.178000
     35 H141        5.2860   -3.4890   -0.5020 ha        1 P1B      0.257500
     36 H142        5.3190    2.0860   -7.4490 h4        1 P1B      0.193000
     37 H151        7.4150   -0.1510   -6.6310 hc        1 P1B      0.151500
     38 H152        6.7370   -0.0430   -8.3180 hc        1 P1B      0.151500
     39 H241       11.7870    3.2540  -10.6800 hc        1 P1B      0.080000
     40 H242       10.4380    4.4170  -11.0070 hc        1 P1B      0.080000
     41 H243       12.1130    5.0370  -10.6930 hc        1 P1B      0.080000
     42 H231       12.0260    4.1770   -8.3540 hc        1 P1B      0.094500
     43 H232       10.7010    5.3630   -8.6810 hc        1 P1B      0.094500
     44 H19         8.3980    4.3220   -9.5440 h4        1 P1B      0.167000
     45 C23        11.0750    4.3330   -8.9320 c3        1 P1B     -0.125000
@<TRIPOS>BOND
     1    1    2 1   
     2    2    3 1   
     3    3   25 1   
     4    4    8 1   
     5    4   26 1   
     6    4   27 1   
     7    5    6 1   
     8    6    7 1   
     9    8   10 1   
    10    8   28 1   
    11    9   20 1   
    12    9   23 1   
    13    9   30 1   
    14   10   11 1   
    15   11   12 1   
    16   11   33 1   
    17   12   13 1   
    18   12   31 1   
    19   13   16 1   
    20   13   34 1   
    21   14   15 1   
    22   14   35 1   
    23   15   32 1   
    24   16   17 1   
    25   17   18 1   
    26   17   36 1   
    27   18   24 1   
    28   18   37 1   
    29   18   38 1   
    30   19   39 1   
    31   19   40 1   
    32   19   41 1   
    33   19   45 1   
    34   20   21 1   
    35   20   45 1   
    36   21   22 1   
    37   21   44 1   
    38   22   24 1   
    39   23   24 1   
    40   23   29 1   
    41   42   45 1   
    42   43   45 1   
@<TRIPOS>SUBSTRUCTURE
     1 P1B         1 TEMP              0 ****  ****    0 ROOT
