@<TRIPOS>MOLECULE
P1B
   45    47     1     0     0
SMALL
bcc


@<TRIPOS>ATOM
      1 O4          6.8990   -1.5480    0.3980 o         1 P1B     -0.572500
      2 C4          6.3680   -0.4580    0.1570 c         1 P1B      0.699500
      3 N3          7.0960    0.7350    0.0890 n         1 P1B     -0.616500
      4 C5          4.8830   -0.2570   -0.1100 c3        1 P1B     -0.079600
      5 S1          4.6540    1.5080   -0.3810 ss        1 P1B     -0.171700
      6 C2          6.3570    1.8970   -0.1840 c         1 P1B      0.714100
      7 O2          6.8830    3.0110   -0.2650 o         1 P1B     -0.552500
      8 C6          4.0410   -0.7910    1.0310 c3        1 P1B     -0.014100
      9 C21        -6.9160    0.3060   -1.3230 ca        1 P1B     -0.089000
     10 C7          2.6260   -1.0020    0.6250 ca        1 P1B     -0.139300
     11 C12         2.2860   -2.0920   -0.1900 ca        1 P1B     -0.085500
     12 C11         0.9690   -2.3160   -0.5640 ca        1 P1B     -0.181000
     13 C10        -0.0340   -1.4350   -0.1130 ca        1 P1B      0.140100
     14 C9          0.2910   -0.3450    0.7040 ca        1 P1B     -0.181000
     15 C8          1.6210   -0.1390    1.0670 ca        1 P1B     -0.085500
     16 O13        -1.3070   -1.7430   -0.5430 os        1 P1B     -0.337900
     17 C14        -2.3530   -0.8730   -0.0820 c3        1 P1B      0.137400
     18 C15        -3.6330   -1.4480   -0.6670 c3        1 P1B     -0.133700
     19 C24        -9.1020    1.4530    1.1690 c3        1 P1B     -0.091100
     20 C20        -7.0370    1.0750   -0.1610 ca        1 P1B     -0.191600
     21 C19        -5.9990    0.9830    0.7920 ca        1 P1B      0.402200
     22 N18        -4.9140    0.2050    0.6530 nb        1 P1B     -0.671000
     23 C22        -5.7950   -0.5070   -1.4890 ca        1 P1B     -0.240300
     24 C17        -4.8090   -0.5370   -0.4790 ca        1 P1B      0.402600
     25 H3          8.0790    0.7590    0.2370 hn        1 P1B      0.354500
     26 H5          4.6170   -0.7940   -1.0590 h1        1 P1B      0.125700
     27 H61C        4.4840   -1.7730    1.3630 hc        1 P1B      0.074700
     28 H62C        4.0950   -0.0860    1.9040 hc        1 P1B      0.074700
     29 H21        -7.6950    0.3420   -2.0990 ha        1 P1B      0.140000
     30 H22        -5.6770   -1.1190   -2.3940 ha        1 P1B      0.144000
     31 H12         3.0740   -2.7810   -0.5330 ha        1 P1B      0.137000
     32 H8          1.8760    0.7180    1.7100 ha        1 P1B      0.137000
     33 H11         0.6930   -3.1680   -1.2010 ha        1 P1B      0.148500
     34 H9         -0.4830    0.3470    1.0630 ha        1 P1B      0.148500
     35 H141       -2.3770   -0.8770    1.0390 h1        1 P1B      0.054200
     36 H142       -2.1650    0.1660   -0.4580 h1        1 P1B      0.054200
     37 H151       -3.4820   -1.6420   -1.7630 hc        1 P1B      0.069700
     38 H152       -3.8560   -2.4340   -0.1780 hc        1 P1B      0.069700
     39 H241       -9.9470    2.1650    1.3330 hc        1 P1B      0.038367
     40 H242       -9.5250    0.4560    0.9000 hc        1 P1B      0.038367
     41 H243       -8.5360    1.3480    2.1260 hc        1 P1B      0.038367
     42 H231       -8.7940    2.0750   -0.8770 hc        1 P1B      0.050200
     43 H232       -7.8270    2.9910    0.3450 hc        1 P1B      0.050200
     44 H19        -6.0470    1.5720    1.7260 h4        1 P1B      0.023100
     45 C23        -8.2010    1.9670    0.0710 c3        1 P1B     -0.034100
@<TRIPOS>BOND
     1    1    2 2   
     2    2    3 1   
     3    2    4 1   
     4    3    6 1   
     5    3   25 1   
     6    4    5 1   
     7    4    8 1   
     8    4   26 1   
     9    5    6 1   
    10    6    7 2   
    11    8   10 1   
    12    8   27 1   
    13    8   28 1   
    14    9   20 ar  
    15    9   23 ar  
    16    9   29 1   
    17   10   11 ar  
    18   10   15 ar  
    19   11   12 ar  
    20   11   31 1   
    21   12   13 ar  
    22   12   33 1   
    23   13   14 ar  
    24   13   16 1   
    25   14   15 ar  
    26   14   34 1   
    27   15   32 1   
    28   16   17 1   
    29   17   18 1   
    30   17   35 1   
    31   17   36 1   
    32   18   24 1   
    33   18   37 1   
    34   18   38 1   
    35   19   39 1   
    36   19   40 1   
    37   19   41 1   
    38   19   45 1   
    39   20   21 ar  
    40   20   45 1   
    41   21   22 ar  
    42   21   44 1   
    43   22   24 ar  
    44   23   24 ar  
    45   23   30 1   
    46   42   45 1   
    47   43   45 1   
@<TRIPOS>SUBSTRUCTURE
     1 P1B         1 TEMP              0 ****  ****    0 ROOT
