@<TRIPOS>MOLECULE
P1B
   45    42     1     0     0
SMALL
bcc


@<TRIPOS>ATOM
      1 O4          6.0200   -0.7470    5.4480 o         1 P1B     -0.296000
      2 C4          6.0720   -1.4040    4.4280 c1        1 P1B      0.307000
      3 N3          7.3090   -2.1310    3.8800 n2        1 P1B     -0.395000
      4 C5          4.8270   -1.7240    3.4140 c3        1 P1B     -0.247000
      5 S1          5.5550   -2.4530    2.1670 ss        1 P1B      0.182000
      6 C2          7.1060   -2.2980    2.3970 c2        1 P1B      0.190000
      7 O2          8.0050   -2.4520    1.5390 o         1 P1B     -0.276000
      8 C6          3.9760   -0.4530    3.0030 c3        1 P1B     -0.100000
      9 C21        -3.7630    1.6890   -3.8980 c1        1 P1B     -0.089000
     10 C7          2.7890   -0.8960    2.1950 c2        1 P1B     -0.133000
     11 C12         2.9010   -1.0340    0.8410 c2        1 P1B     -0.094000
     12 C11         1.7760   -1.3470    0.0750 c1        1 P1B     -0.155000
     13 C10         0.5390   -1.5190    0.6910 c1        1 P1B      0.095000
     14 C9          0.4270   -1.3820    2.0520 c1        1 P1B     -0.205000
     15 C8          1.5500   -1.0690    2.8150 c1        1 P1B     -0.081000
     16 O13        -0.5480   -1.9590   -0.0540 os        1 P1B     -0.220000
     17 C14        -1.4930   -0.9040   -0.4060 c3        1 P1B     -0.013000
     18 C15        -2.0970   -1.1920   -1.7840 c3        1 P1B     -0.118000
     19 C24        -6.4950    3.5890   -3.3280 c3        1 P1B     -0.209000
     20 C23        -4.9920    3.7820   -3.2030 c3        1 P1B     -0.120000
     21 C20        -4.3260    2.4340   -2.8830 c2        1 P1B     -0.119000
     22 C19        -4.2100    2.0040   -1.5470 c2        1 P1B     -0.063000
     23 N18        -3.5310    0.8330   -1.2560 n1        1 P1B     -0.145000
     24 C22        -3.0880    0.5230   -3.6040 c1        1 P1B     -0.175000
     25 C17        -2.9720    0.0920   -2.2660 c1        1 P1B     -0.020000
     26 H3          8.0600   -2.3660    4.3570 hn        1 P1B      0.268000
     27 H5          4.1410   -2.3020    3.8380 h1        1 P1B      0.168000
     28 H61C        4.5190    0.1410    2.4740 hc        1 P1B      0.114000
     29 H62C        3.6690    0.0110    3.8010 hc        1 P1B      0.114000
     30 H21        -3.8430    1.9890   -4.8280 ha        1 P1B      0.140000
     31 H22        -2.6900   -0.0020   -4.3230 ha        1 P1B      0.144000
     32 H12         3.7570   -0.9150    0.4140 ha        1 P1B      0.144000
     33 H8          1.4720   -0.9740    3.7700 ha        1 P1B      0.136000
     34 H11         1.8610   -1.4460   -0.9210 ha        1 P1B      0.152000
     35 H9         -0.4490   -1.5040    2.4900 ha        1 P1B      0.145000
     36 H141       -1.0440   -0.0710   -0.4280 h1        1 P1B      0.093000
     37 H142       -2.1980   -0.8720    0.2540 h1        1 P1B      0.093000
     38 H151       -1.3780   -1.3590   -2.4300 hc        1 P1B      0.109000
     39 H152       -2.6940   -2.0070   -1.7280 hc        1 P1B      0.109000
     40 H241       -6.6920    2.9810   -4.1270 hc        1 P1B      0.077667
     41 H242       -6.9180    4.4450   -3.4620 hc        1 P1B      0.077667
     42 H243       -6.8430    3.1730   -2.5020 hc        1 P1B      0.077667
     43 H231       -4.6250    4.1390   -4.0700 hc        1 P1B      0.089500
     44 H232       -4.8120    4.3960   -2.5080 hc        1 P1B      0.089500
     45 H19        -4.6290    2.5600   -0.7860 h4        1 P1B      0.160000
@<TRIPOS>BOND
     1    1    2 1   
     2    2    4 1   
     3    3    6 1   
     4    3   26 1   
     5    4    5 1   
     6    4    8 1   
     7    4   27 1   
     8    5    6 1   
     9    6    7 1   
    10    8   10 1   
    11    8   28 1   
    12    8   29 1   
    13    9   21 1   
    14    9   30 1   
    15   10   11 1   
    16   10   15 1   
    17   11   12 1   
    18   11   32 1   
    19   12   34 1   
    20   13   14 1   
    21   13   16 1   
    22   14   35 1   
    23   15   33 1   
    24   16   17 1   
    25   17   18 1   
    26   17   36 1   
    27   17   37 1   
    28   18   25 1   
    29   18   38 1   
    30   18   39 1   
    31   19   20 1   
    32   19   40 1   
    33   19   41 1   
    34   19   42 1   
    35   20   21 1   
    36   20   43 1   
    37   20   44 1   
    38   21   22 1   
    39   22   23 1   
    40   22   45 1   
    41   24   25 1   
    42   24   31 1   
@<TRIPOS>SUBSTRUCTURE
     1 P1B         1 TEMP              0 ****  ****    0 ROOT
