@<TRIPOS>MOLECULE
P1C
   41    42     1     0     0
SMALL
bcc


@<TRIPOS>ATOM
      1 C1          0.8360    0.7240   -7.2000 c         1 P1C      0.885600
      2 C2          0.0150   -0.1490   -6.1940 c3        1 P1C      0.023500
      3 C3          0.1580    0.4590   -4.7980 c3        1 P1C     -0.066400
      4 C4         -0.3160   -0.4740   -3.7040 c3        1 P1C     -0.069400
      5 C7         -0.1050    0.1510   -2.3400 c3        1 P1C     -0.147400
      6 C10        -0.5310   -0.7760   -1.2190 c         1 P1C      0.664100
      7 N11        -0.4220   -0.2710    0.0750 n         1 P1C     -0.553900
      8 C12        -0.6820   -1.0560    1.2220 cy        1 P1C      0.018700
      9 C13        -1.5050   -0.3700    2.3800 c         1 P1C      0.700500
     10 N14        -1.3700   -0.3740   -6.5900 n3        1 P1C     -0.889800
     11 O15        -0.9770   -1.9240   -1.4110 o         1 P1C     -0.613100
     12 C16         0.4560   -1.1950    2.3070 cy        1 P1C      0.112800
     13 O18        -2.6290    0.0950    2.4570 o         1 P1C     -0.537500
     14 O19         0.2600    1.1230   -8.2550 o         1 P1C     -0.849300
     15 O20         2.0430    0.9670   -6.9210 o         1 P1C     -0.849300
     16 N29        -0.4500   -0.6140    3.3000 n         1 P1C     -0.341000
     17 C30        -0.0230    0.1170    4.4090 ce        1 P1C      0.009400
     18 C31        -1.0960    0.4830    5.4760 c         1 P1C      0.931800
     19 C32         1.2850    0.4390    4.6100 c2        1 P1C     -0.255400
     20 C33         1.7190    1.1600    5.8320 c3        1 P1C     -0.017900
     21 C37         2.4010    0.1110    3.6950 c3        1 P1C      0.083900
     22 O42        -1.4510    1.6860    5.5440 o         1 P1C     -0.802800
     23 O43        -1.4840   -0.4540    6.2180 o         1 P1C     -0.802800
     24 S           1.9720   -0.3140    2.0190 ss        1 P1C     -0.375200
     25 H2          0.5080   -1.1650   -6.1850 h1        1 P1C      0.043700
     26 H3C1       -0.4080    1.4260   -4.7400 hc        1 P1C      0.044200
     27 H3C2        1.2460    0.6990   -4.6540 hc        1 P1C      0.044200
     28 H4C1        0.2420   -1.4450   -3.7600 hc        1 P1C      0.053700
     29 H4C2       -1.4020   -0.7170   -3.8390 hc        1 P1C      0.053700
     30 H7C1       -0.6900    1.1060   -2.2680 hc        1 P1C      0.062700
     31 H7C2        0.9810    0.4040   -2.2050 hc        1 P1C      0.062700
     32 H11         0.0460    0.5940    0.2170 hn        1 P1C      0.324500
     33 H12        -1.1190   -2.0490    0.9300 h1        1 P1C      0.115700
     34 H141       -1.9030    0.4520   -6.3820 hn        1 P1C      0.328800
     35 H142       -1.3810   -0.4710   -7.5930 hn        1 P1C      0.328800
     36 H16         0.6950   -2.2580    2.5510 h2        1 P1C      0.086700
     37 H331        2.4110    0.5180    6.4330 hc        1 P1C      0.029367
     38 H332        2.2670    2.0950    5.5530 hc        1 P1C      0.029367
     39 H333        0.8440    1.4420    6.4700 hc        1 P1C      0.029367
     40 H371        3.0800    0.9960    3.5840 h1        1 P1C      0.053700
     41 H372        2.9990   -0.7330    4.1220 h1        1 P1C      0.053700
@<TRIPOS>BOND
     1    1    2 1   
     2    1   14 1   
     3    1   15 1   
     4    2    3 1   
     5    2   10 1   
     6    2   25 1   
     7    3    4 1   
     8    3   26 1   
     9    3   27 1   
    10    4    5 1   
    11    4   28 1   
    12    4   29 1   
    13    5    6 1   
    14    5   30 1   
    15    5   31 1   
    16    6    7 1   
    17    6   11 2   
    18    7    8 1   
    19    7   32 1   
    20    8    9 1   
    21    8   12 1   
    22    8   33 1   
    23    9   13 2   
    24    9   16 1   
    25   10   34 1   
    26   10   35 1   
    27   12   16 1   
    28   12   24 1   
    29   12   36 1   
    30   16   17 1   
    31   17   18 1   
    32   17   19 2   
    33   18   22 1   
    34   18   23 1   
    35   19   20 1   
    36   19   21 1   
    37   20   37 1   
    38   20   38 1   
    39   20   39 1   
    40   21   24 1   
    41   21   40 1   
    42   21   41 1   
@<TRIPOS>SUBSTRUCTURE
     1 P1C         1 TEMP              0 ****  ****    0 ROOT
