@<TRIPOS>MOLECULE
P1C
   43    44     1     0     0
SMALL
bcc


@<TRIPOS>ATOM
      1 C1         -0.0870    0.5900   -0.0850 c         1 P1C      0.937600
      2 C2          1.5140    0.4290   -0.1520 c3        1 P1C     -0.074500
      3 C3          2.0340    0.0040    1.2070 c3        1 P1C     -0.097400
      4 C4          3.5440    0.0300    1.2870 c3        1 P1C     -0.086400
      5 C7          4.0120   -0.2280    2.7040 c3        1 P1C     -0.147400
      6 C10         5.5190   -0.3920    2.7440 c         1 P1C      0.669100
      7 N11         6.1090   -0.4070    4.0030 ns        1 P1C     -0.558900
      8 C12         7.5030   -0.5420    4.1800 cy        1 P1C      0.050700
      9 C13         7.9740   -1.7110    5.1150 c         1 P1C      0.675500
     10 N14         1.8640   -0.5270   -1.2460 nz        1 P1C     -0.835600
     11 O15         6.2070   -0.5330    1.7160 o         1 P1C     -0.598100
     12 C16         8.2140    0.4020    5.2340 cy        1 P1C      0.112800
     13 O18         7.8260   -2.9210    5.1790 o         1 P1C     -0.543500
     14 O19        -0.5060    1.2840    0.8540 o         1 P1C     -0.754800
     15 O20        -0.7080    0.0020   -1.0100 o         1 P1C     -0.754800
     16 N29         8.7140   -0.7930    5.9220 n         1 P1C     -0.368000
     17 C30         8.9610   -0.8380    7.3000 ce        1 P1C     -0.084600
     18 C31         9.7570   -2.0160    7.7790 c         1 P1C      0.654300
     19 C32         8.6180    0.1550    8.1650 c2        1 P1C     -0.085400
     20 C33         8.9350    0.0990    9.6140 c3        1 P1C     -0.074900
     21 C37         7.9250    1.4020    7.7620 c3        1 P1C      0.021900
     22 O42         9.2490   -3.2720    7.6910 oh        1 P1C     -0.567100
     23 O43        10.8730   -1.9580    8.2930 o         1 P1C     -0.476000
     24 S           7.1240    1.4340    6.1830 ss        1 P1C     -0.298200
     25 H2          1.9260    1.4370   -0.4330 hx        1 P1C      0.090700
     26 H3C1        1.6470   -1.0130    1.4780 hc        1 P1C      0.086700
     27 H3C2        1.5870    0.7290    1.9460 hc        1 P1C      0.086700
     28 H4C1        3.9330    1.0260    0.9460 hc        1 P1C      0.049700
     29 H4C2        3.9910   -0.7460    0.6100 hc        1 P1C      0.049700
     30 H7C1        3.5440   -1.1690    3.1010 hc        1 P1C      0.078200
     31 H7C2        3.6930    0.6200    3.3670 hc        1 P1C      0.078200
     32 H11         5.5560   -0.2170    4.8080 hn        1 P1C      0.333500
     33 H12         8.0360   -0.5620    3.1890 h1        1 P1C      0.138700
     34 H141        2.5810   -0.1500   -1.8570 hn        1 P1C      0.444800
     35 H142        2.1770   -1.4160   -0.8610 hn        1 P1C      0.444800
     36 H16         9.0500    1.0020    4.8010 h2        1 P1C      0.117700
     37 H331        9.7600   -0.6230    9.8390 hc        1 P1C      0.064367
     38 H332        9.2480    1.1090    9.9800 hc        1 P1C      0.064367
     39 H333        8.0220   -0.2130   10.1820 hc        1 P1C      0.064367
     40 H371        7.1060    1.6350    8.4940 h1        1 P1C      0.097200
     41 H372        8.6670    2.2430    7.8060 h1        1 P1C      0.097200
     42 H112        8.4150   -3.2830    7.1950 ho        1 P1C      0.449000
     43 H143        0.9760   -0.6820   -1.7850 hn        1 P1C      0.444800
@<TRIPOS>BOND
     1    1    2 1   
     2    1   14 1   
     3    1   15 1   
     4    2    3 1   
     5    2   10 1   
     6    2   25 1   
     7    3    4 1   
     8    3   26 1   
     9    3   27 1   
    10    4    5 1   
    11    4   28 1   
    12    4   29 1   
    13    5    6 1   
    14    5   30 1   
    15    5   31 1   
    16    6    7 1   
    17    6   11 2   
    18    7    8 1   
    19    7   32 1   
    20    8    9 1   
    21    8   12 1   
    22    8   33 1   
    23    9   13 2   
    24    9   16 1   
    25   10   34 1   
    26   10   35 1   
    27   10   43 1   
    28   12   16 1   
    29   12   24 1   
    30   12   36 1   
    31   16   17 1   
    32   17   18 1   
    33   17   19 2   
    34   18   22 1   
    35   18   23 2   
    36   19   20 1   
    37   19   21 1   
    38   20   37 1   
    39   20   38 1   
    40   20   39 1   
    41   21   24 1   
    42   21   40 1   
    43   21   41 1   
    44   22   42 1   
@<TRIPOS>SUBSTRUCTURE
     1 P1C         1 TEMP              0 ****  ****    0 ROOT
