@<TRIPOS>MOLECULE
P1C
   43    44     1     0     0
SMALL
bcc


@<TRIPOS>ATOM
      1 C1         -0.0810    0.6160   -0.1110 c         1 P1C      0.937600
      2 C2          1.5160    0.4140   -0.1710 c3        1 P1C     -0.074500
      3 C3          2.0250    0.0140    1.2000 c3        1 P1C     -0.097400
      4 C4          3.5350    0.0050    1.2810 c3        1 P1C     -0.086400
      5 C7          3.9950   -0.2260    2.7050 c3        1 P1C     -0.147400
      6 C10         5.4980   -0.4250    2.7500 c         1 P1C      0.669100
      7 N11         6.0880   -0.4190    4.0100 n         1 P1C     -0.558900
      8 C12         7.4780   -0.5810    4.1920 cy        1 P1C      0.050700
      9 C13         7.9230   -1.7380    5.1540 c         1 P1C      0.678500
     10 N14         1.8430   -0.5800   -1.2380 n4        1 P1C     -0.835600
     11 O15         6.1830   -0.6130    1.7280 o         1 P1C     -0.598100
     12 C16         8.2090    0.3720    5.2250 cy        1 P1C      0.115800
     13 O18         7.7610   -2.9450    5.2360 o         1 P1C     -0.546500
     14 O19        -0.4830    1.3460    0.8080 o         1 P1C     -0.754800
     15 O20        -0.7150    0.0180   -1.0190 o         1 P1C     -0.754800
     16 N29         8.6770   -0.8170    5.9430 n         1 P1C     -0.370000
     17 C30         8.9430   -0.8220    7.3170 ce        1 P1C     -0.091600
     18 C31         9.7720   -1.9530    7.8460 c         1 P1C      0.653300
     19 C32         8.6010    0.1920    8.1600 c2        1 P1C     -0.077400
     20 C33         9.0240    0.1740    9.5830 c3        1 P1C     -0.071900
     21 C37         7.8540    1.4040    7.7570 c3        1 P1C      0.022900
     22 O42         9.3980   -3.2450    7.6640 oh        1 P1C     -0.568100
     23 O43        10.8090   -1.8190    8.4950 o         1 P1C     -0.482000
     24 S           7.1380    1.4570    6.1370 ss        1 P1C     -0.301200
     25 H2          1.9530    1.4040   -0.4790 hx        1 P1C      0.090700
     26 H3C1        1.6130   -0.9860    1.4980 hc        1 P1C      0.086700
     27 H3C2        1.5950    0.7690    1.9180 hc        1 P1C      0.086700
     28 H4C1        3.9630   -0.7980    0.6250 hc        1 P1C      0.049700
     29 H4C2        3.9470    0.9820    0.9140 hc        1 P1C      0.049700
     30 H7C1        3.5050   -1.1450    3.1260 hc        1 P1C      0.078200
     31 H7C2        3.6970    0.6460    3.3450 hc        1 P1C      0.078200
     32 H11         8.5960   -3.3130    7.1220 ho        1 P1C      0.451000
     33 H12         8.0110   -0.6350    3.2020 h1        1 P1C      0.137700
     34 H141        2.5690   -0.2360   -1.8590 hn        1 P1C      0.444800
     35 H142        2.1350   -1.4640   -0.8290 hn        1 P1C      0.444800
     36 H16         9.0590    0.9420    4.7790 h2        1 P1C      0.117700
     37 H331        8.8210   -0.8240   10.0460 hc        1 P1C      0.065367
     38 H332        8.4920    0.9580   10.1750 hc        1 P1C      0.065367
     39 H333       10.1280    0.3590    9.6500 hc        1 P1C      0.065367
     40 H371        6.9810    1.5570    8.4480 h1        1 P1C      0.098700
     41 H372        8.5350    2.2890    7.8720 h1        1 P1C      0.098700
     42 H112        5.5410   -0.1880    4.8090 hn        1 P1C      0.334500
     43 H143        0.9520   -0.7280   -1.7730 hn        1 P1C      0.444800
@<TRIPOS>BOND
     1    1    2 1   
     2    1   14 1   
     3    1   15 1   
     4    2    3 1   
     5    2   10 1   
     6    2   25 1   
     7    3    4 1   
     8    3   26 1   
     9    3   27 1   
    10    4    5 1   
    11    4   28 1   
    12    4   29 1   
    13    5    6 1   
    14    5   30 1   
    15    5   31 1   
    16    6    7 1   
    17    6   11 2   
    18    7    8 1   
    19    7   42 1   
    20    8    9 1   
    21    8   12 1   
    22    8   33 1   
    23    9   13 2   
    24    9   16 1   
    25   10   34 1   
    26   10   35 1   
    27   10   43 1   
    28   12   16 1   
    29   12   24 1   
    30   12   36 1   
    31   16   17 1   
    32   17   18 1   
    33   17   19 2   
    34   18   22 1   
    35   18   23 2   
    36   19   20 1   
    37   19   21 1   
    38   20   37 1   
    39   20   38 1   
    40   20   39 1   
    41   21   24 1   
    42   21   40 1   
    43   21   41 1   
    44   22   32 1   
@<TRIPOS>SUBSTRUCTURE
     1 P1C         1 TEMP              0 ****  ****    0 ROOT
