@<TRIPOS>MOLECULE
P1C
   43    44     1     0     0
SMALL
bcc


@<TRIPOS>ATOM
      1 C1         -0.1500    0.4370   -0.0590 c         1 P1C      0.937600
      2 C2          1.4510    0.2750   -0.1340 c3        1 P1C     -0.074500
      3 C3          1.9840   -0.1000    1.2340 c3        1 P1C     -0.097400
      4 C4          3.4940   -0.0700    1.3010 c3        1 P1C     -0.086400
      5 C7          3.9750   -0.2780    2.7210 c3        1 P1C     -0.147400
      6 C10         5.4820   -0.4380    2.7530 c         1 P1C      0.669100
      7 N11         6.0840   -0.4060    4.0060 n         1 P1C     -0.558900
      8 C12         7.4800   -0.5300    4.1750 cy        1 P1C      0.050700
      9 C13         7.9650   -1.6660    5.1430 c         1 P1C      0.678500
     10 N14         1.7930   -0.7190   -1.1970 n4        1 P1C     -0.835600
     11 O15         6.1610   -0.6180    1.7250 o         1 P1C     -0.598100
     12 C16         8.1970    0.4510    5.1920 cy        1 P1C      0.115800
     13 O18         7.8350   -2.8770    5.2380 o         1 P1C     -0.546500
     14 O19        -0.5610    1.1640    0.8580 o         1 P1C     -0.754800
     15 O20        -0.7780   -0.1840   -0.9570 o         1 P1C     -0.754800
     16 N29         8.7030   -0.7190    5.9160 n         1 P1C     -0.370000
     17 C30         8.9830   -0.7040    7.2870 ce        1 P1C     -0.091600
     18 C31         9.8460   -1.8090    7.8170 c         1 P1C      0.653300
     19 C32         8.6240    0.3090    8.1240 c2        1 P1C     -0.077400
     20 C33         9.0620    0.3160    9.5430 c3        1 P1C     -0.071900
     21 C37         7.8420    1.4980    7.7180 c3        1 P1C      0.022900
     22 O42         9.5020   -3.1110    7.6520 oh        1 P1C     -0.568100
     23 O43        10.8850   -1.6420    8.4550 o         1 P1C     -0.482000
     24 S           7.1080    1.5170    6.1050 ss        1 P1C     -0.301200
     25 H2          1.8590    1.2730   -0.4550 hx        1 P1C      0.090700
     26 H3C1        1.5420    0.6500    1.9510 hc        1 P1C      0.086700
     27 H3C2        1.6010   -1.1080    1.5450 hc        1 P1C      0.086700
     28 H4C1        3.8780    0.9140    0.9220 hc        1 P1C      0.049700
     29 H4C2        3.9360   -0.8680    0.6460 hc        1 P1C      0.049700
     30 H7C1        3.6600    0.5920    3.3580 hc        1 P1C      0.078200
     31 H7C2        3.5120   -1.2050    3.1540 hc        1 P1C      0.078200
     32 H11         8.6970   -3.2050    7.1190 ho        1 P1C      0.451000
     33 H12         8.0040   -0.5800    3.1800 h1        1 P1C      0.137700
     34 H141        2.5040   -0.3620   -1.8270 hn        1 P1C      0.444800
     35 H142        0.9010   -0.8930   -1.7210 hn        1 P1C      0.444800
     36 H16         9.0270    1.0380    4.7320 h2        1 P1C      0.117700
     37 H331       10.1610    0.5290    9.5960 hc        1 P1C      0.065367
     38 H332        8.5150    1.0910   10.1320 hc        1 P1C      0.065367
     39 H333        8.8880   -0.6830   10.0170 hc        1 P1C      0.065367
     40 H371        6.9730    1.6350    8.4170 h1        1 P1C      0.098700
     41 H372        8.5010    2.4010    7.8180 h1        1 P1C      0.098700
     42 H112        5.5400   -0.1810    4.8090 hn        1 P1C      0.334500
     43 H143        2.1110   -1.5920   -0.7830 hn        1 P1C      0.444800
@<TRIPOS>BOND
     1    1    2 1   
     2    1   14 1   
     3    1   15 1   
     4    2    3 1   
     5    2   10 1   
     6    2   25 1   
     7    3    4 1   
     8    3   26 1   
     9    3   27 1   
    10    4    5 1   
    11    4   28 1   
    12    4   29 1   
    13    5    6 1   
    14    5   30 1   
    15    5   31 1   
    16    6    7 1   
    17    6   11 2   
    18    7    8 1   
    19    7   42 1   
    20    8    9 1   
    21    8   12 1   
    22    8   33 1   
    23    9   13 2   
    24    9   16 1   
    25   10   34 1   
    26   10   35 1   
    27   10   43 1   
    28   12   16 1   
    29   12   24 1   
    30   12   36 1   
    31   16   17 1   
    32   17   18 1   
    33   17   19 2   
    34   18   22 1   
    35   18   23 2   
    36   19   20 1   
    37   19   21 1   
    38   20   37 1   
    39   20   38 1   
    40   20   39 1   
    41   21   24 1   
    42   21   40 1   
    43   21   41 1   
    44   22   32 1   
@<TRIPOS>SUBSTRUCTURE
     1 P1C         1 TEMP              0 ****  ****    0 ROOT
