@<TRIPOS>MOLECULE
P1D
   39    42     1     0     0
SMALL
bcc


@<TRIPOS>ATOM
      1 O3         -0.4810   -1.7810   -1.6030 o         1 P1D     -0.934500
      2 P           0.7470   -2.2170   -0.8490 p5        1 P1D      1.229700
      3 O4          0.5780   -2.7230    0.5510 o         1 P1D     -0.934500
      4 O2          1.7090   -2.9960   -1.7230 o         1 P1D     -0.934500
      5 C1P         1.6530   -0.5370   -0.4770 c3        1 P1D     -0.300600
      6 C1          2.0610    0.6210   -1.3370 c3        1 P1D      0.426900
      7 O3'         0.9740    1.4250   -1.8470 os        1 P1D     -0.453600
      8 O2'         2.8540    0.2960   -2.4920 os        1 P1D     -0.444600
      9 C2'         2.0750    0.4130   -3.6710 c3        1 P1D      0.114100
     10 C3'         0.8690    1.3000   -3.2580 c3        1 P1D      0.109100
     11 C4'        -0.3720    0.5050   -3.7110 c3        1 P1D      0.048100
     12 C5'        -1.3880    1.3580   -4.4500 c3        1 P1D      0.149400
     13 O5'        -2.5490    0.6340   -4.8220 oh        1 P1D     -0.641800
     14 O4'         0.1270   -0.4760   -4.6530 os        1 P1D     -0.427600
     15 C1'         1.3940   -0.9050   -4.1000 c3        1 P1D      0.147400
     16 C9          2.1500   -1.7620   -5.0180 cc        1 P1D     -0.109300
     17 C8          2.6120   -3.0220   -4.5350 cd        1 P1D     -0.046300
     18 N7          3.3170   -3.6710   -5.5250 na        1 P1D     -0.138100
     19 C5          3.3330   -2.8660   -6.6620 cd        1 P1D     -0.300900
     20 C4          2.6030   -1.6460   -6.3650 cc        1 P1D      0.138400
     21 N3          2.4670   -0.6510   -7.3220 nc        1 P1D     -0.536100
     22 C2          3.0220   -0.8940   -8.4890 cd        1 P1D      0.409800
     23 N1          3.7320   -2.0400   -8.8620 n         1 P1D     -0.500400
     24 C6          3.9270   -3.1000   -7.9530 c         1 P1D      0.728100
     25 O6          4.5720   -4.1090   -8.3260 o         1 P1D     -0.718500
     26 H1P1        2.5760   -0.9340   -0.0020 hc        1 P1D      0.034700
     27 H1P2        0.9610   -0.1450    0.2990 hc        1 P1D      0.034700
     28 H1          2.7060    1.3540   -0.7570 h2        1 P1D     -0.017300
     29 H2'         2.7360    0.8460   -4.4570 h1        1 P1D      0.053700
     30 H3'         0.8930    2.3340   -3.6820 h1        1 P1D      0.027700
     31 H4'        -0.8250   -0.0620   -2.8330 h1        1 P1D      0.185700
     32 H5'1       -0.9460    1.7850   -5.3910 h1        1 P1D      0.019200
     33 H5'2       -1.7340    2.1950   -3.7850 h1        1 P1D      0.019200
     34 H5'        -2.3610   -0.3040   -4.6790 ho        1 P1D      0.432000
     35 H1'         1.1550   -1.5140   -3.1520 h1        1 P1D      0.184700
     36 H8          2.4320   -3.4040   -3.4900 h4        1 P1D      0.315000
     37 HN7         3.7510   -4.5540   -5.4640 hn        1 P1D      0.296700
     38 H2          2.9290   -0.1190   -9.2750 h5        1 P1D      0.021800
     39 HN1         4.1000   -2.1210   -9.7780 hn        1 P1D      0.308500
@<TRIPOS>BOND
     1    1    2 1   
     2    2    3 1   
     3    2    4 1   
     4    2    5 1   
     5    5    6 1   
     6    5   26 1   
     7    5   27 1   
     8    6    7 1   
     9    6    8 1   
    10    6   28 1   
    11    7   10 1   
    12    8    9 1   
    13    9   10 1   
    14    9   15 1   
    15    9   29 1   
    16   10   11 1   
    17   10   30 1   
    18   11   12 1   
    19   11   14 1   
    20   11   31 1   
    21   12   13 1   
    22   12   32 1   
    23   12   33 1   
    24   13   34 1   
    25   14   15 1   
    26   15   16 1   
    27   15   35 1   
    28   16   17 2   
    29   16   20 1   
    30   17   18 1   
    31   17   36 1   
    32   18   19 1   
    33   18   37 1   
    34   19   20 2   
    35   19   24 1   
    36   20   21 1   
    37   21   22 2   
    38   22   23 1   
    39   22   38 1   
    40   23   24 1   
    41   23   39 1   
    42   24   25 2   
@<TRIPOS>SUBSTRUCTURE
     1 P1D         1 TEMP              0 ****  ****    0 ROOT
