@<TRIPOS>MOLECULE
P1D
   39    42     1     0     0
SMALL
bcc


@<TRIPOS>ATOM
      1 O3          2.5180    1.4550    1.4840 o         1 P1D     -0.934500
      2 P           2.6020    0.1400    2.2120 p5        1 P1D      1.229700
      3 O4          3.7290   -0.0660    3.1770 o         1 P1D     -0.934500
      4 O2          1.2430   -0.3510    2.6670 o         1 P1D     -0.934500
      5 C1P         3.1430   -1.1000    0.8150 c3        1 P1D     -0.300600
      6 C1          2.6140   -1.3960   -0.5550 c3        1 P1D      0.426900
      7 O3'         2.8120   -0.3510   -1.5330 os        1 P1D     -0.453600
      8 O2'         1.2130   -1.7140   -0.6320 os        1 P1D     -0.444600
      9 C2'         0.4940   -0.6300   -1.1950 c3        1 P1D      0.114100
     10 C3'         1.5700    0.2190   -1.9250 c3        1 P1D      0.109100
     11 C4'         1.3610    1.6520   -1.3970 c3        1 P1D      0.048100
     12 C5'         1.3480    2.6960   -2.5000 c3        1 P1D      0.149400
     13 O5'         1.2040    4.0170   -2.0060 oh        1 P1D     -0.641800
     14 O4'         0.0420    1.6480   -0.7980 os        1 P1D     -0.427600
     15 C1'        -0.0620    0.3600   -0.1470 c3        1 P1D      0.147400
     16 C9         -1.4120    0.0870    0.3560 cc        1 P1D     -0.109300
     17 C8         -1.5560   -0.2910    1.7240 cd        1 P1D     -0.046300
     18 N7         -2.8840   -0.5270    2.0050 na        1 P1D     -0.138100
     19 C5         -3.6300   -0.3110    0.8490 cd        1 P1D     -0.300900
     20 C4         -2.7180    0.0760   -0.2150 cc        1 P1D      0.138400
     21 N3         -3.1910    0.3450   -1.4900 nc        1 P1D     -0.536100
     22 C2         -4.4900    0.2400   -1.6580 cd        1 P1D      0.409800
     23 N1         -5.4390   -0.1150   -0.6920 n         1 P1D     -0.500400
     24 C6         -5.0500   -0.4140    0.6300 c         1 P1D      0.728100
     25 O6         -5.9300   -0.7310    1.4640 o         1 P1D     -0.718500
     26 H1P1        3.1040   -2.0480    1.3930 hc        1 P1D      0.034700
     27 H1P2        4.1970   -0.7660    0.6980 hc        1 P1D      0.034700
     28 H1          3.1280   -2.3040   -1.0060 h2        1 P1D     -0.017300
     29 H2'        -0.2930   -1.0670   -1.8520 h1        1 P1D      0.053700
     30 H3'         1.5210    0.1620   -3.0400 h1        1 P1D      0.027700
     31 H4'         2.1110    1.8870   -0.5740 h1        1 P1D      0.185700
     32 H5'1        0.5010    2.5150   -3.2160 h1        1 P1D      0.019200
     33 H5'2        2.3230    2.6690   -3.0570 h1        1 P1D      0.019200
     34 H5'         0.9620    3.9500   -1.0710 ho        1 P1D      0.432000
     35 H1'         0.6600    0.3790    0.7500 h1        1 P1D      0.184700
     36 H8         -0.6960   -0.3940    2.4460 h4        1 P1D      0.315000
     37 HN7        -3.2680   -0.8060    2.8690 hn        1 P1D      0.296700
     38 H2         -4.9000    0.4510   -2.6650 h5        1 P1D      0.021800
     39 HN1        -6.4000   -0.1530   -0.9280 hn        1 P1D      0.308500
@<TRIPOS>BOND
     1    1    2 1   
     2    2    3 1   
     3    2    4 1   
     4    2    5 1   
     5    5    6 1   
     6    5   26 1   
     7    5   27 1   
     8    6    7 1   
     9    6    8 1   
    10    6   28 1   
    11    7   10 1   
    12    8    9 1   
    13    9   10 1   
    14    9   15 1   
    15    9   29 1   
    16   10   11 1   
    17   10   30 1   
    18   11   12 1   
    19   11   14 1   
    20   11   31 1   
    21   12   13 1   
    22   12   32 1   
    23   12   33 1   
    24   13   34 1   
    25   14   15 1   
    26   15   16 1   
    27   15   35 1   
    28   16   17 2   
    29   16   20 1   
    30   17   18 1   
    31   17   36 1   
    32   18   19 1   
    33   18   37 1   
    34   19   20 2   
    35   19   24 1   
    36   20   21 1   
    37   21   22 2   
    38   22   23 1   
    39   22   38 1   
    40   23   24 1   
    41   23   39 1   
    42   24   25 2   
@<TRIPOS>SUBSTRUCTURE
     1 P1D         1 TEMP              0 ****  ****    0 ROOT
