@<TRIPOS>MOLECULE
P1D
   39    42     1     0     0
SMALL
bcc


@<TRIPOS>ATOM
      1 O3         -0.5290   -1.7800   -1.6410 o         1 P1D     -0.934500
      2 P           0.6750   -2.2900   -0.8960 p5        1 P1D      1.229700
      3 O4          0.4790   -2.8330    0.4860 o         1 P1D     -0.934500
      4 O2          1.6100   -3.0780   -1.7910 o         1 P1D     -0.934500
      5 C1P         1.6460   -0.6610   -0.4670 c3        1 P1D     -0.300600
      6 C1          2.1050    0.5070   -1.2870 c3        1 P1D      0.426900
      7 O3'         1.0540    1.3710   -1.7750 os        1 P1D     -0.453600
      8 O2'         2.8910    0.1880   -2.4480 os        1 P1D     -0.444600
      9 C2'         2.1240    0.3740   -3.6260 c3        1 P1D      0.114100
     10 C3'         0.9520    1.2950   -3.1900 c3        1 P1D      0.109100
     11 C4'        -0.3180    0.5660   -3.6730 c3        1 P1D      0.048100
     12 C5'        -1.2950    1.4830   -4.3880 c3        1 P1D      0.149400
     13 O5'        -2.4820    0.8180   -4.7880 oh        1 P1D     -0.641800
     14 O4'         0.1470   -0.4030   -4.6450 os        1 P1D     -0.427600
     15 C1'         1.3920   -0.9000   -4.1010 c3        1 P1D      0.147400
     16 C9          2.1180   -1.7580   -5.0430 cc        1 P1D     -0.109300
     17 C8          2.5270   -3.0500   -4.5980 cd        1 P1D     -0.046300
     18 N7          3.2110   -3.6950   -5.6070 na        1 P1D     -0.138100
     19 C5          3.2650   -2.8560   -6.7160 cd        1 P1D     -0.300900
     20 C4          2.5820   -1.6160   -6.3830 cc        1 P1D      0.138400
     21 N3          2.4920   -0.5870   -7.3080 nc        1 P1D     -0.536100
     22 C2          3.0420   -0.8140   -8.4800 cd        1 P1D      0.409800
     23 N1          3.7080   -1.9750   -8.8870 ns        1 P1D     -0.500400
     24 C6          3.8560   -3.0710   -8.0120 c         1 P1D      0.728100
     25 O6          4.4620   -4.0920   -8.4150 o         1 P1D     -0.718500
     26 H1P1        0.9660   -0.2660    0.3190 hc        1 P1D      0.034700
     27 H1P2        2.5500   -1.1090   -0.0010 hc        1 P1D      0.034700
     28 H1          2.7760    1.1950   -0.6810 h2        1 P1D     -0.017300
     29 H2'         2.8060    0.8050   -4.3950 h1        1 P1D      0.053700
     30 H3'         1.0190    2.3400   -3.5800 h1        1 P1D      0.027700
     31 H4'        -0.7980   -0.0100   -2.8160 h1        1 P1D      0.185700
     32 H5'1       -1.6100    2.3110   -3.6980 h1        1 P1D      0.019200
     33 H5'2       -0.8310    1.9210   -5.3130 h1        1 P1D      0.019200
     34 H5'        -2.3320   -0.1310   -4.6750 ho        1 P1D      0.432000
     35 H1'         1.1240   -1.5300   -3.1730 h1        1 P1D      0.184700
     36 H8          2.3260   -3.4580   -3.5670 h4        1 P1D      0.315000
     37 HN7         3.6080   -4.5960   -5.5720 hn        1 P1D      0.296700
     38 H2          2.9850   -0.0120   -9.2420 h5        1 P1D      0.021800
     39 HN1         4.0770   -2.0420   -9.8040 hn        1 P1D      0.308500
@<TRIPOS>BOND
     1    1    2 1   
     2    2    3 1   
     3    2    4 1   
     4    2    5 1   
     5    5    6 1   
     6    5   26 1   
     7    5   27 1   
     8    6    7 1   
     9    6    8 1   
    10    6   28 1   
    11    7   10 1   
    12    8    9 1   
    13    9   10 1   
    14    9   15 1   
    15    9   29 1   
    16   10   11 1   
    17   10   30 1   
    18   11   12 1   
    19   11   14 1   
    20   11   31 1   
    21   12   13 1   
    22   12   32 1   
    23   12   33 1   
    24   13   34 1   
    25   14   15 1   
    26   15   16 1   
    27   15   35 1   
    28   16   17 2   
    29   16   20 1   
    30   17   18 1   
    31   17   36 1   
    32   18   19 1   
    33   18   37 1   
    34   19   20 2   
    35   19   24 1   
    36   20   21 1   
    37   21   22 2   
    38   22   23 1   
    39   22   38 1   
    40   23   24 1   
    41   23   39 1   
    42   24   25 2   
@<TRIPOS>SUBSTRUCTURE
     1 P1D         1 TEMP              0 ****  ****    0 ROOT
