@<TRIPOS>MOLECULE
P1D
   39    37     1     0     0
SMALL
bcc


@<TRIPOS>ATOM
      1 O3          3.0380    4.6520    3.0450 o         1 P1D     -0.942167
      2 P           1.5810    4.1950    3.1690 p5        1 P1D      1.206700
      3 O4          1.1410    4.3290    4.5840 o         1 P1D     -0.942167
      4 O2          0.6920    5.0650    2.2760 o         1 P1D     -0.942167
      5 C1P         1.4390    2.4500    2.6460 c3        1 P1D     -0.298600
      6 C1          0.5810    2.3680    1.3940 c3        1 P1D      0.361900
      7 O3'        -0.8760    1.8600    1.7670 os        1 P1D     -0.444600
      8 O2'         1.0580    1.5270    0.6110 os        1 P1D     -0.443600
      9 C2'        -0.1360    0.9030   -0.0640 c3        1 P1D      0.106100
     10 C3'        -1.3410    1.3590    0.7260 c3        1 P1D      0.105100
     11 C4'        -2.1620    0.0630    1.0430 c3        1 P1D      0.085100
     12 C5'        -3.6530    0.2710    0.6750 c3        1 P1D      0.122400
     13 O5'        -4.3740   -0.9550    0.8820 oh        1 P1D     -0.624800
     14 O4'        -1.6480   -0.8390    0.3080 os        1 P1D     -0.442600
     15 C1'        -0.1170   -0.3900    0.0550 c3        1 P1D      0.191300
     16 C9          0.4010   -1.0180   -1.1940 ce        1 P1D     -0.129000
     17 C8         -0.2230   -0.6060   -2.3720 c1        1 P1D      0.206500
     18 N7          0.1260   -1.4730   -3.3570 ne        1 P1D     -0.412400
     19 C5          0.9730   -2.4370   -2.8050 cg        1 P1D     -0.150000
     20 C4          1.1360   -2.1490   -1.4750 cg        1 P1D      0.290500
     21 N3          1.9280   -2.9490   -0.6960 n1        1 P1D     -0.431800
     22 C2          2.5480   -4.0200   -1.2400 c1        1 P1D      0.396300
     23 N1          2.3830   -4.3050   -2.5730 n1        1 P1D     -0.819200
     24 C6          1.5960   -3.5120   -3.3470 c1        1 P1D      0.618900
     25 O6          1.4520   -3.7670   -4.5440 o         1 P1D     -0.660900
     26 H1P1        1.0020    1.9000    3.3970 hc        1 P1D      0.061200
     27 H1P2        2.3390    2.0880    2.4540 hc        1 P1D      0.061200
     28 H1          0.5330    3.2270    0.9700 h2        1 P1D      0.146700
     29 H2'        -0.2020    1.1820   -1.0250 h1        1 P1D      0.041700
     30 H3'        -1.8560    1.9880    0.2360 h1        1 P1D      0.039700
     31 H4'        -2.0710   -0.1720    1.9880 h1        1 P1D      0.098700
     32 H5'1       -4.0420    0.9890    1.2520 h1        1 P1D      0.033200
     33 H5'2       -3.7220    0.5300   -0.2460 h1        1 P1D      0.033200
     34 H5'        -5.0070   -0.8230    1.4440 ho        1 P1D      0.415000
     35 H1'         0.4110   -0.6310    0.7760 h1        1 P1D      0.112700
     36 H8         -0.7930    0.0660   -2.8540 DU        1 P1D      0.218500
     37 HN7        -0.1480   -1.3900   -4.2620 DU        1 P1D      0.218500
     38 H2          3.2080   -4.5430   -0.6970 ha        1 P1D      0.115500
     39 HN1         2.8070   -5.0340   -2.9440 hn        1 P1D      0.401400
@<TRIPOS>BOND
     1    1    2 1   
     2    2    3 1   
     3    2    4 1   
     4    2    5 1   
     5    5    6 1   
     6    5   26 1   
     7    5   27 1   
     8    6    7 1   
     9    6    8 1   
    10    6   28 1   
    11    7   10 1   
    12    8    9 1   
    13    9   10 1   
    14    9   15 1   
    15    9   29 1   
    16   10   11 1   
    17   10   30 1   
    18   11   12 1   
    19   11   14 1   
    20   11   31 1   
    21   12   13 1   
    22   12   32 1   
    23   12   33 1   
    24   13   34 1   
    25   14   15 1   
    26   15   16 1   
    27   15   35 1   
    28   16   17 2   
    29   16   20 1   
    30   17   18 2   
    31   18   19 1   
    32   19   24 3   
    33   20   21 3   
    34   22   23 3   
    35   22   38 1   
    36   23   39 1   
    37   24   25 1   
@<TRIPOS>SUBSTRUCTURE
     1 P1D         1 TEMP              0 ****  ****    0 ROOT
