@<TRIPOS>MOLECULE
P1E
   56    51     1     0     0
SMALL
bcc


@<TRIPOS>ATOM
      1 C4          1.1870    3.1830    1.0400 c1        1 P1E      0.131000
      2 C6          2.9220    4.4230    2.1000 c1        1 P1E      0.003000
      3 C9          0.4210    0.8430    0.3790 c1        1 P1E      0.210000
      4 C13         1.6590   -0.3940   -1.2210 c1        1 P1E      0.052000
      5 F22         0.7750   -3.8220   -0.9940 f         1 P1E     -0.165333
      6 C15         1.0600   -2.7690   -1.8010 c3        1 P1E      0.497000
      7 F16         2.3530   -2.8300   -2.1800 f         1 P1E     -0.165333
      8 F21         0.2890   -2.8110   -2.8630 f         1 P1E     -0.165333
      9 C12         0.8130   -1.4600   -1.0420 c1        1 P1E     -0.335000
     10 N14         1.4680    0.7470   -0.5190 n1        1 P1E     -0.222000
     11 C11        -0.2450   -1.3650   -0.1370 c1        1 P1E      0.216000
     12 N8         -1.0480   -2.5460    0.1700 n2        1 P1E     -0.257000
     13 C25        -2.1500   -2.9020   -0.6690 c3        1 P1E     -0.021000
     14 C28        -3.0900   -1.9480   -0.6290 c3        1 P1E     -0.188000
     15 C31        -4.0920   -2.4000    0.5440 c3        1 P1E     -0.157000
     16 C27        -3.6940   -3.9110    0.8920 c3        1 P1E     -0.170000
     17 C24        -2.8750   -4.2940   -0.0970 c3        1 P1E     -0.001000
     18 N26        -3.6270   -4.9310   -1.1450 n3        1 P1E     -0.278000
     19 C30        -4.9220   -5.2880   -0.6510 c3        1 P1E     -0.111500
     20 C29        -2.9190   -6.1480   -1.6020 c3        1 P1E     -0.111500
     21 N10        -0.4320   -0.2260    0.5610 n2        1 P1E     -0.287000
     22 N7          0.1750    2.1050    1.0810 n2        1 P1E     -0.251000
     23 C5          2.0370    3.3620    2.0970 c2        1 P1E     -0.199000
     24 C3          1.2160    4.0670   -0.0300 c1        1 P1E     -0.151000
     25 C2          2.0990    5.1250   -0.0270 c1        1 P1E      0.000000
     26 C1          2.9490    5.3060    1.0300 c1        1 P1E     -0.845000
     27 S18         3.9870    6.7490    1.0900 s4        1 P1E      2.073800
     28 O19         3.9870    7.3380    2.3930 o         1 P1E     -0.542900
     29 O20         3.4290    7.8280    0.2940 o         1 P1E     -0.542900
     30 N17         5.5510    6.3680    0.5920 n2        1 P1E     -0.892000
     31 C23         6.5300    7.3790    0.5300 c3        1 P1E     -0.065000
     32 H6          3.5220    4.5500    2.8470 ha        1 P1E      0.157000
     33 H13         2.4180   -0.4610   -1.8690 ha        1 P1E      0.186000
     34 HN8        -0.8780   -3.0310    0.9290 hn        1 P1E      0.195000
     35 H25        -1.8540   -3.0310   -1.5650 h1        1 P1E      0.131000
     36 H28        -2.6930   -1.0940   -0.4190 hc        1 P1E      0.096500
     37 H28A       -3.5570   -1.9020   -1.4710 hc        1 P1E      0.096500
     38 H31        -3.9720   -1.8280    1.3310 hc        1 P1E      0.084000
     39 H31A       -5.0110   -2.3580    0.2340 hc        1 P1E      0.084000
     40 H27        -4.5040   -4.4860    0.9110 hc        1 P1E      0.088500
     41 H27A       -3.2200   -3.9500    1.7700 hc        1 P1E      0.088500
     42 H24        -2.1820   -4.9200    0.2550 h1        1 P1E      0.090000
     43 H30        -4.8260   -5.7870    0.2080 h1        1 P1E      0.072333
     44 H30A       -5.3760   -5.8570   -1.3090 h1        1 P1E      0.072333
     45 H30B       -5.4700   -4.4410   -0.4950 h1        1 P1E      0.072333
     46 H29        -1.9870   -5.9440   -1.7440 h1        1 P1E      0.072333
     47 H29A       -3.3220   -6.4660   -2.4540 h1        1 P1E      0.072333
     48 H29B       -3.0000   -6.8430   -0.9260 h1        1 P1E      0.072333
     49 HN7        -0.6560    2.2550    1.5060 hn        1 P1E      0.257000
     50 H5          2.0180    2.7360    2.8550 ha        1 P1E      0.142000
     51 H3          0.6110    3.9400   -0.7840 ha        1 P1E      0.163000
     52 H2          2.1180    5.7660   -0.8040 ha        1 P1E      0.155000
     53 HN17        5.7360    5.5290    0.2630 hn        1 P1E      0.244000
     54 H23         6.4890    7.9260    1.3490 h1        1 P1E      0.082333
     55 H23A        7.4230    6.9690    0.4540 h1        1 P1E      0.082333
     56 H23B        6.3610    7.9510   -0.2580 h1        1 P1E      0.082333
@<TRIPOS>BOND
     1    1   23 1   
     2    1   24 1   
     3    2   23 1   
     4    2   32 1   
     5    3   21 1   
     6    3   22 1   
     7    4   10 1   
     8    4   33 1   
     9    5    6 1   
    10    6    7 1   
    11    6    8 1   
    12    6    9 1   
    13    9   11 1   
    14   11   21 1   
    15   12   13 1   
    16   12   34 1   
    17   13   14 1   
    18   13   17 1   
    19   13   35 1   
    20   14   15 1   
    21   14   36 1   
    22   14   37 1   
    23   15   16 1   
    24   15   38 1   
    25   15   39 1   
    26   16   17 1   
    27   16   40 1   
    28   16   41 1   
    29   17   18 1   
    30   17   42 1   
    31   18   19 1   
    32   18   20 1   
    33   19   43 1   
    34   19   44 1   
    35   19   45 1   
    36   20   46 1   
    37   20   47 1   
    38   20   48 1   
    39   22   49 1   
    40   23   50 1   
    41   24   51 1   
    42   25   26 1   
    43   25   52 1   
    44   26   27 1   
    45   27   28 1   
    46   27   29 1   
    47   30   31 1   
    48   30   53 1   
    49   31   54 1   
    50   31   55 1   
    51   31   56 1   
@<TRIPOS>SUBSTRUCTURE
     1 P1E         1 TEMP              0 ****  ****    0 ROOT
