@<TRIPOS>MOLECULE
P1E
   58    60     1     0     0
SMALL
bcc


@<TRIPOS>ATOM
      1 C4         -0.0060    0.3230    0.0110 ca        1 P1E      0.307600
      2 C6          1.1280   -0.7680    1.8620 ca        1 P1E      0.046000
      3 C9          0.1770   -0.1750   -2.4390 ca        1 P1E      0.930900
      4 C13         1.9680   -1.2180   -3.4690 ca        1 P1E      0.546200
      5 F22         3.1740   -2.3460   -5.7400 f         1 P1E     -0.226300
      6 F16         1.9740   -1.0260   -6.9860 f         1 P1E     -0.226300
      7 F21         1.2010   -2.9640   -6.4250 f         1 P1E     -0.226300
      8 C12         1.2610   -1.2830   -4.6820 ca        1 P1E     -0.482900
      9 N14         1.4640   -0.6830   -2.3490 nb        1 P1E     -0.743000
     10 C11        -0.0690   -0.7470   -4.6990 ca        1 P1E      0.744200
     11 N8         -0.7710   -0.7510   -5.9140 nh        1 P1E     -0.855900
     12 C25        -2.1390   -0.2940   -6.0050 c3        1 P1E      0.201500
     13 C28        -3.2090   -1.2290   -5.4040 c3        1 P1E     -0.107400
     14 C31        -4.4780   -1.0360   -6.2160 c3        1 P1E     -0.083400
     15 C27        -4.1250   -0.2310   -7.4570 c3        1 P1E     -0.099400
     16 C24        -2.5880   -0.1370   -7.5010 c3        1 P1E      0.106500
     17 N26        -2.1030    1.1280   -8.1620 n4        1 P1E     -0.672400
     18 C30        -0.6230    1.2720   -8.1240 c3        1 P1E      0.084100
     19 C29        -2.5820    1.1880   -9.5730 c3        1 P1E      0.084100
     20 N10        -0.6120   -0.1860   -3.5760 nb        1 P1E     -0.794000
     21 N7         -0.4050    0.4400   -1.3090 nh        1 P1E     -0.721300
     22 C5          0.8230   -0.7130    0.5180 ca        1 P1E     -0.199000
     23 C3         -0.5110    1.2850    0.9430 ca        1 P1E     -0.199000
     24 C2         -0.1880    1.2060    2.2780 ca        1 P1E      0.046000
     25 C1          0.6430    0.1820    2.7920 ca        1 P1E     -0.598500
     26 S18         0.9110    0.0300    4.3560 sy        1 P1E      1.495200
     27 O19         0.0790    0.7830    5.1570 o         1 P1E     -0.567300
     28 O20         1.3920   -1.2020    4.7440 o         1 P1E     -0.567300
     29 N17         2.5490    1.0590    4.4370 n4        1 P1E     -0.690900
     30 C23         2.7630    1.6240    5.7760 c3        1 P1E      0.072100
     31 H6          1.7520   -1.6060    2.2320 ha        1 P1E      0.172000
     32 H13         3.0030   -1.6160   -3.3920 h4        1 P1E      0.074100
     33 HN8        -0.5730   -1.5620   -6.4730 hn        1 P1E      0.439800
     34 H25        -2.2100    0.7090   -5.4900 h1        1 P1E      0.090700
     35 H28        -3.3700   -0.9720   -4.3270 hc        1 P1E      0.080200
     36 H28A       -2.8800   -2.2990   -5.4480 hc        1 P1E      0.080200
     37 H31        -4.9140   -2.0280   -6.5020 hc        1 P1E      0.081700
     38 H31A       -5.2570   -0.4980   -5.6160 hc        1 P1E      0.081700
     39 H27        -4.5050   -0.7350   -8.3830 hc        1 P1E      0.075700
     40 H27A       -4.6020    0.7830   -7.4020 hc        1 P1E      0.075700
     41 H24        -2.1820   -0.9910   -8.1210 hx        1 P1E      0.112700
     42 H30        -0.1340    0.3090   -8.4340 hx        1 P1E      0.108700
     43 H30A       -0.2970    1.5400   -7.0840 hx        1 P1E      0.108700
     44 H30B       -0.3140    2.0900   -8.8300 hx        1 P1E      0.108700
     45 H29        -2.1240    0.3470  -10.1590 hx        1 P1E      0.108700
     46 H29A       -3.7010    1.0980   -9.5970 hx        1 P1E      0.108700
     47 H29B       -2.2760    2.1700  -10.0250 hx        1 P1E      0.108700
     48 HN7        -1.1950    1.0310   -1.4890 hn        1 P1E      0.478800
     49 H5          1.2210   -1.5040   -0.1390 ha        1 P1E      0.179500
     50 H3         -1.1710    2.1000    0.5990 ha        1 P1E      0.179500
     51 H2         -0.6070    1.9570    2.9780 ha        1 P1E      0.172000
     52 HN17        3.3360    0.4550    4.2080 hn        1 P1E      0.442300
     53 H23         3.6790    2.2730    5.8010 hx        1 P1E      0.109367
     54 H23A        2.8930    0.7870    6.5160 hx        1 P1E      0.109367
     55 H23B        1.8690    2.2440    6.0670 hx        1 P1E      0.109367
     56 C15         1.8960   -1.8900   -5.9170 c3        1 P1E      0.713200
     57 H261       -2.5140    1.9220   -7.6530 hn        1 P1E      0.445800
     58 H172        2.5360    1.8110    3.7530 hn        1 P1E      0.442300
@<TRIPOS>BOND
     1    1   21 1   
     2    1   22 ar  
     3    1   23 ar  
     4    2   22 ar  
     5    2   25 ar  
     6    2   31 1   
     7    3    9 ar  
     8    3   20 ar  
     9    3   21 1   
    10    4    8 ar  
    11    4    9 ar  
    12    4   32 1   
    13    5   56 1   
    14    6   56 1   
    15    7   56 1   
    16    8   10 ar  
    17    8   56 1   
    18   10   11 1   
    19   10   20 ar  
    20   11   12 1   
    21   11   33 1   
    22   12   13 1   
    23   12   16 1   
    24   12   34 1   
    25   13   14 1   
    26   13   35 1   
    27   13   36 1   
    28   14   15 1   
    29   14   37 1   
    30   14   38 1   
    31   15   16 1   
    32   15   39 1   
    33   15   40 1   
    34   16   17 1   
    35   16   41 1   
    36   17   18 1   
    37   17   19 1   
    38   17   57 1   
    39   18   42 1   
    40   18   43 1   
    41   18   44 1   
    42   19   45 1   
    43   19   46 1   
    44   19   47 1   
    45   21   48 1   
    46   22   49 1   
    47   23   24 ar  
    48   23   50 1   
    49   24   25 ar  
    50   24   51 1   
    51   25   26 1   
    52   26   27 2   
    53   26   28 2   
    54   26   29 1   
    55   29   30 1   
    56   29   52 1   
    57   29   58 1   
    58   30   53 1   
    59   30   54 1   
    60   30   55 1   
@<TRIPOS>SUBSTRUCTURE
     1 P1E         1 TEMP              0 ****  ****    0 ROOT
