@<TRIPOS>MOLECULE
P1E
   56    58     1     0     0
SMALL
bcc


@<TRIPOS>ATOM
      1 C4          2.3320    0.6480    0.0120 ca        1 P1E      0.213600
      2 C6          4.3510   -0.5440   -0.6020 ca        1 P1E      0.001500
      3 C9         -0.0530   -0.0730    0.0070 ca        1 P1E      0.938900
      4 C13        -0.7260   -2.2850    0.0620 ca        1 P1E      0.543200
      5 F22        -2.7340   -4.2430    0.1780 f         1 P1E     -0.241300
      6 F16        -4.0620   -2.8920   -0.8770 f         1 P1E     -0.241300
      7 F21        -3.9830   -2.8520    1.2770 f         1 P1E     -0.241300
      8 C12        -2.0770   -1.9050    0.1150 ca        1 P1E     -0.545900
      9 N14         0.2930   -1.4250    0.0050 nb        1 P1E     -0.769000
     10 C11        -2.3640   -0.4930    0.1130 ca        1 P1E      0.783200
     11 N8         -3.6710   -0.0630    0.1040 nh        1 P1E     -0.850900
     12 C25        -4.0590    1.3280    0.1850 c3        1 P1E      0.223500
     13 C28        -3.8350    1.9690    1.5730 c3        1 P1E     -0.099400
     14 C31        -5.0080    2.8940    1.8430 c3        1 P1E     -0.080400
     15 C27        -5.9400    2.8240    0.6460 c3        1 P1E     -0.079400
     16 C24        -5.5850    1.5330   -0.1210 c3        1 P1E      0.179500
     17 N26        -5.9010    1.6130   -1.5460 n3        1 P1E     -0.736600
     18 C30        -5.3900    0.5100   -2.3280 c3        1 P1E      0.155100
     19 C29        -7.3110    1.8510   -1.7750 c3        1 P1E      0.155100
     20 N10        -1.3400    0.4230    0.0820 nb        1 P1E     -0.823000
     21 N7          0.9530    0.9000   -0.0870 nh        1 P1E     -0.726300
     22 C5          2.9720   -0.3950   -0.6910 ca        1 P1E     -0.176500
     23 C3          3.1260    1.5310    0.7870 ca        1 P1E     -0.176500
     24 C2          4.5010    1.3610    0.8490 ca        1 P1E      0.001500
     25 C1          5.1400    0.3260    0.1570 ca        1 P1E     -0.402500
     26 S18         6.8090    0.1100    0.2690 sy        1 P1E      1.518200
     27 O19         7.2560    0.7110    1.4670 o         1 P1E     -0.655300
     28 O20         7.0930   -1.2610    0.0830 o         1 P1E     -0.655300
     29 N17         7.3780    0.9230   -1.0060 n3        1 P1E     -0.920100
     30 C23         7.7920    2.2860   -0.9850 c3        1 P1E      0.212100
     31 H6          4.8350   -1.3830   -1.1370 ha        1 P1E      0.155000
     32 H13        -0.4460   -3.3590    0.0670 h4        1 P1E      0.046100
     33 HN8        -4.3750   -0.7410    0.3010 hn        1 P1E      0.446800
     34 H25        -3.4540    1.9050   -0.5760 h1        1 P1E      0.095700
     35 H28        -3.7620    1.1930    2.3770 hc        1 P1E      0.054700
     36 H28A       -2.8680    2.5310    1.5670 hc        1 P1E      0.054700
     37 H31        -5.5450    2.5780    2.7740 hc        1 P1E      0.046200
     38 H31A       -4.6580    3.9450    2.0050 hc        1 P1E      0.046200
     39 H27        -7.0100    2.7980    0.9670 hc        1 P1E      0.055200
     40 H27A       -5.7990    3.7240   -0.0050 hc        1 P1E      0.055200
     41 H24        -6.1640    0.6830    0.3600 h1        1 P1E      0.021700
     42 H30        -5.6360   -0.4980   -1.8950 h1        1 P1E      0.034533
     43 H30A       -5.8160    0.5610   -3.3650 h1        1 P1E      0.034533
     44 H30B       -4.2760    0.6110   -2.4060 h1        1 P1E      0.034533
     45 H29        -7.6130    2.8040   -1.2660 h1        1 P1E      0.034533
     46 H29A       -7.4840    1.9700   -2.8770 h1        1 P1E      0.034533
     47 H29B       -7.9680    1.0200   -1.3970 h1        1 P1E      0.034533
     48 HN7         0.6720    1.8370    0.1220 hn        1 P1E      0.456800
     49 H5          2.3980   -1.0970   -1.3150 ha        1 P1E      0.153500
     50 H3          2.6600    2.3550    1.3500 ha        1 P1E      0.153500
     51 H2          5.1050    2.0420    1.4750 ha        1 P1E      0.155000
     52 HN17        7.4710    0.4890   -1.8940 hn        1 P1E      0.447800
     53 H23         7.0850    2.9320   -1.5740 h1        1 P1E      0.042700
     54 H23A        7.8260    2.6600    0.0760 h1        1 P1E      0.042700
     55 H23B        8.8180    2.3940   -1.4300 h1        1 P1E      0.042700
     56 C15        -3.1680   -2.9410    0.1690 c3        1 P1E      0.714200
@<TRIPOS>BOND
     1    1   21 1   
     2    1   22 ar  
     3    1   23 ar  
     4    2   22 ar  
     5    2   25 ar  
     6    2   31 1   
     7    3    9 ar  
     8    3   20 ar  
     9    3   21 1   
    10    4    8 ar  
    11    4    9 ar  
    12    4   32 1   
    13    5   56 1   
    14    6   56 1   
    15    7   56 1   
    16    8   10 ar  
    17    8   56 1   
    18   10   11 1   
    19   10   20 ar  
    20   11   12 1   
    21   11   33 1   
    22   12   13 1   
    23   12   16 1   
    24   12   34 1   
    25   13   14 1   
    26   13   35 1   
    27   13   36 1   
    28   14   15 1   
    29   14   37 1   
    30   14   38 1   
    31   15   16 1   
    32   15   39 1   
    33   15   40 1   
    34   16   17 1   
    35   16   41 1   
    36   17   18 1   
    37   17   19 1   
    38   18   42 1   
    39   18   43 1   
    40   18   44 1   
    41   19   45 1   
    42   19   46 1   
    43   19   47 1   
    44   21   48 1   
    45   22   49 1   
    46   23   24 ar  
    47   23   50 1   
    48   24   25 ar  
    49   24   51 1   
    50   25   26 1   
    51   26   27 2   
    52   26   28 2   
    53   26   29 1   
    54   29   30 1   
    55   29   52 1   
    56   30   53 1   
    57   30   54 1   
    58   30   55 1   
@<TRIPOS>SUBSTRUCTURE
     1 P1E         1 TEMP              0 ****  ****    0 ROOT
