@<TRIPOS>MOLECULE
P1E
   58    59     1     0     0
SMALL
bcc


@<TRIPOS>ATOM
      1 C4          0.1720    0.7200   -0.1500 ce        1 P1E      0.490500
      2 C6          2.3570    0.4850    2.1110 c1        1 P1E      0.150200
      3 C9          0.1480   -0.0250   -2.4860 ca        1 P1E      0.758500
      4 C13         1.7300   -1.4550   -3.3650 ca        1 P1E      0.549200
      5 F22         2.6930   -3.0380   -5.4660 f         1 P1E     -0.219300
      6 F16         1.7110   -1.6950   -6.8720 f         1 P1E     -0.219300
      7 F21         0.6310   -3.3940   -6.0820 f         1 P1E     -0.219300
      8 C12         1.0000   -1.5480   -4.5600 ca        1 P1E     -0.456900
      9 N14         1.3350   -0.7090   -2.3190 nb        1 P1E     -0.731000
     10 C11        -0.2280   -0.8080   -4.6550 ca        1 P1E      0.748200
     11 N8         -0.9390   -0.8330   -5.8570 nu        1 P1E     -0.849900
     12 C25        -2.2400   -0.2150   -5.9970 c3        1 P1E      0.201500
     13 C28        -3.3980   -0.9140   -5.2530 c3        1 P1E     -0.106400
     14 C31        -4.6570   -0.6950   -6.0740 c3        1 P1E     -0.084400
     15 C27        -4.2490   -0.1030   -7.4140 c3        1 P1E     -0.099400
     16 C24        -2.7130   -0.2010   -7.4930 c3        1 P1E      0.106500
     17 N26        -2.1070    0.8990   -8.3270 nx        1 P1E     -0.674400
     18 C30        -0.6200    0.8700   -8.3320 c3        1 P1E      0.083100
     19 C29        -2.6200    0.8270   -9.7250 c3        1 P1E      0.083100
     20 N10        -0.6550   -0.0350   -3.6010 nb        1 P1E     -0.767000
     21 N7         -0.3220    0.7850   -1.3930 nu        1 P1E     -0.333900
     22 C5          3.5400    0.3860    1.5970 c2        1 P1E     -0.225100
     23 C3         -0.3500    1.4850    0.9210 ce        1 P1E     -0.406600
     24 C2          0.1010    1.3860    2.2120 cf        1 P1E      0.206000
     25 C1          1.1920    0.6030    2.7120 cf        1 P1E     -0.395200
     26 S18         0.8850   -0.2550    4.2440 sy        1 P1E      1.493800
     27 O19        -0.3440    0.2780    4.6620 o         1 P1E     -0.624800
     28 O20         0.9590   -1.6070    3.8910 o         1 P1E     -0.624800
     29 N17         2.0950    0.1690    5.1690 n7        1 P1E     -0.927100
     30 C23         2.0850    1.2880    6.0670 c3        1 P1E      0.193100
     31 H6          3.8220   -0.4250    0.9030 ha        1 P1E      0.194500
     32 H13         2.6870   -2.0080   -3.2330 h4        1 P1E      0.086100
     33 HN8        -0.2330    1.2210   -7.3390 hx        1 P1E      0.109700
     34 H25        -0.8310   -1.6940   -6.3650 hn        1 P1E      0.446800
     35 H28        -2.1630    0.8490   -5.6220 h1        1 P1E      0.090700
     36 H28A       -3.5010   -0.4820   -4.2270 hc        1 P1E      0.080200
     37 H31        -3.1990   -2.0110   -5.1370 hc        1 P1E      0.080200
     38 H31A       -5.3620   -0.0030   -5.5450 hc        1 P1E      0.085700
     39 H27        -5.2000   -1.6640   -6.2210 hc        1 P1E      0.085700
     40 H27A       -4.6010    0.9590   -7.4850 hc        1 P1E      0.079200
     41 H24        -4.7130   -0.6720   -8.2610 hc        1 P1E      0.079200
     42 H30        -2.4300   -1.1720   -8.0000 hx        1 P1E      0.113700
     43 H30A       -0.2570   -0.1740   -8.5320 hx        1 P1E      0.109700
     44 H30B       -0.2400    1.5560   -9.1380 hx        1 P1E      0.109700
     45 H29        -2.2150    1.6960  -10.3120 hx        1 P1E      0.109700
     46 H29A       -3.7420    0.8730   -9.7200 hx        1 P1E      0.109700
     47 H29B       -2.2840   -0.1330  -10.1990 hx        1 P1E      0.109700
     48 HN7        -1.0960    1.3970   -1.5990 hn        1 P1E      0.336700
     49 H5          4.3520    1.0980    1.8390 ha        1 P1E      0.194500
     50 H3          1.0180    0.0160    0.0530 h4        1 P1E      0.083800
     51 H2         -1.2040    2.1660    0.7310 ha        1 P1E      0.178000
     52 HN17        1.0410    1.6920    6.1720 h1        1 P1E      0.064367
     53 H23         2.9320   -0.3700    5.2270 hn        1 P1E      0.472800
     54 H23A        2.4450    0.9700    7.0840 h1        1 P1E      0.064367
     55 H23B        2.7610    2.1020    5.6900 h1        1 P1E      0.064367
     56 C15         1.5080   -2.4020   -5.7110 c3        1 P1E      0.710200
     57 H261       -2.4090    1.7970   -7.9230 hn        1 P1E      0.447800
     58 H172       -0.4800    1.9330    2.9970 ha        1 P1E      0.205000
@<TRIPOS>BOND
     1    1   21 2   
     2    1   23 1   
     3    1   50 1   
     4    2   22 2   
     5    2   25 2   
     6    3    9 ar  
     7    3   20 ar  
     8    3   21 1   
     9    4    8 ar  
    10    4    9 ar  
    11    4   32 1   
    12    5   56 1   
    13    6   56 1   
    14    7   56 1   
    15    8   10 ar  
    16    8   56 1   
    17   10   11 1   
    18   10   20 ar  
    19   11   12 1   
    20   11   34 1   
    21   12   13 1   
    22   12   16 1   
    23   12   35 1   
    24   13   14 1   
    25   13   36 1   
    26   13   37 1   
    27   14   15 1   
    28   14   38 1   
    29   14   39 1   
    30   15   16 1   
    31   15   40 1   
    32   15   41 1   
    33   16   17 1   
    34   16   42 1   
    35   17   18 1   
    36   17   19 1   
    37   17   57 1   
    38   18   33 1   
    39   18   43 1   
    40   18   44 1   
    41   19   45 1   
    42   19   46 1   
    43   19   47 1   
    44   21   48 1   
    45   22   31 1   
    46   22   49 1   
    47   23   24 2   
    48   23   51 1   
    49   24   25 1   
    50   24   58 1   
    51   25   26 1   
    52   26   27 2   
    53   26   28 2   
    54   26   29 1   
    55   29   30 1   
    56   29   53 1   
    57   30   52 1   
    58   30   54 1   
    59   30   55 1   
@<TRIPOS>SUBSTRUCTURE
     1 P1E         1 TEMP              0 ****  ****    0 ROOT
