@<TRIPOS>MOLECULE
P1F
   44    45     1     0     0
SMALL
bcc


@<TRIPOS>ATOM
      1 O17         0.4860   -0.7960   -0.7340 oh        1 P1F     -0.503100
      2 C6          1.7340   -0.3210   -0.3980 ca        1 P1F      0.116100
      3 C1          2.2490   -0.4240    0.8990 ca        1 P1F     -0.203000
      4 C2          3.5240    0.0720    1.1880 ca        1 P1F     -0.040300
      5 C16         4.0630   -0.0330    2.5720 c3        1 P1F     -0.040100
      6 C17         4.4630   -1.4560    2.9130 c3        1 P1F     -0.076400
      7 C18         4.9770   -1.5500    4.3340 c3        1 P1F     -0.080400
      8 C19         5.3780   -2.9680    4.6780 c3        1 P1F     -0.079400
      9 C20         5.8920   -3.0660    6.0990 c3        1 P1F     -0.080400
     10 C21         6.2910   -4.4760    6.4470 c3        1 P1F     -0.093100
     11 C3          4.2800    0.6700    0.1740 ca        1 P1F     -0.151000
     12 C4          3.7740    0.7790   -1.1190 ca        1 P1F     -0.103000
     13 C5          2.5000    0.2850   -1.4160 ca        1 P1F      0.065100
     14 O7          2.0590    0.2800   -2.7380 os        1 P1F     -0.249200
     15 C8          1.2700    1.3840   -3.0870 ca        1 P1F      0.022100
     16 C9          1.8420    2.6540   -3.1850 ca        1 P1F     -0.107000
     17 C10         1.0750    3.7250   -3.6320 ca        1 P1F     -0.168000
     18 C11        -0.2620    3.5220   -3.9780 ca        1 P1F     -0.097000
     19 C12        -0.8400    2.2620   -3.8850 ca        1 P1F     -0.188000
     20 C13        -0.0860    1.1480   -3.4430 ca        1 P1F      0.152600
     21 NAB        -0.6270   -0.1370   -3.4430 nh        1 P1F     -0.803200
     22 H17         0.1000   -1.1970    0.0590 ho        1 P1F      0.422000
     23 H1          1.6520   -0.8990    1.6920 ha        1 P1F      0.136000
     24 H161        3.2840    0.3190    3.3000 hc        1 P1F      0.050700
     25 H162        4.9540    0.6410    2.6890 hc        1 P1F      0.050700
     26 H3          5.2850    1.0590    0.3980 ha        1 P1F      0.138000
     27 H171        5.2560   -1.8060    2.2010 hc        1 P1F      0.045200
     28 H172        3.5790   -2.1350    2.7840 hc        1 P1F      0.045200
     29 H181        5.8590   -0.8690    4.4610 hc        1 P1F      0.039700
     30 H182        4.1840   -1.2000    5.0460 hc        1 P1F      0.039700
     31 H191        6.1720   -3.3180    3.9670 hc        1 P1F      0.040700
     32 H192        4.4970   -3.6500    4.5500 hc        1 P1F      0.040700
     33 H201        6.7730   -2.3820    6.2250 hc        1 P1F      0.038200
     34 H202        5.0970   -2.7130    6.8090 hc        1 P1F      0.038200
     35 H211        6.6670   -4.5260    7.4970 hc        1 P1F      0.033367
     36 H212        7.1000   -4.8370    5.7660 hc        1 P1F      0.033367
     37 H213        5.4200   -5.1680    6.3510 hc        1 P1F      0.033367
     38 H4          4.3700    1.2410   -1.9200 ha        1 P1F      0.149000
     39 H9          2.8950    2.7930   -2.9000 ha        1 P1F      0.137000
     40 H10         1.5210    4.7260   -3.7120 ha        1 P1F      0.132000
     41 H11        -0.8690    4.3700   -4.3290 ha        1 P1F      0.130000
     42 H12        -1.8950    2.1270   -4.1650 ha        1 P1F      0.133000
     43 HAB1       -1.6050   -0.1660   -3.2540 hn        1 P1F      0.399300
     44 HAB2       -0.0980   -0.7940   -2.9060 hn        1 P1F      0.399300
@<TRIPOS>BOND
     1    1    2 1   
     2    1   22 1   
     3    2    3 ar  
     4    2   13 ar  
     5    3    4 ar  
     6    3   23 1   
     7    4    5 1   
     8    4   11 ar  
     9    5    6 1   
    10    5   24 1   
    11    5   25 1   
    12    6    7 1   
    13    6   27 1   
    14    6   28 1   
    15    7    8 1   
    16    7   29 1   
    17    7   30 1   
    18    8    9 1   
    19    8   31 1   
    20    8   32 1   
    21    9   10 1   
    22    9   33 1   
    23    9   34 1   
    24   10   35 1   
    25   10   36 1   
    26   10   37 1   
    27   11   12 ar  
    28   11   26 1   
    29   12   13 ar  
    30   12   38 1   
    31   13   14 1   
    32   14   15 1   
    33   15   16 ar  
    34   15   20 ar  
    35   16   17 ar  
    36   16   39 1   
    37   17   18 ar  
    38   17   40 1   
    39   18   19 ar  
    40   18   41 1   
    41   19   20 ar  
    42   19   42 1   
    43   20   21 1   
    44   21   43 1   
    45   21   44 1   
@<TRIPOS>SUBSTRUCTURE
     1 P1F         1 TEMP              0 ****  ****    0 ROOT
