@<TRIPOS>MOLECULE
P1F
   44    41     1     0     0
SMALL
bcc


@<TRIPOS>ATOM
      1 O17        -3.2690    0.4610   -0.8190 oh        1 P1F     -0.257000
      2 C6         -1.8640    0.4020   -0.8120 c2        1 P1F      0.071000
      3 C1         -1.1790    0.3430    0.3910 c1        1 P1F     -0.201000
      4 C2          0.2050    0.2820    0.3980 c1        1 P1F     -0.033000
      5 C16         0.9540    0.2710    1.7130 c3        1 P1F     -0.126000
      6 C17         1.3970   -1.1400    2.0290 c3        1 P1F     -0.155000
      7 C18         2.1560   -1.1480    3.3350 c3        1 P1F     -0.159000
      8 C19         2.5250   -2.5700    3.6940 c3        1 P1F     -0.158000
      9 C20         3.3780   -2.5690    4.9420 c3        1 P1F     -0.159000
     10 C21         3.8930   -3.9680    5.2020 c3        1 P1F     -0.211000
     11 C3          0.9040    0.2790   -0.7980 c1        1 P1F     -0.152000
     12 C4          0.2190    0.3380   -2.0020 c1        1 P1F     -0.102000
     13 C5         -1.1660    0.3990   -2.0090 c2        1 P1F      0.019000
     14 O7         -1.8630    0.3080   -3.2270 os        1 P1F     -0.159000
     15 C8         -2.1910    1.6010   -3.6780 c2        1 P1F     -0.023000
     16 C9         -1.3140    2.6530   -3.4600 c2        1 P1F     -0.107000
     17 C10        -1.5750    3.8990   -4.0090 c1        1 P1F     -0.168000
     18 C11        -2.7120    4.0940   -4.7760 c1        1 P1F     -0.142500
     19 C12        -3.5900    3.0430   -4.9940 c1        1 P1F     -0.142500
     20 C13        -3.3300    1.7970   -4.4450 c1        1 P1F      0.071000
     21 NAB        -4.1940    0.7070   -4.7220 n3        1 P1F     -0.312000
     22 H17        -3.5960   -0.1950   -0.3130 ho        1 P1F      0.221000
     23 H1         -1.6720    0.3530    1.2360 ha        1 P1F      0.136000
     24 H161        0.3680    0.5960    2.4250 hc        1 P1F      0.089000
     25 H162        1.7390    0.8510    1.6460 hc        1 P1F      0.089000
     26 H3          1.8800    0.2350   -0.7930 ha        1 P1F      0.139000
     27 H171        0.6120   -1.7180    2.1050 hc        1 P1F      0.085500
     28 H172        1.9770   -1.4690    1.3120 hc        1 P1F      0.085500
     29 H181        2.9700   -0.6140    3.2420 hc        1 P1F      0.079000
     30 H182        1.5960   -0.7680    4.0400 hc        1 P1F      0.079000
     31 H191        1.7100   -3.0870    3.8570 hc        1 P1F      0.080000
     32 H192        3.0250   -2.9730    2.9580 hc        1 P1F      0.080000
     33 H201        4.1330   -1.9620    4.8190 hc        1 P1F      0.078000
     34 H202        2.8410   -2.2720    5.7050 hc        1 P1F      0.078000
     35 H211        3.1360   -4.5820    5.3000 hc        1 P1F      0.072667
     36 H212        4.4520   -4.2560    4.4490 hc        1 P1F      0.072667
     37 H213        4.4260   -3.9720    6.0240 hc        1 P1F      0.072667
     38 H4          0.7110    0.3360   -2.8440 ha        1 P1F      0.149000
     39 H9         -0.5110    2.5150   -2.9200 ha        1 P1F      0.137000
     40 H10        -0.9570    4.6380   -3.8560 ha        1 P1F      0.132000
     41 H11        -2.8960    4.9710   -5.1620 ha        1 P1F      0.131500
     42 H12        -4.3930    3.1810   -5.5340 ha        1 P1F      0.131500
     43 HAB1       -5.0330    0.8600   -5.0490 hn        1 P1F      0.194500
     44 HAB2       -3.9010   -0.1520   -4.5990 hn        1 P1F      0.194500
@<TRIPOS>BOND
     1    1    2 1   
     2    1   22 1   
     3    2    3 1   
     4    2   13 1   
     5    3   23 1   
     6    4    5 1   
     7    4   11 1   
     8    5    6 1   
     9    5   24 1   
    10    5   25 1   
    11    6    7 1   
    12    6   27 1   
    13    6   28 1   
    14    7    8 1   
    15    7   29 1   
    16    7   30 1   
    17    8    9 1   
    18    8   31 1   
    19    8   32 1   
    20    9   10 1   
    21    9   33 1   
    22    9   34 1   
    23   10   35 1   
    24   10   36 1   
    25   10   37 1   
    26   11   26 1   
    27   12   13 1   
    28   12   38 1   
    29   13   14 1   
    30   14   15 1   
    31   15   16 1   
    32   15   20 1   
    33   16   17 1   
    34   16   39 1   
    35   17   40 1   
    36   18   19 1   
    37   18   41 1   
    38   19   42 1   
    39   20   21 1   
    40   21   43 1   
    41   21   44 1   
@<TRIPOS>SUBSTRUCTURE
     1 P1F         1 TEMP              0 ****  ****    0 ROOT
