@<TRIPOS>MOLECULE
P1F
   44    45     1     0     0
SMALL
bcc


@<TRIPOS>ATOM
      1 O17         0.4730   -0.7780   -0.7240 oh        1 P1F     -0.503100
      2 C6          1.7260   -0.3140   -0.3920 ca        1 P1F      0.116100
      3 C1          2.2430   -0.4180    0.9050 ca        1 P1F     -0.203000
      4 C2          3.5230    0.0670    1.1890 ca        1 P1F     -0.040300
      5 C16         4.0640   -0.0390    2.5720 c3        1 P1F     -0.040100
      6 C17         4.4570   -1.4640    2.9150 c3        1 P1F     -0.076400
      7 C18         4.9730   -1.5590    4.3340 c3        1 P1F     -0.080400
      8 C19         5.3680   -2.9790    4.6790 c3        1 P1F     -0.079400
      9 C20         5.8850   -3.0780    6.0990 c3        1 P1F     -0.080400
     10 C21         6.2780   -4.4900    6.4470 c3        1 P1F     -0.093100
     11 C3          4.2830    0.6540    0.1720 ca        1 P1F     -0.151000
     12 C4          3.7750    0.7630   -1.1210 ca        1 P1F     -0.103000
     13 C5          2.4960    0.2810   -1.4130 ca        1 P1F      0.065100
     14 O7          2.0520    0.2760   -2.7340 os        1 P1F     -0.249200
     15 C8          1.2740    1.3870   -3.0860 ca        1 P1F      0.022100
     16 C9          1.8590    2.6500   -3.1900 ca        1 P1F     -0.107000
     17 C10         1.1030    3.7280   -3.6400 ca        1 P1F     -0.168000
     18 C11        -0.2360    3.5380   -3.9820 ca        1 P1F     -0.097000
     19 C12        -0.8280    2.2850   -3.8830 ca        1 P1F     -0.188000
     20 C13        -0.0860    1.1650   -3.4380 ca        1 P1F      0.152600
     21 NAB        -0.6400   -0.1150   -3.4320 nv        1 P1F     -0.803200
     22 H17         0.0840   -1.1730    0.0710 ho        1 P1F      0.422000
     23 H1          1.6430   -0.8830    1.7000 ha        1 P1F      0.136000
     24 H161        3.2880    0.3190    3.3020 hc        1 P1F      0.050700
     25 H162        4.9590    0.6300    2.6870 hc        1 P1F      0.050700
     26 H3          5.2920    1.0330    0.3920 ha        1 P1F      0.138000
     27 H171        3.5680   -2.1380    2.7890 hc        1 P1F      0.045200
     28 H172        5.2450   -1.8190    2.2010 hc        1 P1F      0.045200
     29 H181        5.8590   -0.8820    4.4580 hc        1 P1F      0.039700
     30 H182        4.1840   -1.2040    5.0480 hc        1 P1F      0.039700
     31 H191        6.1580   -3.3340    3.9660 hc        1 P1F      0.040700
     32 H192        4.4820   -3.6570    4.5540 hc        1 P1F      0.040700
     33 H201        5.0940   -2.7200    6.8100 hc        1 P1F      0.038200
     34 H202        6.7690   -2.3980    6.2220 hc        1 P1F      0.038200
     35 H211        6.6560   -4.5400    7.4970 hc        1 P1F      0.033367
     36 H212        7.0830   -4.8550    5.7640 hc        1 P1F      0.033367
     37 H213        5.4030   -5.1770    6.3540 hc        1 P1F      0.033367
     38 H4          4.3750    1.2170   -1.9240 ha        1 P1F      0.149000
     39 H9          2.9150    2.7790   -2.9080 ha        1 P1F      0.137000
     40 H10         1.5600    4.7240   -3.7240 ha        1 P1F      0.132000
     41 H11        -0.8350    4.3910   -4.3340 ha        1 P1F      0.130000
     42 H12        -1.8860    2.1600   -4.1600 ha        1 P1F      0.133000
     43 HAB1       -1.6170   -0.1320   -3.2400 hn        1 P1F      0.399300
     44 HAB2       -0.1170   -0.7760   -2.8940 hn        1 P1F      0.399300
@<TRIPOS>BOND
     1    1    2 1   
     2    1   22 1   
     3    2    3 ar  
     4    2   13 ar  
     5    3    4 ar  
     6    3   23 1   
     7    4    5 1   
     8    4   11 ar  
     9    5    6 1   
    10    5   24 1   
    11    5   25 1   
    12    6    7 1   
    13    6   27 1   
    14    6   28 1   
    15    7    8 1   
    16    7   29 1   
    17    7   30 1   
    18    8    9 1   
    19    8   31 1   
    20    8   32 1   
    21    9   10 1   
    22    9   33 1   
    23    9   34 1   
    24   10   35 1   
    25   10   36 1   
    26   10   37 1   
    27   11   12 ar  
    28   11   26 1   
    29   12   13 ar  
    30   12   38 1   
    31   13   14 1   
    32   14   15 1   
    33   15   16 ar  
    34   15   20 ar  
    35   16   17 ar  
    36   16   39 1   
    37   17   18 ar  
    38   17   40 1   
    39   18   19 ar  
    40   18   41 1   
    41   19   20 ar  
    42   19   42 1   
    43   20   21 1   
    44   21   43 1   
    45   21   44 1   
@<TRIPOS>SUBSTRUCTURE
     1 P1F         1 TEMP              0 ****  ****    0 ROOT
