@<TRIPOS>MOLECULE
P1F
   44    45     1     0     0
SMALL
bcc


@<TRIPOS>ATOM
      1 O17        -0.6960   -0.0990    3.0140 oh        1 P1F     -0.496100
      2 C6         -0.3640    0.1140    1.6980 ca        1 P1F      0.121100
      3 C1          0.9470    0.5210    1.4210 ca        1 P1F     -0.148000
      4 C2          1.3380    0.7420    0.0970 ca        1 P1F     -0.056300
      5 C16         2.7290    1.1870   -0.1950 c3        1 P1F     -0.038100
      6 C17         3.7290    0.0600   -0.0170 c3        1 P1F     -0.076400
      7 C18         5.1400    0.5380   -0.2850 c3        1 P1F     -0.079400
      8 C19         6.1400   -0.5840   -0.1110 c3        1 P1F     -0.079400
      9 C20         7.5530   -0.1090   -0.3770 c3        1 P1F     -0.080400
     10 C21         8.5530   -1.2230   -0.2050 c3        1 P1F     -0.093100
     11 C3          0.4220    0.5520   -0.9460 ca        1 P1F     -0.146000
     12 C4         -0.8820    0.1410   -0.6810 ca        1 P1F     -0.118000
     13 C5         -1.2750   -0.0810    0.6400 ca        1 P1F      0.010100
     14 O7         -2.5310   -0.5770    0.9940 os        1 P1F     -0.278200
     15 C8         -3.6090    0.0410    0.3510 ca        1 P1F      0.016100
     16 C9         -4.0400    1.2990    0.7770 ca        1 P1F     -0.098000
     17 C10        -5.1990    1.8490    0.2380 ca        1 P1F     -0.164000
     18 C11        -5.9200    1.1390   -0.7230 ca        1 P1F     -0.093000
     19 C12        -5.4950   -0.1090   -1.1590 ca        1 P1F     -0.185000
     20 C13        -4.3110   -0.6910   -0.6450 ca        1 P1F      0.142600
     21 NAB        -3.8180   -1.8930   -1.1520 nh        1 P1F     -0.815200
     22 H17        -1.6360   -0.3370    3.0480 ho        1 P1F      0.435000
     23 H1          1.6530    0.6660    2.2510 ha        1 P1F      0.152000
     24 H161        2.7940    1.5790   -1.2460 hc        1 P1F      0.049200
     25 H162        2.9980    2.0350    0.4920 hc        1 P1F      0.049200
     26 H3          0.7330    0.7280   -1.9860 ha        1 P1F      0.137000
     27 H171        3.6560   -0.3420    1.0280 hc        1 P1F      0.045700
     28 H172        3.4760   -0.7810   -0.7150 hc        1 P1F      0.045700
     29 H181        5.2080    0.9450   -1.3280 hc        1 P1F      0.039200
     30 H182        5.3920    1.3790    0.4140 hc        1 P1F      0.039200
     31 H191        6.0710   -0.9910    0.9320 hc        1 P1F      0.040700
     32 H192        5.8890   -1.4240   -0.8110 hc        1 P1F      0.040700
     33 H201        7.6190    0.3000   -1.4200 hc        1 P1F      0.038200
     34 H202        7.8020    0.7320    0.3230 hc        1 P1F      0.038200
     35 H211        9.5860   -0.8520   -0.4060 hc        1 P1F      0.032700
     36 H212        8.5180   -1.6270    0.8360 hc        1 P1F      0.032700
     37 H213        8.3350   -2.0600   -0.9120 hc        1 P1F      0.032700
     38 H4         -1.6060   -0.0080   -1.4960 ha        1 P1F      0.155000
     39 H9         -3.4580    1.8400    1.5380 ha        1 P1F      0.144000
     40 H10        -5.5440    2.8380    0.5700 ha        1 P1F      0.137000
     41 H11        -6.8400    1.5730   -1.1450 ha        1 P1F      0.133000
     42 H12        -6.0800   -0.6470   -1.9210 ha        1 P1F      0.136000
     43 HAB1       -3.1350   -2.3300   -0.5710 hn        1 P1F      0.399300
     44 HAB2       -4.5170   -2.5170   -1.4880 hn        1 P1F      0.399300
@<TRIPOS>BOND
     1    1    2 1   
     2    1   22 1   
     3    2    3 ar  
     4    2   13 ar  
     5    3    4 ar  
     6    3   23 1   
     7    4    5 1   
     8    4   11 ar  
     9    5    6 1   
    10    5   24 1   
    11    5   25 1   
    12    6    7 1   
    13    6   27 1   
    14    6   28 1   
    15    7    8 1   
    16    7   29 1   
    17    7   30 1   
    18    8    9 1   
    19    8   31 1   
    20    8   32 1   
    21    9   10 1   
    22    9   33 1   
    23    9   34 1   
    24   10   35 1   
    25   10   36 1   
    26   10   37 1   
    27   11   12 ar  
    28   11   26 1   
    29   12   13 ar  
    30   12   38 1   
    31   13   14 1   
    32   14   15 1   
    33   15   16 ar  
    34   15   20 ar  
    35   16   17 ar  
    36   16   39 1   
    37   17   18 ar  
    38   17   40 1   
    39   18   19 ar  
    40   18   41 1   
    41   19   20 ar  
    42   19   42 1   
    43   20   21 1   
    44   21   43 1   
    45   21   44 1   
@<TRIPOS>SUBSTRUCTURE
     1 P1F         1 TEMP              0 ****  ****    0 ROOT
