@<TRIPOS>MOLECULE
P1F
   45    46     1     0     0
SMALL
bcc


@<TRIPOS>ATOM
      1 O17         0.5330   -0.7640   -0.7980 oh        1 P1F     -0.562100
      2 C6          1.7700   -0.2760   -0.4200 ca        1 P1F      0.117100
      3 C1          2.2630   -0.4050    0.8830 ca        1 P1F     -0.187000
      4 C2          3.5230    0.1120    1.2050 ca        1 P1F     -0.005300
      5 C16         4.0430   -0.0210    2.5940 c3        1 P1F     -0.054100
      6 C17         4.4530   -1.4490    2.9070 c3        1 P1F     -0.074400
      7 C18         4.9450   -1.5680    4.3340 c3        1 P1F     -0.081400
      8 C19         5.3580   -2.9890    4.6510 c3        1 P1F     -0.079400
      9 C20         5.8490   -3.1110    6.0780 c3        1 P1F     -0.080400
     10 C21         6.2610   -4.5250    6.4000 c3        1 P1F     -0.094100
     11 C3          4.2850    0.7540    0.2190 ca        1 P1F     -0.137000
     12 C4          3.8030    0.8880   -1.0800 ca        1 P1F     -0.083000
     13 C5          2.5430    0.3730   -1.4010 ca        1 P1F      0.020100
     14 O7          2.1070    0.3750   -2.7300 os        1 P1F     -0.267200
     15 C8          1.3190    1.4640   -3.0900 ca        1 P1F      0.147100
     16 C9          1.8120    2.7720   -3.1330 ca        1 P1F     -0.128000
     17 C10         1.0060    3.7920   -3.6310 ca        1 P1F     -0.055000
     18 C11        -0.2890    3.5170   -4.0830 ca        1 P1F     -0.115000
     19 C12        -0.8000    2.2240   -4.0370 ca        1 P1F     -0.090000
     20 C13         0.0030    1.1870   -3.5300 ca        1 P1F     -0.085400
     21 NAB        -0.5040   -0.1780   -3.4430 n4        1 P1F     -0.694000
     22 H17         0.1620   -1.2440   -0.0410 ho        1 P1F      0.449000
     23 H1          1.6650   -0.9160    1.6530 ha        1 P1F      0.155000
     24 H161        4.9250    0.6590    2.7410 hc        1 P1F      0.063700
     25 H162        3.2490    0.3060    3.3190 hc        1 P1F      0.063700
     26 H3          5.2800    1.1540    0.4730 ha        1 P1F      0.160000
     27 H171        3.5790   -2.1340    2.7490 hc        1 P1F      0.044700
     28 H172        5.2630   -1.7730    2.2010 hc        1 P1F      0.044700
     29 H181        4.1360   -1.2440    5.0400 hc        1 P1F      0.044700
     30 H182        5.8170   -0.8790    4.4900 hc        1 P1F      0.044700
     31 H191        4.4870   -3.6790    4.4940 hc        1 P1F      0.040700
     32 H192        6.1680   -3.3130    3.9460 hc        1 P1F      0.040700
     33 H201        5.0390   -2.7860    6.7820 hc        1 P1F      0.041200
     34 H202        6.7200   -2.4200    6.2340 hc        1 P1F      0.041200
     35 H211        6.6210   -4.5920    7.4550 hc        1 P1F      0.036700
     36 H212        5.4010   -5.2260    6.2750 hc        1 P1F      0.036700
     37 H213        7.0860   -4.8590    5.7250 hc        1 P1F      0.036700
     38 H4          4.4070    1.3780   -1.8590 ha        1 P1F      0.158000
     39 H9          2.8350    2.9740   -2.7740 ha        1 P1F      0.177000
     40 H10         1.3930    4.8240   -3.6720 ha        1 P1F      0.172000
     41 H11        -0.9160    4.3330   -4.4810 ha        1 P1F      0.173000
     42 H12        -1.8230    2.0270   -4.3960 ha        1 P1F      0.157000
     43 HAB1        0.1720   -0.7500   -2.9030 hn        1 P1F      0.469467
     44 HAB2       -0.6110   -0.5720   -4.3820 hn        1 P1F      0.469467
     45 HAB3       -1.4060   -0.1810   -2.9590 hn        1 P1F      0.469467
@<TRIPOS>BOND
     1    1    2 1   
     2    1   22 1   
     3    2    3 ar  
     4    2   13 ar  
     5    3    4 ar  
     6    3   23 1   
     7    4    5 1   
     8    4   11 ar  
     9    5    6 1   
    10    5   24 1   
    11    5   25 1   
    12    6    7 1   
    13    6   27 1   
    14    6   28 1   
    15    7    8 1   
    16    7   29 1   
    17    7   30 1   
    18    8    9 1   
    19    8   31 1   
    20    8   32 1   
    21    9   10 1   
    22    9   33 1   
    23    9   34 1   
    24   10   35 1   
    25   10   36 1   
    26   10   37 1   
    27   11   12 ar  
    28   11   26 1   
    29   12   13 ar  
    30   12   38 1   
    31   13   14 1   
    32   14   15 1   
    33   15   16 ar  
    34   15   20 ar  
    35   16   17 ar  
    36   16   39 1   
    37   17   18 ar  
    38   17   40 1   
    39   18   19 ar  
    40   18   41 1   
    41   19   20 ar  
    42   19   42 1   
    43   20   21 1   
    44   21   43 1   
    45   21   44 1   
    46   21   45 1   
@<TRIPOS>SUBSTRUCTURE
     1 P1F         1 TEMP              0 ****  ****    0 ROOT
