@<TRIPOS>MOLECULE
P1G
   40    43     1     0     0
SMALL
bcc


@<TRIPOS>ATOM
      1 O3         -1.0630    0.6240   -0.5240 o         1 P1G     -0.869500
      2 P           0.0560    0.5330    0.4430 p5        1 P1G      1.345600
      3 O4         -0.0050    1.1400    1.7970 o         1 P1G     -0.869500
      4 O2          0.2880   -1.0770    0.6310 oh        1 P1G     -0.795400
      5 C1P         1.5870    1.0440   -0.2070 c3        1 P1G     -0.326600
      6 C1          2.0710    1.0760   -1.6380 c3        1 P1G      0.399900
      7 O3'         1.1850    1.6580   -2.6050 os        1 P1G     -0.434600
      8 O2'         2.4490   -0.2120   -2.1280 os        1 P1G     -0.418600
      9 C2'         2.0710   -0.3460   -3.5080 c3        1 P1G      0.102800
     10 C3'         1.0130    0.7790   -3.7090 c3        1 P1G      0.091100
     11 C4'        -0.3360    0.0450   -3.6940 c3        1 P1G      0.031100
     12 C5'        -1.1130    0.2780   -4.9850 c3        1 P1G      0.127400
     13 O5'        -2.2300   -0.5830   -5.1070 oh        1 P1G     -0.627800
     14 O4'        -0.0550   -1.3710   -3.5610 os        1 P1G     -0.424400
     15 C1'         1.3110   -1.6200   -3.7520 c2        1 P1G      0.047600
     16 N9          1.6020   -2.4560   -4.8210 na        1 P1G     -0.019900
     17 C8          0.6850   -3.3600   -5.4040 cc        1 P1G      0.276400
     18 N7          1.2520   -4.2430   -6.2780 nd        1 P1G     -0.627000
     19 C5          2.5850   -3.9210   -6.2890 cd        1 P1G      0.173800
     20 C4          2.8390   -2.7850   -5.3850 cc        1 P1G     -0.091200
     21 N3          4.0980   -2.2770   -5.1360 nc        1 P1G     -0.557100
     22 C2          5.1010   -2.8530   -5.8010 cd        1 P1G      0.490800
     23 N2          6.4620   -2.3710   -5.6420 nh        1 P1G     -0.854800
     24 N1          4.9550   -3.9390   -6.7030 n         1 P1G     -0.492400
     25 C6          3.7010   -4.5110   -6.9920 c         1 P1G      0.647000
     26 O6          3.6850   -5.4550   -7.8140 o         1 P1G     -0.706500
     27 H1P1        2.3410    0.4130    0.3350 hc        1 P1G      0.065700
     28 H1P2        1.7050    2.0940    0.1690 hc        1 P1G      0.065700
     29 H1          3.0050    1.7250   -1.6810 h2        1 P1G     -0.011300
     30 H2'         2.9950   -0.2110   -4.1200 h1        1 P1G      0.061700
     31 H3'         1.1640    1.3930   -4.6290 h1        1 P1G      0.049700
     32 H4'        -0.9490    0.3100   -2.7820 h1        1 P1G      0.165700
     33 H5'1       -0.4510    0.1250   -5.8810 h1        1 P1G      0.023700
     34 H5'2       -1.5320    1.3190   -5.0030 h1        1 P1G      0.023700
     35 H5'        -1.9920   -1.4170   -4.6790 ho        1 P1G      0.421000
     36 H1'         0.0180   -1.5730   -0.1340 ho        1 P1G      0.435000
     37 H8         -0.3660   -3.3520   -5.1070 h5        1 P1G      0.054100
     38 HN21        6.4570   -1.3690   -5.5970 hn        1 P1G      0.358300
     39 HN22        6.8220   -2.7250   -4.7740 hn        1 P1G      0.358300
     40 HN1         5.7520   -4.2800   -7.1840 hn        1 P1G      0.310500
@<TRIPOS>BOND
     1    1    2 1   
     2    2    3 1   
     3    2    4 1   
     4    2    5 1   
     5    4   36 1   
     6    5    6 1   
     7    5   27 1   
     8    5   28 1   
     9    6    7 1   
    10    6    8 1   
    11    6   29 1   
    12    7   10 1   
    13    8    9 1   
    14    9   10 1   
    15    9   15 1   
    16    9   30 1   
    17   10   11 1   
    18   10   31 1   
    19   11   12 1   
    20   11   14 1   
    21   11   32 1   
    22   12   13 1   
    23   12   33 1   
    24   12   34 1   
    25   13   35 1   
    26   14   15 1   
    27   15   16 2   
    28   16   17 1   
    29   16   20 1   
    30   17   18 2   
    31   17   37 1   
    32   18   19 1   
    33   19   20 2   
    34   19   25 1   
    35   20   21 1   
    36   21   22 2   
    37   22   23 1   
    38   22   24 1   
    39   23   38 1   
    40   23   39 1   
    41   24   25 1   
    42   24   40 1   
    43   25   26 2   
@<TRIPOS>SUBSTRUCTURE
     1 P1G         1 TEMP              0 ****  ****    0 ROOT
