@<TRIPOS>MOLECULE
P1G
   40    39     1     0     0
SMALL
bcc


@<TRIPOS>ATOM
      1 O3          2.0570    4.7730    2.4020 o         1 P1G     -0.938833
      2 P           1.1240    4.1210    3.3500 p5        1 P1G      1.205700
      3 O4          1.7340    4.0590    4.6710 o         1 P1G     -0.938833
      4 O2         -0.1500    4.9210    3.4240 o         1 P1G     -0.938833
      5 C1P         0.7410    2.3480    2.7460 c3        1 P1G     -0.304600
      6 C1          0.2000    2.4000    1.3590 c3        1 P1G      0.366900
      7 O3'        -1.3540    2.0150    1.3650 os        1 P1G     -0.444600
      8 O2'         0.7620    1.5610    0.6680 os        1 P1G     -0.443600
      9 C2'        -0.2880    1.0860   -0.2810 c3        1 P1G      0.104100
     10 C3'        -1.6030    1.6230    0.2550 c3        1 P1G      0.107100
     11 C4'        -2.5940    0.3740    0.2950 c3        1 P1G      0.079100
     12 C5'        -3.9360    0.7290   -0.3640 c3        1 P1G      0.118400
     13 O5'        -4.8600   -0.3430   -0.1720 oh        1 P1G     -0.615800
     14 O4'        -2.0030   -0.5300   -0.3670 os        1 P1G     -0.436600
     15 C1'        -0.4040   -0.2100   -0.2400 c3        1 P1G      0.220800
     16 N9          0.3220   -0.8120   -1.3370 n3        1 P1G     -0.062400
     17 C8          0.1760   -0.3580   -2.6200 c1        1 P1G      0.140400
     18 N7          0.9140   -1.1200   -3.4060 ne        1 P1G     -0.363400
     19 C5          1.5410   -2.0750   -2.6170 cg        1 P1G     -0.189000
     20 C4          1.1710   -1.8760   -1.3610 c1        1 P1G      0.326500
     21 N3          1.6150   -2.7120   -0.3730 n1        1 P1G     -0.518800
     22 C2          2.4000   -3.7010   -0.6650 c1        1 P1G      0.403400
     23 N2          2.6920   -4.7420    0.3210 n3        1 P1G     -0.409400
     24 N1          2.7750   -3.9050   -1.9310 n2        1 P1G     -0.806800
     25 C6          2.3330   -3.0730   -2.9140 c1        1 P1G      0.650900
     26 O6          2.6850   -3.2610   -4.1160 o         1 P1G     -0.617900
     27 H1P1        1.5580    1.8190    2.7550 hc        1 P1G      0.063200
     28 H1P2        0.1190    1.9560    3.3070 hc        1 P1G      0.063200
     29 H1          0.3420    3.3850    0.9400 h2        1 P1G      0.157700
     30 H2'        -0.0930    1.4510   -1.3330 h1        1 P1G      0.056700
     31 H3'        -1.9800    2.4000   -0.3530 h1        1 P1G      0.049700
     32 H4'        -2.7310    0.0910    1.1860 h1        1 P1G      0.108700
     33 H5'1       -4.2840    1.5290    0.0370 h1        1 P1G      0.039200
     34 H5'2       -3.8050    0.8700   -1.2870 h1        1 P1G      0.039200
     35 H5'        -5.7430   -0.0370   -0.3470 ho        1 P1G      0.413000
     36 H1'        -0.0560   -0.5570    0.6330 h2        1 P1G      0.138700
     37 H8         -0.2890    0.4620   -2.8880 DU        1 P1G      0.206000
     38 HN21        3.2950   -5.4340    0.1070 hn        1 P1G      0.242700
     39 HN22        2.3570   -4.6420    1.2850 hn        1 P1G      0.242700
     40 HN1         3.2590   -4.5830   -2.1310 hn        1 P1G      0.484400
@<TRIPOS>BOND
     1    1    2 1   
     2    2    3 1   
     3    2    4 1   
     4    2    5 1   
     5    5    6 1   
     6    5   27 1   
     7    5   28 1   
     8    6    7 1   
     9    6    8 1   
    10    6   29 1   
    11    7   10 1   
    12    8    9 1   
    13    9   10 1   
    14    9   15 1   
    15    9   30 1   
    16   10   11 1   
    17   10   31 1   
    18   11   12 1   
    19   11   14 1   
    20   11   32 1   
    21   12   13 1   
    22   12   33 1   
    23   12   34 1   
    24   13   35 1   
    25   14   15 1   
    26   15   16 1   
    27   15   36 1   
    28   16   17 2   
    29   16   20 1   
    30   17   18 2   
    31   18   19 1   
    32   19   25 3   
    33   20   21 3   
    34   22   23 2   
    35   22   24 2   
    36   23   38 1   
    37   23   39 1   
    38   24   40 1   
    39   25   26 1   
@<TRIPOS>SUBSTRUCTURE
     1 P1G         1 TEMP              0 ****  ****    0 ROOT
