@<TRIPOS>MOLECULE
P1G
   40    43     1     0     0
SMALL
bcc


@<TRIPOS>ATOM
      1 O3          4.4790   -0.7040   -0.7530 o         1 P1G     -0.869500
      2 P           4.5820    0.7740   -0.8050 p5        1 P1G      1.345600
      3 O4          5.8830    1.4840   -0.8820 o         1 P1G     -0.869500
      4 O2          3.7120    1.1850   -2.1310 oh        1 P1G     -0.795400
      5 C1P         3.7060    1.5820    0.4640 c3        1 P1G     -0.326600
      6 C1          2.5090    1.1200    1.2620 c3        1 P1G      0.399900
      7 O3'         2.5720   -0.2050    1.8100 os        1 P1G     -0.434600
      8 O2'         1.2820    1.2230    0.5380 os        1 P1G     -0.418600
      9 C2'         0.4270    0.1130    0.8530 c3        1 P1G      0.102800
     10 C3'         1.4000   -0.9350    1.4700 c3        1 P1G      0.091100
     11 C4'         1.6280   -1.9570    0.3470 c3        1 P1G      0.031100
     12 C5'         1.2220   -3.3620    0.7790 c3        1 P1G      0.127400
     13 O5'         1.1770   -4.2700   -0.3060 oh        1 P1G     -0.627800
     14 O4'         0.8050   -1.5530   -0.7770 os        1 P1G     -0.424400
     15 C1'        -0.0960   -0.5530   -0.3900 c2        1 P1G      0.047600
     16 N9         -1.4330   -0.8930   -0.5340 na        1 P1G     -0.019900
     17 C8         -1.9150   -1.9110   -1.3890 cc        1 P1G      0.276400
     18 N7         -3.2710   -1.9110   -1.5480 nd        1 P1G     -0.627000
     19 C5         -3.7160   -0.8710   -0.7740 cd        1 P1G      0.173800
     20 C4         -2.5780   -0.2110   -0.1080 cc        1 P1G     -0.091200
     21 N3         -2.7070    0.9110    0.6860 nc        1 P1G     -0.557100
     22 C2         -3.9500    1.3620    0.8600 cd        1 P1G      0.490800
     23 N2         -4.2030    2.5150    1.7080 nh        1 P1G     -0.854800
     24 N1         -5.1090    0.7870    0.2750 n         1 P1G     -0.492400
     25 C6         -5.0450   -0.3500   -0.5530 c         1 P1G      0.647000
     26 O6         -6.1300   -0.7830   -1.0040 o         1 P1G     -0.706500
     27 H1P1        3.3830    2.5530    0.0020 hc        1 P1G      0.065700
     28 H1P2        4.4940    1.8240    1.2240 hc        1 P1G      0.065700
     29 H1          2.4070    1.7980    2.1710 h2        1 P1G     -0.011300
     30 H2'        -0.3490    0.4810    1.5650 h1        1 P1G      0.061700
     31 H3'         1.0340   -1.4030    2.4160 h1        1 P1G      0.049700
     32 H4'         2.6900   -1.9280   -0.0410 h1        1 P1G      0.165700
     33 H5'1        1.9800   -3.7830    1.4920 h1        1 P1G      0.023700
     34 H5'2        0.2110   -3.3510    1.2700 h1        1 P1G      0.023700
     35 H5'         0.9020   -3.7670   -1.0860 ho        1 P1G      0.421000
     36 H1'         3.0330    0.5500   -2.3280 ho        1 P1G      0.435000
     37 H8         -1.2180   -2.5780   -1.9010 h5        1 P1G      0.054100
     38 HN21       -3.6140    2.4660    2.5190 hn        1 P1G      0.358300
     39 HN22       -3.9640    3.3430    1.1920 hn        1 P1G      0.358300
     40 HN1        -5.9990    1.1660    0.4910 hn        1 P1G      0.310500
@<TRIPOS>BOND
     1    1    2 1   
     2    2    3 1   
     3    2    4 1   
     4    2    5 1   
     5    4   36 1   
     6    5    6 1   
     7    5   27 1   
     8    5   28 1   
     9    6    7 1   
    10    6    8 1   
    11    6   29 1   
    12    7   10 1   
    13    8    9 1   
    14    9   10 1   
    15    9   15 1   
    16    9   30 1   
    17   10   11 1   
    18   10   31 1   
    19   11   12 1   
    20   11   14 1   
    21   11   32 1   
    22   12   13 1   
    23   12   33 1   
    24   12   34 1   
    25   13   35 1   
    26   14   15 1   
    27   15   16 2   
    28   16   17 1   
    29   16   20 1   
    30   17   18 2   
    31   17   37 1   
    32   18   19 1   
    33   19   20 2   
    34   19   25 1   
    35   20   21 1   
    36   21   22 2   
    37   22   23 1   
    38   22   24 1   
    39   23   38 1   
    40   23   39 1   
    41   24   25 1   
    42   24   40 1   
    43   25   26 2   
@<TRIPOS>SUBSTRUCTURE
     1 P1G         1 TEMP              0 ****  ****    0 ROOT
