@<TRIPOS>MOLECULE
P1G
   40    43     1     0     0
SMALL
bcc


@<TRIPOS>ATOM
      1 O3         -1.2120    0.7320   -0.7120 o         1 P1G     -0.872500
      2 P          -0.0940    0.4180    0.2100 p5        1 P1G      1.345600
      3 O4         -0.1710    0.6860    1.6690 o         1 P1G     -0.872500
      4 O2          0.2220   -1.1670   -0.0010 oh        1 P1G     -0.794400
      5 C1P         1.3930    1.1690   -0.3070 c3        1 P1G     -0.328600
      6 C1          1.9920    1.2540   -1.6910 c3        1 P1G      0.398900
      7 O3'         1.1480    1.7890   -2.7200 os        1 P1G     -0.435600
      8 O2'         2.5150    0.0140   -2.1710 os        1 P1G     -0.423600
      9 C2'         2.0930   -0.2320   -3.5190 c3        1 P1G      0.104800
     10 C3'         1.0140    0.8590   -3.7860 c3        1 P1G      0.091100
     11 C4'        -0.3220    0.1020   -3.7670 c3        1 P1G      0.025100
     12 C5'        -1.0210    0.1760   -5.1200 c3        1 P1G      0.126400
     13 O5'        -2.1360   -0.6940   -5.1980 oh        1 P1G     -0.626800
     14 O4'        -0.0200   -1.2830   -3.4600 os        1 P1G     -0.422400
     15 C1'         1.3470   -1.5320   -3.6420 c2        1 P1G      0.035600
     16 N9          1.6420   -2.4610   -4.6300 na        1 P1G     -0.019900
     17 C8          0.7350   -3.4310   -5.1160 cc        1 P1G      0.281400
     18 N7          1.3070   -4.3740   -5.9210 nd        1 P1G     -0.627000
     19 C5          2.6320   -4.0270   -5.9840 cd        1 P1G      0.173800
     20 C4          2.8760   -2.8120   -5.1870 cc        1 P1G     -0.088200
     21 N3          4.1280   -2.2590   -5.0060 nc        1 P1G     -0.558100
     22 C2          5.1310   -2.8710   -5.6380 cd        1 P1G      0.492800
     23 N2          6.4840   -2.3490   -5.5460 nv        1 P1G     -0.854800
     24 N1          4.9940   -4.0330   -6.4380 ns        1 P1G     -0.492400
     25 C6          3.7480   -4.6530   -6.6540 c         1 P1G      0.647000
     26 O6          3.7390   -5.6640   -7.3930 o         1 P1G     -0.705500
     27 H1P1        1.2960    2.2290    0.0420 hc        1 P1G      0.062200
     28 H1P2        2.1830    0.6800    0.3220 hc        1 P1G      0.062200
     29 H1          2.8750    1.9720   -1.6500 h2        1 P1G     -0.006300
     30 H2'         3.0010   -0.1370   -4.1630 h1        1 P1G      0.063700
     31 H3'         1.1700    1.4380   -4.7280 h1        1 P1G      0.050700
     32 H4'        -0.9990    0.4460   -2.9300 h1        1 P1G      0.167700
     33 H5'1       -1.4310    1.2060   -5.2910 h1        1 P1G      0.023700
     34 H5'2       -0.3100   -0.0870   -5.9500 h1        1 P1G      0.023700
     35 H5'        -1.9270   -1.4690   -4.6570 ho        1 P1G      0.421000
     36 H1'         0.2080   -1.4370   -0.9160 ho        1 P1G      0.448000
     37 H8         -0.3110   -3.4180   -4.8000 h5        1 P1G      0.056100
     38 HN21        6.8770   -2.6440   -4.6700 hn        1 P1G      0.358800
     39 HN22        6.4550   -1.3450   -5.5580 hn        1 P1G      0.358800
     40 HN1         5.7900   -4.3980   -6.9040 hn        1 P1G      0.310500
@<TRIPOS>BOND
     1    1    2 1   
     2    2    3 1   
     3    2    4 1   
     4    2    5 1   
     5    4   36 1   
     6    5    6 1   
     7    5   27 1   
     8    5   28 1   
     9    6    7 1   
    10    6    8 1   
    11    6   29 1   
    12    7   10 1   
    13    8    9 1   
    14    9   10 1   
    15    9   15 1   
    16    9   30 1   
    17   10   11 1   
    18   10   31 1   
    19   11   12 1   
    20   11   14 1   
    21   11   32 1   
    22   12   13 1   
    23   12   33 1   
    24   12   34 1   
    25   13   35 1   
    26   14   15 1   
    27   15   16 2   
    28   16   17 1   
    29   16   20 1   
    30   17   18 2   
    31   17   37 1   
    32   18   19 1   
    33   19   20 2   
    34   19   25 1   
    35   20   21 1   
    36   21   22 2   
    37   22   23 1   
    38   22   24 1   
    39   23   38 1   
    40   23   39 1   
    41   24   25 1   
    42   24   40 1   
    43   25   26 2   
@<TRIPOS>SUBSTRUCTURE
     1 P1G         1 TEMP              0 ****  ****    0 ROOT
