@<TRIPOS>MOLECULE
P1L
   60    59     1     0     0
SMALL
bcc


@<TRIPOS>ATOM
      1 O          13.8790   -4.5150   -4.4340 o         1 P1L     -0.835300
      2 N          13.9820   -3.5160   -7.0310 n3        1 P1L     -0.892800
      3 CA         13.0150   -2.9650   -6.0930 c3        1 P1L      0.020500
      4 CB         11.6060   -2.8430   -6.6560 c3        1 P1L      0.006700
      5 SG         11.0130   -4.3430   -7.4190 ss        1 P1L     -0.216700
      6 C7         10.4580   -3.8860   -8.9620 c         1 P1L      0.546700
      7 O7         10.4120   -2.7520   -9.4600 o         1 P1L     -0.565100
      8 C8          9.9970   -5.1030   -9.7240 c3        1 P1L     -0.173400
      9 C9          8.6190   -4.9180  -10.3250 c3        1 P1L     -0.069400
     10 C10         7.5220   -5.0760   -9.2940 c3        1 P1L     -0.083400
     11 C11         6.1570   -4.8610   -9.9100 c3        1 P1L     -0.076400
     12 C12         5.0590   -5.0230   -8.8800 c3        1 P1L     -0.080400
     13 C13         3.6930   -4.8060   -9.4920 c3        1 P1L     -0.078400
     14 C14         2.5960   -4.9680   -8.4610 c3        1 P1L     -0.079400
     15 C15         1.2290   -4.7510   -9.0730 c3        1 P1L     -0.078400
     16 C16         0.1330   -4.9130   -8.0420 c3        1 P1L     -0.079400
     17 C17        -1.2340   -4.6960   -8.6530 c3        1 P1L     -0.078400
     18 C18        -2.3300   -4.8580   -7.6210 c3        1 P1L     -0.079400
     19 C19        -3.6980   -4.6410   -8.2320 c3        1 P1L     -0.078400
     20 C20        -4.7930   -4.8030   -7.2000 c3        1 P1L     -0.079400
     21 C          12.9720   -3.6770   -4.6960 c         1 P1L      0.888600
     22 C21        -6.1620   -4.5860   -7.8100 c3        1 P1L     -0.080400
     23 C22        -7.2550   -4.7460   -6.7860 c3        1 P1L     -0.092100
     24 OXT        12.0520   -3.3370   -3.9020 o         1 P1L     -0.835300
     25 H4         13.3590   -1.9090   -5.8720 h1        1 P1L      0.052700
     26 HB2        11.5430   -2.0180   -7.4060 h1        1 P1L      0.086700
     27 HB3        10.9210   -2.6250   -5.7950 h1        1 P1L      0.086700
     28 H8C1       10.7390   -5.2820  -10.5480 hc        1 P1L      0.066200
     29 H8C2       10.0080   -6.0030   -9.0530 hc        1 P1L      0.066200
     30 H9C1        8.5560   -3.8980  -10.7920 hc        1 P1L      0.044200
     31 H9C2        8.4730   -5.6740  -11.1410 hc        1 P1L      0.044200
     32 H101        7.5740   -6.1010   -8.8400 hc        1 P1L      0.048200
     33 H102        7.6820   -4.3390   -8.4630 hc        1 P1L      0.048200
     34 H111        6.0000   -5.5940  -10.7450 hc        1 P1L      0.035200
     35 H112        6.1040   -3.8340  -10.3570 hc        1 P1L      0.035200
     36 H121        5.1130   -6.0510   -8.4320 hc        1 P1L      0.043200
     37 H122        5.2190   -4.2910   -8.0440 hc        1 P1L      0.043200
     38 H131        3.5340   -5.5380  -10.3280 hc        1 P1L      0.036700
     39 H132        3.6400   -3.7790   -9.9390 hc        1 P1L      0.036700
     40 H141        2.6500   -5.9960   -8.0140 hc        1 P1L      0.041200
     41 H142        2.7560   -4.2360   -7.6260 hc        1 P1L      0.041200
     42 H151        1.0700   -5.4830   -9.9090 hc        1 P1L      0.037700
     43 H152        1.1760   -3.7230   -9.5200 hc        1 P1L      0.037700
     44 H161        0.2920   -4.1810   -7.2070 hc        1 P1L      0.040700
     45 H162        0.1870   -5.9410   -7.5940 hc        1 P1L      0.040700
     46 H171       -1.2880   -3.6680   -9.1000 hc        1 P1L      0.038200
     47 H172       -1.3930   -5.4280   -9.4880 hc        1 P1L      0.038200
     48 H181       -2.2760   -5.8850   -7.1740 hc        1 P1L      0.040200
     49 H182       -2.1710   -4.1260   -6.7860 hc        1 P1L      0.040200
     50 H191       -3.7510   -3.6130   -8.6790 hc        1 P1L      0.038200
     51 H192       -3.8570   -5.3730   -9.0670 hc        1 P1L      0.038200
     52 H201       -4.7400   -5.8300   -6.7530 hc        1 P1L      0.039700
     53 H202       -4.6340   -4.0710   -6.3650 hc        1 P1L      0.039700
     54 H211       -6.3180   -5.3170   -8.6460 hc        1 P1L      0.037700
     55 H212       -6.2120   -3.5580   -8.2580 hc        1 P1L      0.037700
     56 H221       -7.2360   -5.7720   -6.3460 hc        1 P1L      0.031367
     57 H222       -8.2550   -4.5820   -7.2560 hc        1 P1L      0.031367
     58 H223       -7.1300   -4.0080   -5.9570 hc        1 P1L      0.031367
     59 H          13.6240   -4.3850   -7.3900 hn        1 P1L      0.339300
     60 H2         14.8080   -3.7450   -6.5000 hn        1 P1L      0.339300
@<TRIPOS>BOND
     1    1   21 1   
     2    2    3 1   
     3    2   59 1   
     4    2   60 1   
     5    3    4 1   
     6    3   21 1   
     7    3   25 1   
     8    4    5 1   
     9    4   26 1   
    10    4   27 1   
    11    5    6 1   
    12    6    7 2   
    13    6    8 1   
    14    8    9 1   
    15    8   28 1   
    16    8   29 1   
    17    9   10 1   
    18    9   30 1   
    19    9   31 1   
    20   10   11 1   
    21   10   32 1   
    22   10   33 1   
    23   11   12 1   
    24   11   34 1   
    25   11   35 1   
    26   12   13 1   
    27   12   36 1   
    28   12   37 1   
    29   13   14 1   
    30   13   38 1   
    31   13   39 1   
    32   14   15 1   
    33   14   40 1   
    34   14   41 1   
    35   15   16 1   
    36   15   42 1   
    37   15   43 1   
    38   16   17 1   
    39   16   44 1   
    40   16   45 1   
    41   17   18 1   
    42   17   46 1   
    43   17   47 1   
    44   18   19 1   
    45   18   48 1   
    46   18   49 1   
    47   19   20 1   
    48   19   50 1   
    49   19   51 1   
    50   20   22 1   
    51   20   52 1   
    52   20   53 1   
    53   21   24 1   
    54   22   23 1   
    55   22   54 1   
    56   22   55 1   
    57   23   56 1   
    58   23   57 1   
    59   23   58 1   
@<TRIPOS>SUBSTRUCTURE
     1 P1L         1 TEMP              0 ****  ****    0 ROOT
