@<TRIPOS>MOLECULE
P1O
   94    93     1     0     0
SMALL
bcc


@<TRIPOS>ATOM
      1 O1          0.6440   -2.3170    2.0110 o         1 P1O     -0.814500
      2 O2          3.3050   -2.4350    2.2100 o         1 P1O     -0.814500
      3 P1          2.0270   -1.7990    1.8910 p5        1 P1O      1.438800
      4 O3          1.9070   -0.3530    2.7260 os        1 P1O     -0.577200
      5 C1          0.9600   -0.2660    3.7250 c3        1 P1O      0.197400
      6 C2         -0.1020    0.8010    3.3930 c3        1 P1O      0.079800
      7 N1         -1.2650    0.3900    2.5280 n4        1 P1O     -0.576800
      8 C3         -1.8890   -0.8710    3.0200 c3        1 P1O      0.075433
      9 C4         -2.2760    1.4890    2.5840 c3        1 P1O      0.075433
     10 C5         -0.8460    0.2170    1.1050 c3        1 P1O      0.075433
     11 O4          2.0960   -1.0750    0.4220 os        1 P1O     -0.580200
     12 C6          3.3550   -0.5370    0.1260 c3        1 P1O      0.175400
     13 C7          3.2080    0.3070   -1.1460 c3        1 P1O      0.135100
     14 C8          2.3720    1.5650   -0.9200 c3        1 P1O      0.113400
     15 O5          3.0390    2.4000    0.0380 os        1 P1O     -0.419900
     16 C9          2.3180    2.9430    1.0540 c         1 P1O      0.664100
     17 O6          1.0870    2.8090    1.0710 o         1 P1O     -0.609000
     18 C10         3.1860    3.6550    2.0470 c3        1 P1O     -0.135400
     19 C11         2.4620    4.8250    2.6760 c3        1 P1O     -0.075400
     20 C12         3.2990    5.4470    3.7730 c3        1 P1O     -0.081400
     21 C13         2.5890    6.6290    4.3980 c3        1 P1O     -0.077400
     22 C14         3.4220    7.2500    5.4980 c3        1 P1O     -0.079400
     23 C15         2.7130    8.4310    6.1240 c3        1 P1O     -0.078400
     24 C16         3.5460    9.0520    7.2240 c3        1 P1O     -0.079400
     25 C17         2.8380   10.2340    7.8510 c3        1 P1O     -0.079400
     26 C18         3.6650   10.8560    8.9470 c3        1 P1O     -0.093100
     27 O7          4.5500    0.6370   -1.5390 os        1 P1O     -0.426900
     28 C19         4.7590    1.0110   -2.8370 c         1 P1O      0.638100
     29 O8          3.7910    1.0910   -3.5970 o         1 P1O     -0.555000
     30 C20         6.2020    1.2950   -3.1200 c3        1 P1O     -0.127400
     31 C21         6.5910    0.8010   -4.4980 c3        1 P1O     -0.079400
     32 C22         8.0100    1.2100   -4.8330 c3        1 P1O     -0.078400
     33 C23         8.4130    0.7030   -6.2010 c3        1 P1O     -0.079400
     34 C24         9.8290    1.1130   -6.5430 c3        1 P1O     -0.078400
     35 C25        10.2340    0.6030   -7.9090 c3        1 P1O     -0.079400
     36 C26        11.6500    1.0130   -8.2520 c3        1 P1O     -0.079400
     37 C27        12.0560    0.5030   -9.6180 c3        1 P1O     -0.080400
     38 C28        13.4660    0.9080   -9.9630 c3        1 P1O     -0.092100
     39 H1          0.4890   -1.2650    3.9390 h1        1 P1O      0.053200
     40 H2          1.4680    0.1170    4.6600 h1        1 P1O      0.053200
     41 H3          0.4160    1.6540    2.8600 hx        1 P1O      0.091200
     42 H4         -0.5390    1.1660    4.3640 hx        1 P1O      0.091200
     43 H5         -2.8840   -1.0050    2.5220 hx        1 P1O      0.100811
     44 H6         -2.0220   -0.8070    4.1300 hx        1 P1O      0.100811
     45 H7         -1.2250   -1.7520    2.7570 hx        1 P1O      0.100811
     46 H8         -3.1250    1.2500    1.8930 hx        1 P1O      0.100811
     47 H9         -1.7910    2.4500    2.2630 hx        1 P1O      0.100811
     48 H10        -2.6640    1.5900    3.6310 hx        1 P1O      0.100811
     49 H11        -0.3950    1.1750    0.7330 hx        1 P1O      0.100811
     50 H12        -0.0760   -0.6130    1.0490 hx        1 P1O      0.100811
     51 H13        -1.7420   -0.0620    0.4950 hx        1 P1O      0.100811
     52 H14         4.0880   -1.3720   -0.0330 h1        1 P1O      0.056700
     53 H15         3.6990    0.1020    0.9840 h1        1 P1O      0.056700
     54 H16         2.7090   -0.2920   -1.9580 h1        1 P1O      0.087700
     55 H17         1.3550    1.2620   -0.5580 h1        1 P1O      0.074700
     56 H18         2.3020    2.1690   -1.8630 h1        1 P1O      0.074700
     57 H19         4.1280    3.9980    1.5420 hc        1 P1O      0.088700
     58 H20         3.4750    2.9000    2.8290 hc        1 P1O      0.088700
     59 H21         2.2320    5.5930    1.8920 hc        1 P1O      0.049200
     60 H22         1.4800    4.4760    3.0940 hc        1 P1O      0.049200
     61 H23         3.5210    4.6800    4.5610 hc        1 P1O      0.044700
     62 H24         4.2840    5.7810    3.3500 hc        1 P1O      0.044700
     63 H25         1.6020    6.2960    4.8150 hc        1 P1O      0.039200
     64 H26         2.3720    7.3980    3.6100 hc        1 P1O      0.039200
     65 H27         4.4090    7.5820    5.0810 hc        1 P1O      0.041700
     66 H28         3.6390    6.4800    6.2860 hc        1 P1O      0.041700
     67 H29         2.4970    9.2000    5.3370 hc        1 P1O      0.038700
     68 H30         1.7260    8.1000    6.5420 hc        1 P1O      0.038700
     69 H31         3.7630    8.2830    8.0120 hc        1 P1O      0.040200
     70 H32         4.5330    9.3840    6.8070 hc        1 P1O      0.040200
     71 H33         2.6210   11.0010    7.0620 hc        1 P1O      0.038200
     72 H34         1.8510    9.9010    8.2680 hc        1 P1O      0.038200
     73 H35         4.6430   11.2170    8.5460 hc        1 P1O      0.033033
     74 H36         3.8720   10.1140    9.7550 hc        1 P1O      0.033033
     75 H37         3.1250   11.7250    9.3950 hc        1 P1O      0.033033
     76 H38         6.8430    0.8150   -2.3330 hc        1 P1O      0.078700
     77 H39         6.3450    2.4070   -3.0480 hc        1 P1O      0.078700
     78 H40         6.5000   -0.3160   -4.5360 hc        1 P1O      0.057700
     79 H41         5.8800    1.2190   -5.2590 hc        1 P1O      0.057700
     80 H42         8.7130    0.8040   -4.0590 hc        1 P1O      0.040700
     81 H43         8.0970    2.3280   -4.8060 hc        1 P1O      0.040700
     82 H44         8.3280   -0.4160   -6.2270 hc        1 P1O      0.042700
     83 H45         7.7070    1.1050   -6.9750 hc        1 P1O      0.042700
     84 H46         9.9130    2.2310   -6.5180 hc        1 P1O      0.039700
     85 H47        10.5340    0.7120   -5.7680 hc        1 P1O      0.039700
     86 H48        10.1500   -0.5150   -7.9330 hc        1 P1O      0.040200
     87 H49         9.5280    1.0040   -8.6840 hc        1 P1O      0.040200
     88 H50        12.3550    0.6130   -7.4760 hc        1 P1O      0.039200
     89 H51        11.7340    2.1320   -8.2290 hc        1 P1O      0.039200
     90 H52        11.3490    0.9020  -10.3910 hc        1 P1O      0.038700
     91 H53        11.9700   -0.6160   -9.6390 hc        1 P1O      0.038700
     92 H54        14.1880    0.4980   -9.2160 hc        1 P1O      0.032367
     93 H55        13.7450    0.5220  -10.9730 hc        1 P1O      0.032367
     94 H56        13.5660    2.0210   -9.9710 hc        1 P1O      0.032367
@<TRIPOS>BOND
     1    1    3 1   
     2    2    3 1   
     3    3    4 1   
     4    3   11 1   
     5    4    5 1   
     6    5    6 1   
     7    5   39 1   
     8    5   40 1   
     9    6    7 1   
    10    6   41 1   
    11    6   42 1   
    12    7    8 1   
    13    7    9 1   
    14    7   10 1   
    15    8   43 1   
    16    8   44 1   
    17    8   45 1   
    18    9   46 1   
    19    9   47 1   
    20    9   48 1   
    21   10   49 1   
    22   10   50 1   
    23   10   51 1   
    24   11   12 1   
    25   12   13 1   
    26   12   52 1   
    27   12   53 1   
    28   13   14 1   
    29   13   27 1   
    30   13   54 1   
    31   14   15 1   
    32   14   55 1   
    33   14   56 1   
    34   15   16 1   
    35   16   17 2   
    36   16   18 1   
    37   18   19 1   
    38   18   57 1   
    39   18   58 1   
    40   19   20 1   
    41   19   59 1   
    42   19   60 1   
    43   20   21 1   
    44   20   61 1   
    45   20   62 1   
    46   21   22 1   
    47   21   63 1   
    48   21   64 1   
    49   22   23 1   
    50   22   65 1   
    51   22   66 1   
    52   23   24 1   
    53   23   67 1   
    54   23   68 1   
    55   24   25 1   
    56   24   69 1   
    57   24   70 1   
    58   25   26 1   
    59   25   71 1   
    60   25   72 1   
    61   26   73 1   
    62   26   74 1   
    63   26   75 1   
    64   27   28 1   
    65   28   29 2   
    66   28   30 1   
    67   30   31 1   
    68   30   76 1   
    69   30   77 1   
    70   31   32 1   
    71   31   78 1   
    72   31   79 1   
    73   32   33 1   
    74   32   80 1   
    75   32   81 1   
    76   33   34 1   
    77   33   82 1   
    78   33   83 1   
    79   34   35 1   
    80   34   84 1   
    81   34   85 1   
    82   35   36 1   
    83   35   86 1   
    84   35   87 1   
    85   36   37 1   
    86   36   88 1   
    87   36   89 1   
    88   37   38 1   
    89   37   90 1   
    90   37   91 1   
    91   38   92 1   
    92   38   93 1   
    93   38   94 1   
@<TRIPOS>SUBSTRUCTURE
     1 P1O         1 TEMP              0 ****  ****    0 ROOT
