@<TRIPOS>MOLECULE
P1O
   94    93     1     0     0
SMALL
bcc


@<TRIPOS>ATOM
      1 O1          1.5690   -2.3690    0.4900 o         1 P1O     -0.819500
      2 O2          2.9530   -0.7330    1.9860 o         1 P1O     -0.819500
      3 P1          1.9690   -1.0150    0.9320 p5        1 P1O      1.428800
      4 O3          0.5130   -0.4410    1.5510 os        1 P1O     -0.577200
      5 C1          0.3030   -0.6690    2.8940 c3        1 P1O      0.190400
      6 C2         -1.0090   -1.4460    3.1280 c3        1 P1O      0.086800
      7 N1         -1.0890   -2.8330    2.5470 n4        1 P1O     -0.581800
      8 C3          0.1540   -3.6040    2.8360 c3        1 P1O      0.076767
      9 C4         -2.2500   -3.5320    3.1710 c3        1 P1O      0.076767
     10 C5         -1.3070   -2.7680    1.0690 c3        1 P1O      0.076767
     11 O4          2.0980   -0.0030   -0.3260 os        1 P1O     -0.556200
     12 C6          2.6040    1.2610    0.0210 c3        1 P1O      0.169400
     13 C7          2.7810    2.0740   -1.2620 c3        1 P1O      0.145100
     14 C8          2.3960    3.5400   -1.0820 c3        1 P1O      0.115400
     15 O5          3.0890    4.0320    0.0750 os        1 P1O     -0.433900
     16 C9          2.8360    5.3250    0.4400 c         1 P1O      0.631100
     17 O6          2.0180    5.9720   -0.2180 o         1 P1O     -0.548000
     18 C10         3.6480    5.7530    1.6230 c3        1 P1O     -0.128400
     19 C11         2.8880    6.7460    2.4750 c3        1 P1O     -0.078400
     20 C12         3.7630    7.2760    3.5910 c3        1 P1O     -0.079400
     21 C13         3.0050    8.2580    4.4580 c3        1 P1O     -0.078400
     22 C14         3.8780    8.7940    5.5720 c3        1 P1O     -0.079400
     23 C15         3.1200    9.7760    6.4390 c3        1 P1O     -0.079400
     24 C16         3.9930   10.3130    7.5530 c3        1 P1O     -0.079400
     25 C17         3.2360   11.2960    8.4220 c3        1 P1O     -0.080400
     26 C18         4.1020   11.8320    9.5320 c3        1 P1O     -0.092100
     27 O7          4.1740    1.9620   -1.6040 os        1 P1O     -0.426900
     28 C19         4.5300    2.1450   -2.9100 c         1 P1O      0.636100
     29 O8          3.6620    2.4620   -3.7270 o         1 P1O     -0.553000
     30 C20         5.9970    1.9420   -3.1320 c3        1 P1O     -0.127400
     31 C21         6.2580    1.2880   -4.4720 c3        1 P1O     -0.079400
     32 C22         7.7430    1.2110   -4.7530 c3        1 P1O     -0.078400
     33 C23         8.0120    0.5430   -6.0840 c3        1 P1O     -0.079400
     34 C24         9.4960    0.4690   -6.3710 c3        1 P1O     -0.078400
     35 C25         9.7650   -0.2000   -7.7020 c3        1 P1O     -0.079400
     36 C26        11.2490   -0.2730   -7.9900 c3        1 P1O     -0.079400
     37 C27        11.5200   -0.9420   -9.3210 c3        1 P1O     -0.080400
     38 C28        12.9970   -1.0170   -9.6120 c3        1 P1O     -0.092100
     39 H1          0.1470    0.3180    3.4230 h1        1 P1O      0.059200
     40 H2          1.1790   -1.2000    3.3640 h1        1 P1O      0.059200
     41 H3         -1.1580   -1.5390    4.2400 hx        1 P1O      0.078700
     42 H4         -1.8550   -0.8550    2.6800 hx        1 P1O      0.078700
     43 H5          0.4040   -3.5090    3.9230 hx        1 P1O      0.100144
     44 H6          1.0000   -3.1950    2.1920 hx        1 P1O      0.100144
     45 H7         -0.0090   -4.6790    2.5670 hx        1 P1O      0.100144
     46 H8         -3.1780   -2.9220    3.0190 hx        1 P1O      0.100144
     47 H9         -2.3810   -4.5370    2.6890 hx        1 P1O      0.100144
     48 H10        -2.0630   -3.6680    4.2680 hx        1 P1O      0.100144
     49 H11        -1.3490   -3.8110    0.6620 hx        1 P1O      0.100144
     50 H12        -2.2620   -2.2240    0.8620 hx        1 P1O      0.100144
     51 H13        -0.4270   -2.2240    0.5930 hx        1 P1O      0.100144
     52 H14         3.5830    1.1340    0.5610 h1        1 P1O      0.061700
     53 H15         1.8640    1.7660    0.6980 h1        1 P1O      0.061700
     54 H16         2.1540    1.6430   -2.0940 h1        1 P1O      0.100700
     55 H17         1.2920    3.6380   -0.9190 h1        1 P1O      0.066700
     56 H18         2.7040    4.1430   -1.9760 h1        1 P1O      0.066700
     57 H19         3.9360    4.8510    2.2260 hc        1 P1O      0.080200
     58 H20         4.5930    6.2160    1.2300 hc        1 P1O      0.080200
     59 H21         2.5280    7.5930    1.8320 hc        1 P1O      0.055700
     60 H22         1.9790    6.2510    2.9090 hc        1 P1O      0.055700
     61 H23         4.6660    7.7800    3.1550 hc        1 P1O      0.041200
     62 H24         4.1310    6.4230    4.2200 hc        1 P1O      0.041200
     63 H25         2.6340    9.1090    3.8270 hc        1 P1O      0.041700
     64 H26         2.1030    7.7540    4.8960 hc        1 P1O      0.041700
     65 H27         4.2490    7.9440    6.2020 hc        1 P1O      0.040200
     66 H28         4.7800    9.2980    5.1330 hc        1 P1O      0.040200
     67 H29         2.2180    9.2730    6.8770 hc        1 P1O      0.039200
     68 H30         2.7490   10.6270    5.8090 hc        1 P1O      0.039200
     69 H31         4.8950   10.8160    7.1150 hc        1 P1O      0.039700
     70 H32         4.3640    9.4620    8.1840 hc        1 P1O      0.039700
     71 H33         2.3340   10.7910    8.8570 hc        1 P1O      0.038200
     72 H34         2.8660   12.1450    7.7890 hc        1 P1O      0.038200
     73 H35         4.4610   11.0030   10.1890 hc        1 P1O      0.032367
     74 H36         3.5250   12.5540   10.1600 hc        1 P1O      0.032367
     75 H37         4.9940   12.3600    9.1170 hc        1 P1O      0.032367
     76 H38         6.4210    1.3190   -2.3000 hc        1 P1O      0.078200
     77 H39         6.4860    2.9530   -3.0870 hc        1 P1O      0.078200
     78 H40         5.7430    1.8740   -5.2800 hc        1 P1O      0.058200
     79 H41         5.8160    0.2570   -4.4790 hc        1 P1O      0.058200
     80 H42         8.2530    0.6380   -3.9340 hc        1 P1O      0.040700
     81 H43         8.1810    2.2440   -4.7560 hc        1 P1O      0.040700
     82 H44         7.4980    1.1140   -6.9020 hc        1 P1O      0.042700
     83 H45         7.5770   -0.4920   -6.0800 hc        1 P1O      0.042700
     84 H46        10.0090   -0.1020   -5.5530 hc        1 P1O      0.039200
     85 H47         9.9310    1.5040   -6.3750 hc        1 P1O      0.039200
     86 H48         9.2510    0.3710   -8.5200 hc        1 P1O      0.039700
     87 H49         9.3310   -1.2340   -7.6970 hc        1 P1O      0.039700
     88 H50        11.6840    0.7610   -7.9940 hc        1 P1O      0.039200
     89 H51        11.7640   -0.8440   -7.1720 hc        1 P1O      0.039200
     90 H52        11.0040   -0.3710  -10.1370 hc        1 P1O      0.038700
     91 H53        11.0840   -1.9760   -9.3150 hc        1 P1O      0.038700
     92 H54        13.4450    0.0050   -9.6460 hc        1 P1O      0.032033
     93 H55        13.1740   -1.5130  -10.5960 hc        1 P1O      0.032033
     94 H56        13.5250   -1.6040   -8.8210 hc        1 P1O      0.032033
@<TRIPOS>BOND
     1    1    3 1   
     2    2    3 1   
     3    3    4 1   
     4    3   11 1   
     5    4    5 1   
     6    5    6 1   
     7    5   39 1   
     8    5   40 1   
     9    6    7 1   
    10    6   41 1   
    11    6   42 1   
    12    7    8 1   
    13    7    9 1   
    14    7   10 1   
    15    8   43 1   
    16    8   44 1   
    17    8   45 1   
    18    9   46 1   
    19    9   47 1   
    20    9   48 1   
    21   10   49 1   
    22   10   50 1   
    23   10   51 1   
    24   11   12 1   
    25   12   13 1   
    26   12   52 1   
    27   12   53 1   
    28   13   14 1   
    29   13   27 1   
    30   13   54 1   
    31   14   15 1   
    32   14   55 1   
    33   14   56 1   
    34   15   16 1   
    35   16   17 2   
    36   16   18 1   
    37   18   19 1   
    38   18   57 1   
    39   18   58 1   
    40   19   20 1   
    41   19   59 1   
    42   19   60 1   
    43   20   21 1   
    44   20   61 1   
    45   20   62 1   
    46   21   22 1   
    47   21   63 1   
    48   21   64 1   
    49   22   23 1   
    50   22   65 1   
    51   22   66 1   
    52   23   24 1   
    53   23   67 1   
    54   23   68 1   
    55   24   25 1   
    56   24   69 1   
    57   24   70 1   
    58   25   26 1   
    59   25   71 1   
    60   25   72 1   
    61   26   73 1   
    62   26   74 1   
    63   26   75 1   
    64   27   28 1   
    65   28   29 2   
    66   28   30 1   
    67   30   31 1   
    68   30   76 1   
    69   30   77 1   
    70   31   32 1   
    71   31   78 1   
    72   31   79 1   
    73   32   33 1   
    74   32   80 1   
    75   32   81 1   
    76   33   34 1   
    77   33   82 1   
    78   33   83 1   
    79   34   35 1   
    80   34   84 1   
    81   34   85 1   
    82   35   36 1   
    83   35   86 1   
    84   35   87 1   
    85   36   37 1   
    86   36   88 1   
    87   36   89 1   
    88   37   38 1   
    89   37   90 1   
    90   37   91 1   
    91   38   92 1   
    92   38   93 1   
    93   38   94 1   
@<TRIPOS>SUBSTRUCTURE
     1 P1O         1 TEMP              0 ****  ****    0 ROOT
