@<TRIPOS>MOLECULE
P1O
   94    93     1     0     0
SMALL
bcc


@<TRIPOS>ATOM
      1 O1          1.0010   -2.9110    1.1540 o         1 P1O     -0.819500
      2 O2          2.4970   -1.1770    2.4140 o         1 P1O     -0.819500
      3 P1          1.4820   -1.5360    1.4130 p5        1 P1O      1.428800
      4 O3          0.0710   -0.8040    1.9620 os        1 P1O     -0.577200
      5 C1         -0.1320   -0.8430    3.3250 c3        1 P1O      0.190400
      6 C2         -1.4820   -1.5060    3.6680 c3        1 P1O      0.086800
      7 N1         -1.6490   -2.9490    3.2730 n4        1 P1O     -0.581800
      8 C3         -0.4460   -3.7470    3.6520 c3        1 P1O      0.076767
      9 C4         -2.8380   -3.4930    3.9930 c3        1 P1O      0.076767
     10 C5         -1.8840   -3.0650    1.8020 c3        1 P1O      0.076767
     11 O4          1.6490   -0.7060    0.0320 os        1 P1O     -0.556200
     12 C6          2.2350    0.5590    0.2070 c3        1 P1O      0.169400
     13 C7          2.4400    1.1860   -1.1730 c3        1 P1O      0.145100
     14 C8          2.1920    2.6920   -1.1720 c3        1 P1O      0.115400
     15 O5          2.9500    3.2560   -0.0920 os        1 P1O     -0.433900
     16 C9          2.8390    4.6060    0.0990 c         1 P1O      0.631100
     17 O6          2.0820    5.2420   -0.6370 o         1 P1O     -0.548000
     18 C10         3.7100    5.0980    1.2120 c3        1 P1O     -0.128400
     19 C11         3.0680    6.2640    1.9330 c3        1 P1O     -0.078400
     20 C12         4.0110    6.8420    2.9660 c3        1 P1O     -0.079400
     21 C13         3.3680    7.9970    3.7030 c3        1 P1O     -0.078400
     22 C14         4.3100    8.5810    4.7340 c3        1 P1O     -0.079400
     23 C15         3.6680    9.7360    5.4730 c3        1 P1O     -0.079400
     24 C16         4.6090   10.3200    6.5040 c3        1 P1O     -0.079400
     25 C17         3.9680   11.4760    7.2430 c3        1 P1O     -0.080400
     26 C18         4.9010   12.0610    8.2710 c3        1 P1O     -0.092100
     27 O7          3.8070    0.9090   -1.5270 os        1 P1O     -0.426900
     28 C19         4.1290    0.8710   -2.8540 c         1 P1O      0.636100
     29 O8          3.2670    1.1620   -3.6870 o         1 P1O     -0.554000
     30 C20         5.5480    0.4480   -3.0800 c3        1 P1O     -0.128400
     31 C21         6.1420    1.1500   -4.2830 c3        1 P1O     -0.079400
     32 C22         7.5240    0.6150   -4.5890 c3        1 P1O     -0.078400
     33 C23         8.1320    1.3260   -5.7790 c3        1 P1O     -0.078400
     34 C24         9.5130    0.7910   -6.0910 c3        1 P1O     -0.079400
     35 C25        10.1210    1.5020   -7.2810 c3        1 P1O     -0.079400
     36 C26        11.5020    0.9680   -7.5940 c3        1 P1O     -0.079400
     37 C27        12.1120    1.6780   -8.7830 c3        1 P1O     -0.080400
     38 C28        13.4870    1.1490   -9.0980 c3        1 P1O     -0.092100
     39 H1         -0.2240    0.2120    3.7210 h1        1 P1O      0.059700
     40 H2          0.7200   -1.3570    3.8540 h1        1 P1O      0.059700
     41 H3         -2.3000   -0.9290    3.1530 hx        1 P1O      0.078700
     42 H4         -1.6200   -1.4450    4.7840 hx        1 P1O      0.078700
     43 H5         -0.6740   -4.8360    3.5270 hx        1 P1O      0.100256
     44 H6         -0.1760   -3.5260    4.7150 hx        1 P1O      0.100256
     45 H7          0.4110   -3.4750    2.9540 hx        1 P1O      0.100256
     46 H8         -3.7320   -2.8560    3.7690 hx        1 P1O      0.100256
     47 H9         -2.6420   -3.4950    5.0960 hx        1 P1O      0.100256
     48 H10        -3.0320   -4.5420    3.6470 hx        1 P1O      0.100256
     49 H11        -1.9920   -4.1470    1.5350 hx        1 P1O      0.100256
     50 H12        -0.9830   -2.6390    1.2520 hx        1 P1O      0.100256
     51 H13        -2.8100   -2.4970    1.5320 hx        1 P1O      0.100256
     52 H14         1.5360    1.1940    0.8160 h1        1 P1O      0.061200
     53 H15         3.2120    0.4460    0.7530 h1        1 P1O      0.061200
     54 H16         1.7510    0.7130   -1.9290 h1        1 P1O      0.100700
     55 H17         2.5320    3.1500   -2.1380 h1        1 P1O      0.066200
     56 H18         1.1040    2.9100   -1.0100 h1        1 P1O      0.066200
     57 H19         3.9180    4.2570    1.9250 hc        1 P1O      0.080200
     58 H20         4.6890    5.4100    0.7570 hc        1 P1O      0.080200
     59 H21         2.7820    7.0530    1.1870 hc        1 P1O      0.055700
     60 H22         2.1220    5.9220    2.4310 hc        1 P1O      0.055700
     61 H23         4.3040    6.0440    3.6980 hc        1 P1O      0.041200
     62 H24         4.9510    7.1930    2.4640 hc        1 P1O      0.041200
     63 H25         3.0720    8.7930    2.9700 hc        1 P1O      0.041700
     64 H26         2.4290    7.6460    4.2070 hc        1 P1O      0.041700
     65 H27         4.6060    7.7850    5.4670 hc        1 P1O      0.040200
     66 H28         5.2490    8.9320    4.2310 hc        1 P1O      0.040200
     67 H29         2.7280    9.3850    5.9760 hc        1 P1O      0.039200
     68 H30         3.3710   10.5320    4.7400 hc        1 P1O      0.039200
     69 H31         5.5480   10.6720    6.0000 hc        1 P1O      0.039700
     70 H32         4.9050    9.5240    7.2370 hc        1 P1O      0.039700
     71 H33         3.0280   11.1230    7.7450 hc        1 P1O      0.038200
     72 H34         3.6710   12.2700    6.5080 hc        1 P1O      0.038200
     73 H35         4.4100   12.9100    8.8040 hc        1 P1O      0.032367
     74 H36         5.8330   12.4400    7.7870 hc        1 P1O      0.032367
     75 H37         5.1890   11.2900    9.0260 hc        1 P1O      0.032367
     76 H38         6.1540    0.6580   -2.1600 hc        1 P1O      0.079700
     77 H39         5.5420   -0.6640   -3.2390 hc        1 P1O      0.079700
     78 H40         5.4680    1.0060   -5.1700 hc        1 P1O      0.056200
     79 H41         6.1960    2.2530   -4.0860 hc        1 P1O      0.056200
     80 H42         8.1870    0.7470   -3.6930 hc        1 P1O      0.041200
     81 H43         7.4650   -0.4850   -4.7980 hc        1 P1O      0.041200
     82 H44         7.4660    1.1970   -6.6740 hc        1 P1O      0.041700
     83 H45         8.1930    2.4270   -5.5690 hc        1 P1O      0.041700
     84 H46         9.4510   -0.3090   -6.3030 hc        1 P1O      0.039700
     85 H47        10.1770    0.9190   -5.1960 hc        1 P1O      0.039700
     86 H48         9.4570    1.3750   -8.1760 hc        1 P1O      0.039700
     87 H49        10.1830    2.6030   -7.0700 hc        1 P1O      0.039700
     88 H50        12.1670    1.0950   -6.6990 hc        1 P1O      0.039700
     89 H51        11.4410   -0.1330   -7.8050 hc        1 P1O      0.039700
     90 H52        11.4450    1.5510   -9.6770 hc        1 P1O      0.038700
     91 H53        12.1710    2.7790   -8.5710 hc        1 P1O      0.038700
     92 H54        14.1730    1.2900   -8.2280 hc        1 P1O      0.032367
     93 H55        13.9180    1.6860   -9.9780 hc        1 P1O      0.032367
     94 H56        13.4450    0.0590   -9.3370 hc        1 P1O      0.032367
@<TRIPOS>BOND
     1    1    3 1   
     2    2    3 1   
     3    3    4 1   
     4    3   11 1   
     5    4    5 1   
     6    5    6 1   
     7    5   39 1   
     8    5   40 1   
     9    6    7 1   
    10    6   41 1   
    11    6   42 1   
    12    7    8 1   
    13    7    9 1   
    14    7   10 1   
    15    8   43 1   
    16    8   44 1   
    17    8   45 1   
    18    9   46 1   
    19    9   47 1   
    20    9   48 1   
    21   10   49 1   
    22   10   50 1   
    23   10   51 1   
    24   11   12 1   
    25   12   13 1   
    26   12   52 1   
    27   12   53 1   
    28   13   14 1   
    29   13   27 1   
    30   13   54 1   
    31   14   15 1   
    32   14   55 1   
    33   14   56 1   
    34   15   16 1   
    35   16   17 2   
    36   16   18 1   
    37   18   19 1   
    38   18   57 1   
    39   18   58 1   
    40   19   20 1   
    41   19   59 1   
    42   19   60 1   
    43   20   21 1   
    44   20   61 1   
    45   20   62 1   
    46   21   22 1   
    47   21   63 1   
    48   21   64 1   
    49   22   23 1   
    50   22   65 1   
    51   22   66 1   
    52   23   24 1   
    53   23   67 1   
    54   23   68 1   
    55   24   25 1   
    56   24   69 1   
    57   24   70 1   
    58   25   26 1   
    59   25   71 1   
    60   25   72 1   
    61   26   73 1   
    62   26   74 1   
    63   26   75 1   
    64   27   28 1   
    65   28   29 2   
    66   28   30 1   
    67   30   31 1   
    68   30   76 1   
    69   30   77 1   
    70   31   32 1   
    71   31   78 1   
    72   31   79 1   
    73   32   33 1   
    74   32   80 1   
    75   32   81 1   
    76   33   34 1   
    77   33   82 1   
    78   33   83 1   
    79   34   35 1   
    80   34   84 1   
    81   34   85 1   
    82   35   36 1   
    83   35   86 1   
    84   35   87 1   
    85   36   37 1   
    86   36   88 1   
    87   36   89 1   
    88   37   38 1   
    89   37   90 1   
    90   37   91 1   
    91   38   92 1   
    92   38   93 1   
    93   38   94 1   
@<TRIPOS>SUBSTRUCTURE
     1 P1O         1 TEMP              0 ****  ****    0 ROOT
