@<TRIPOS>MOLECULE
P1O
   94    93     1     0     0
SMALL
bcc


@<TRIPOS>ATOM
      1 O1          0.8940   -4.4390    0.7650 o         1 P1O     -0.810500
      2 O2          1.1050   -3.0480    2.7870 o         1 P1O     -0.810500
      3 P1          0.4310   -3.1750    1.4390 p5        1 P1O      1.434800
      4 O3         -1.1450   -3.2260    1.6370 os        1 P1O     -0.571200
      5 C1         -1.7130   -4.3400    2.3540 c3        1 P1O      0.199400
      6 C2         -3.1550   -4.0060    2.7560 c3        1 P1O      0.074800
      7 N1         -3.8610   -5.2560    3.1500 n4        1 P1O     -0.576800
      8 C3         -3.8000   -6.2120    2.0550 c3        1 P1O      0.075100
      9 C4         -3.2280   -5.8160    4.3110 c3        1 P1O      0.075100
     10 C5         -5.2850   -4.9480    3.4600 c3        1 P1O      0.075100
     11 O4          0.8170   -1.9090    0.5270 os        1 P1O     -0.580200
     12 C6          2.1970   -1.4840    0.4920 c3        1 P1O      0.170400
     13 C7          2.3630   -0.3930   -0.5230 c3        1 P1O      0.110100
     14 C8          3.4550    0.5580   -0.0680 c3        1 P1O      0.126400
     15 O5          2.8780    1.6240    0.6700 os        1 P1O     -0.445900
     16 C9          3.8350    2.4820    1.2890 c         1 P1O      0.632100
     17 O6          4.8960    2.0270    1.6880 o         1 P1O     -0.539000
     18 C10         3.5500    3.9840    1.4120 c3        1 P1O     -0.126400
     19 C11         3.8370    4.4530    2.8770 c3        1 P1O     -0.080400
     20 C12         2.9940    5.7210    3.1900 c3        1 P1O     -0.078400
     21 C13         3.4360    6.3100    4.5630 c3        1 P1O     -0.079400
     22 C14         2.2020    6.8030    5.3310 c3        1 P1O     -0.078400
     23 C15         2.5670    8.0780    6.1310 c3        1 P1O     -0.079400
     24 C16         1.3340    8.5700    6.8960 c3        1 P1O     -0.079400
     25 C17         1.6180    9.9770    7.4870 c3        1 P1O     -0.080400
     26 C18         0.3360   10.5320    8.1210 c3        1 P1O     -0.092100
     27 O7          2.7250   -0.9670   -1.7850 os        1 P1O     -0.424900
     28 C19         1.8460   -0.6120   -2.8590 c         1 P1O      0.662100
     29 O8          1.0040    0.2480   -2.6950 o         1 P1O     -0.603000
     30 C20         2.0140   -1.2770   -4.2550 c3        1 P1O     -0.134400
     31 C21         0.7230   -1.0510   -5.0920 c3        1 P1O     -0.075400
     32 C22         0.6900   -2.0290   -6.2560 c3        1 P1O     -0.080400
     33 C23        -0.6800   -1.9270   -6.9810 c3        1 P1O     -0.077400
     34 C24        -0.8880   -3.1560   -7.8390 c3        1 P1O     -0.079400
     35 C25        -2.3590   -3.2250   -8.2930 c3        1 P1O     -0.078400
     36 C26        -2.6530   -4.6000   -8.8350 c3        1 P1O     -0.079400
     37 C27        -4.1600   -4.7490   -9.0610 c3        1 P1O     -0.079400
     38 C28        -4.4740   -6.1870   -9.4580 c3        1 P1O     -0.093100
     39 H1         -1.7110   -5.1280    1.7850 h1        1 P1O      0.054200
     40 H2         -1.1760   -4.5200    3.1690 h1        1 P1O      0.054200
     41 H3         -3.6180   -3.5940    1.9970 hx        1 P1O      0.098200
     42 H4         -3.1470   -3.3770    3.5180 hx        1 P1O      0.098200
     43 H5         -3.0000   -6.7670    2.1510 hx        1 P1O      0.099811
     44 H6         -3.7630   -5.7280    1.1980 hx        1 P1O      0.099811
     45 H7         -4.6080   -6.7900    2.0740 hx        1 P1O      0.099811
     46 H8         -2.2870   -5.9730    4.1240 hx        1 P1O      0.099811
     47 H9         -3.6660   -6.6750    4.5450 hx        1 P1O      0.099811
     48 H10        -3.3120   -5.1920    5.0620 hx        1 P1O      0.099811
     49 H11        -5.6720   -4.4160    2.7320 hx        1 P1O      0.099811
     50 H12        -5.3360   -4.4370    4.3040 hx        1 P1O      0.099811
     51 H13        -5.7880   -5.7880    3.5550 hx        1 P1O      0.099811
     52 H14         2.7630   -2.2410    0.2500 h1        1 P1O      0.064200
     53 H15         2.4550   -1.1550    1.3640 h1        1 P1O      0.064200
     54 H16         1.5170    0.1000   -0.6160 h1        1 P1O      0.108700
     55 H17         3.9190    0.9170   -0.8480 h1        1 P1O      0.072700
     56 H18         4.0930    0.0750    0.4990 h1        1 P1O      0.072700
     57 H19         2.6120    4.1570    1.1920 hc        1 P1O      0.075200
     58 H20         4.1290    4.4800    0.7890 hc        1 P1O      0.075200
     59 H21         3.5970    3.7390    3.5010 hc        1 P1O      0.059200
     60 H22         4.7920    4.6630    2.9720 hc        1 P1O      0.059200
     61 H23         2.0490    5.4820    3.2270 hc        1 P1O      0.039200
     62 H24         3.1360    6.3890    2.4870 hc        1 P1O      0.039200
     63 H25         4.0520    7.0640    4.4130 hc        1 P1O      0.043700
     64 H26         3.8870    5.6210    5.0820 hc        1 P1O      0.043700
     65 H27         1.9020    6.1050    5.9490 hc        1 P1O      0.039200
     66 H28         1.4820    7.0100    4.6960 hc        1 P1O      0.039200
     67 H29         3.2820    7.8730    6.7620 hc        1 P1O      0.040700
     68 H30         2.8640    8.7670    5.5200 hc        1 P1O      0.040700
     69 H31         1.1280    7.9370    7.6320 hc        1 P1O      0.038700
     70 H32         0.5760    8.6200    6.2890 hc        1 P1O      0.038700
     71 H33         1.9120   10.5750    6.7760 hc        1 P1O      0.039200
     72 H34         2.3240    9.9110    8.1760 hc        1 P1O      0.039200
     73 H35        -0.0520    9.8560    8.7250 hc        1 P1O      0.032367
     74 H36        -0.3000   10.7460    7.4260 hc        1 P1O      0.032367
     75 H37         0.5490   11.3470    8.6340 hc        1 P1O      0.032367
     76 H38         2.7840   -0.8730   -4.7210 hc        1 P1O      0.082200
     77 H39         2.1680   -2.2440   -4.1420 hc        1 P1O      0.082200
     78 H40         0.7130   -0.1360   -5.4350 hc        1 P1O      0.048200
     79 H41        -0.0520   -1.1930   -4.5310 hc        1 P1O      0.048200
     80 H42         0.8130   -2.9340   -5.9230 hc        1 P1O      0.045200
     81 H43         1.4160   -1.8100   -6.8920 hc        1 P1O      0.045200
     82 H44        -0.6910   -1.1240   -7.5500 hc        1 P1O      0.038700
     83 H45        -1.3940   -1.8670   -6.3200 hc        1 P1O      0.038700
     84 H46        -0.3050   -3.1070   -8.6250 hc        1 P1O      0.042200
     85 H47        -0.6700   -3.9560   -7.3210 hc        1 P1O      0.042200
     86 H48        -2.9460   -3.0430   -7.5290 hc        1 P1O      0.038700
     87 H49        -2.5170   -2.5580   -8.9910 hc        1 P1O      0.038700
     88 H50        -2.3520   -5.2710   -8.1960 hc        1 P1O      0.041200
     89 H51        -2.1820   -4.7230   -9.6820 hc        1 P1O      0.041200
     90 H52        -4.4470   -4.1380   -9.7800 hc        1 P1O      0.038200
     91 H53        -4.6370   -4.5270   -8.2330 hc        1 P1O      0.038200
     92 H54        -4.3570   -6.2920  -10.4250 hc        1 P1O      0.033367
     93 H55        -3.8690   -6.7930   -8.9900 hc        1 P1O      0.033367
     94 H56        -5.4070   -6.4000   -9.2150 hc        1 P1O      0.033367
@<TRIPOS>BOND
     1    1    3 1   
     2    2    3 1   
     3    3    4 1   
     4    3   11 1   
     5    4    5 1   
     6    5    6 1   
     7    5   39 1   
     8    5   40 1   
     9    6    7 1   
    10    6   41 1   
    11    6   42 1   
    12    7    8 1   
    13    7    9 1   
    14    7   10 1   
    15    8   43 1   
    16    8   44 1   
    17    8   45 1   
    18    9   46 1   
    19    9   47 1   
    20    9   48 1   
    21   10   49 1   
    22   10   50 1   
    23   10   51 1   
    24   11   12 1   
    25   12   13 1   
    26   12   52 1   
    27   12   53 1   
    28   13   14 1   
    29   13   27 1   
    30   13   54 1   
    31   14   15 1   
    32   14   55 1   
    33   14   56 1   
    34   15   16 1   
    35   16   17 2   
    36   16   18 1   
    37   18   19 1   
    38   18   57 1   
    39   18   58 1   
    40   19   20 1   
    41   19   59 1   
    42   19   60 1   
    43   20   21 1   
    44   20   61 1   
    45   20   62 1   
    46   21   22 1   
    47   21   63 1   
    48   21   64 1   
    49   22   23 1   
    50   22   65 1   
    51   22   66 1   
    52   23   24 1   
    53   23   67 1   
    54   23   68 1   
    55   24   25 1   
    56   24   69 1   
    57   24   70 1   
    58   25   26 1   
    59   25   71 1   
    60   25   72 1   
    61   26   73 1   
    62   26   74 1   
    63   26   75 1   
    64   27   28 1   
    65   28   29 2   
    66   28   30 1   
    67   30   31 1   
    68   30   76 1   
    69   30   77 1   
    70   31   32 1   
    71   31   78 1   
    72   31   79 1   
    73   32   33 1   
    74   32   80 1   
    75   32   81 1   
    76   33   34 1   
    77   33   82 1   
    78   33   83 1   
    79   34   35 1   
    80   34   84 1   
    81   34   85 1   
    82   35   36 1   
    83   35   86 1   
    84   35   87 1   
    85   36   37 1   
    86   36   88 1   
    87   36   89 1   
    88   37   38 1   
    89   37   90 1   
    90   37   91 1   
    91   38   92 1   
    92   38   93 1   
    93   38   94 1   
@<TRIPOS>SUBSTRUCTURE
     1 P1O         1 TEMP              0 ****  ****    0 ROOT
