@<TRIPOS>MOLECULE
P1O
   94    93     1     0     0
SMALL
bcc


@<TRIPOS>ATOM
      1 O1          1.4780   -5.8090   -0.5840 o         1 P1O     -0.814500
      2 O2          0.2330   -4.6960   -2.6680 o         1 P1O     -0.814500
      3 P1          0.8780   -4.6960   -1.3560 p5        1 P1O      1.438800
      4 O3          2.1320   -3.5870   -1.3580 os        1 P1O     -0.577200
      5 C1          3.4200   -4.0750   -1.2650 c3        1 P1O      0.197400
      6 C2          4.1040   -3.5940    0.0290 c3        1 P1O      0.079800
      7 N1          3.8720   -4.3920    1.2860 n4        1 P1O     -0.576800
      8 C3          4.0930   -5.8480    1.0530 c3        1 P1O      0.075433
      9 C4          4.8450   -3.9080    2.3110 c3        1 P1O      0.075433
     10 C5          2.4930   -4.1760    1.8160 c3        1 P1O      0.075433
     11 O4         -0.0180   -3.8490   -0.2760 os        1 P1O     -0.580200
     12 C6         -0.6800   -2.7510   -0.8410 c3        1 P1O      0.175400
     13 C7         -1.2710   -1.9270    0.3090 c3        1 P1O      0.135100
     14 C8         -0.1960   -1.2480    1.1550 c3        1 P1O      0.112400
     15 O5          0.5200   -0.3140    0.3340 os        1 P1O     -0.419900
     16 C9          1.8790   -0.2930    0.3900 c         1 P1O      0.664100
     17 O6          2.4680   -0.9960    1.2220 o         1 P1O     -0.610000
     18 C10         2.4730    0.6300   -0.6300 c3        1 P1O     -0.135400
     19 C11         3.7280    1.2940   -0.1080 c3        1 P1O     -0.075400
     20 C12         4.3930    2.1130   -1.1940 c3        1 P1O     -0.080400
     21 C13         5.6410    2.7960   -0.6750 c3        1 P1O     -0.078400
     22 C14         6.3110    3.6110   -1.7600 c3        1 P1O     -0.079400
     23 C15         7.5580    4.2940   -1.2430 c3        1 P1O     -0.078400
     24 C16         8.2280    5.1080   -2.3280 c3        1 P1O     -0.079400
     25 C17         9.4760    5.7930   -1.8120 c3        1 P1O     -0.079400
     26 C18        10.1470    6.6050   -2.8900 c3        1 P1O     -0.093100
     27 O7         -2.1280   -0.9600   -0.3180 os        1 P1O     -0.426900
     28 C19        -3.0960   -0.3740    0.4490 c         1 P1O      0.638100
     29 O8         -3.1660   -0.6660    1.6450 o         1 P1O     -0.555000
     30 C20        -3.9350    0.5880   -0.3340 c3        1 P1O     -0.127400
     31 C21        -5.3830    0.5250    0.1040 c3        1 P1O     -0.079400
     32 C22        -6.2000    1.5930   -0.5910 c3        1 P1O     -0.078400
     33 C23        -7.6540    1.5250   -0.1720 c3        1 P1O     -0.079400
     34 C24        -8.4730    2.5950   -0.8610 c3        1 P1O     -0.078400
     35 C25        -9.9270    2.5260   -0.4440 c3        1 P1O     -0.079400
     36 C26       -10.7470    3.5960   -1.1320 c3        1 P1O     -0.079400
     37 C27       -12.2010    3.5290   -0.7150 c3        1 P1O     -0.080400
     38 C28       -13.0220    4.5930   -1.3970 c3        1 P1O     -0.092100
     39 H1          3.4460   -5.1950   -1.3560 h1        1 P1O      0.053200
     40 H2          4.0300   -3.6160   -2.1000 h1        1 P1O      0.053200
     41 H3          5.2160   -3.5940   -0.1490 hx        1 P1O      0.091200
     42 H4          3.7480   -2.5410    0.2410 hx        1 P1O      0.091200
     43 H5          5.0430   -5.9890    0.4780 hx        1 P1O      0.100811
     44 H6          4.1640   -6.3690    2.0430 hx        1 P1O      0.100811
     45 H7          3.2180   -6.2780    0.4730 hx        1 P1O      0.100811
     46 H8          4.6510   -4.4300    3.2840 hx        1 P1O      0.100811
     47 H9          5.8900   -4.1280    1.9710 hx        1 P1O      0.100811
     48 H10         4.7130   -2.8010    2.4470 hx        1 P1O      0.100811
     49 H11         1.7430   -4.5350    1.0450 hx        1 P1O      0.100811
     50 H12         2.3700   -4.7650    2.7600 hx        1 P1O      0.100811
     51 H13         2.3380   -3.0800    2.0090 hx        1 P1O      0.100811
     52 H14        -1.4900   -3.1180   -1.5260 h1        1 P1O      0.056700
     53 H15         0.0530   -2.1350   -1.4290 h1        1 P1O      0.056700
     54 H16        -1.8770   -2.5860    0.9930 h1        1 P1O      0.087700
     55 H17         0.4880   -2.0360    1.5680 h1        1 P1O      0.074700
     56 H18        -0.6620   -0.6450    1.9780 h1        1 P1O      0.074700
     57 H19         1.7120    1.4000   -0.9270 hc        1 P1O      0.088700
     58 H20         2.7010    0.0090   -1.5390 hc        1 P1O      0.088700
     59 H21         4.4370    0.5100    0.2700 hc        1 P1O      0.049700
     60 H22         3.4720    1.9540    0.7620 hc        1 P1O      0.049700
     61 H23         3.6740    2.8850   -1.5770 hc        1 P1O      0.044700
     62 H24         4.6580    1.4500   -2.0580 hc        1 P1O      0.044700
     63 H25         6.3570    2.0250   -0.2860 hc        1 P1O      0.039700
     64 H26         5.3740    3.4630    0.1870 hc        1 P1O      0.039700
     65 H27         5.5930    4.3810   -2.1490 hc        1 P1O      0.041700
     66 H28         6.5770    2.9430   -2.6220 hc        1 P1O      0.041700
     67 H29         8.2750    3.5240   -0.8530 hc        1 P1O      0.038700
     68 H30         7.2910    4.9630   -0.3820 hc        1 P1O      0.038700
     69 H31         7.5120    5.8790   -2.7180 hc        1 P1O      0.040200
     70 H32         8.4950    4.4410   -3.1890 hc        1 P1O      0.040200
     71 H33        10.1910    5.0210   -1.4210 hc        1 P1O      0.038200
     72 H34         9.2070    6.4600   -0.9500 hc        1 P1O      0.038200
     73 H35        11.0640    7.1000   -2.4890 hc        1 P1O      0.033033
     74 H36        10.4450    5.9540   -3.7470 hc        1 P1O      0.033033
     75 H37         9.4580    7.3960   -3.2740 hc        1 P1O      0.033033
     76 H38        -3.5170    1.6150   -0.1590 hc        1 P1O      0.079200
     77 H39        -3.8440    0.3630   -1.4300 hc        1 P1O      0.079200
     78 H40        -5.8040   -0.4870   -0.1330 hc        1 P1O      0.057700
     79 H41        -5.4440    0.6580    1.2170 hc        1 P1O      0.057700
     80 H42        -5.7860    2.6060   -0.3450 hc        1 P1O      0.040700
     81 H43        -6.1230    1.4640   -1.7030 hc        1 P1O      0.040700
     82 H44        -8.0700    0.5130   -0.4220 hc        1 P1O      0.042700
     83 H45        -7.7310    1.6490    0.9400 hc        1 P1O      0.042700
     84 H46        -8.0580    3.6070   -0.6120 hc        1 P1O      0.039700
     85 H47        -8.3960    2.4710   -1.9740 hc        1 P1O      0.039700
     86 H48       -10.3420    1.5150   -0.6940 hc        1 P1O      0.040200
     87 H49       -10.0050    2.6500    0.6690 hc        1 P1O      0.040200
     88 H50       -10.3320    4.6080   -0.8820 hc        1 P1O      0.039200
     89 H51       -10.6690    3.4730   -2.2440 hc        1 P1O      0.039200
     90 H52       -12.6140    2.5160   -0.9640 hc        1 P1O      0.038700
     91 H53       -12.2760    3.6510    0.3980 hc        1 P1O      0.038700
     92 H54       -12.6400    5.6100   -1.1410 hc        1 P1O      0.032367
     93 H55       -12.9790    4.4730   -2.5070 hc        1 P1O      0.032367
     94 H56       -14.0890    4.5250   -1.0760 hc        1 P1O      0.032367
@<TRIPOS>BOND
     1    1    3 1   
     2    2    3 1   
     3    3    4 1   
     4    3   11 1   
     5    4    5 1   
     6    5    6 1   
     7    5   39 1   
     8    5   40 1   
     9    6    7 1   
    10    6   41 1   
    11    6   42 1   
    12    7    8 1   
    13    7    9 1   
    14    7   10 1   
    15    8   43 1   
    16    8   44 1   
    17    8   45 1   
    18    9   46 1   
    19    9   47 1   
    20    9   48 1   
    21   10   49 1   
    22   10   50 1   
    23   10   51 1   
    24   11   12 1   
    25   12   13 1   
    26   12   52 1   
    27   12   53 1   
    28   13   14 1   
    29   13   27 1   
    30   13   54 1   
    31   14   15 1   
    32   14   55 1   
    33   14   56 1   
    34   15   16 1   
    35   16   17 2   
    36   16   18 1   
    37   18   19 1   
    38   18   57 1   
    39   18   58 1   
    40   19   20 1   
    41   19   59 1   
    42   19   60 1   
    43   20   21 1   
    44   20   61 1   
    45   20   62 1   
    46   21   22 1   
    47   21   63 1   
    48   21   64 1   
    49   22   23 1   
    50   22   65 1   
    51   22   66 1   
    52   23   24 1   
    53   23   67 1   
    54   23   68 1   
    55   24   25 1   
    56   24   69 1   
    57   24   70 1   
    58   25   26 1   
    59   25   71 1   
    60   25   72 1   
    61   26   73 1   
    62   26   74 1   
    63   26   75 1   
    64   27   28 1   
    65   28   29 2   
    66   28   30 1   
    67   30   31 1   
    68   30   76 1   
    69   30   77 1   
    70   31   32 1   
    71   31   78 1   
    72   31   79 1   
    73   32   33 1   
    74   32   80 1   
    75   32   81 1   
    76   33   34 1   
    77   33   82 1   
    78   33   83 1   
    79   34   35 1   
    80   34   84 1   
    81   34   85 1   
    82   35   36 1   
    83   35   86 1   
    84   35   87 1   
    85   36   37 1   
    86   36   88 1   
    87   36   89 1   
    88   37   38 1   
    89   37   90 1   
    90   37   91 1   
    91   38   92 1   
    92   38   93 1   
    93   38   94 1   
@<TRIPOS>SUBSTRUCTURE
     1 P1O         1 TEMP              0 ****  ****    0 ROOT
