@<TRIPOS>MOLECULE
P1P
   14    13     1     0     0
SMALL
bcc


@<TRIPOS>ATOM
      1 P           1.8980    0.0070    0.0040 p3        1 P1P      2.400000
      2 OP1         2.9930    0.9480    0.1420 o         1 P1P     -1.004000
      3 OP2         1.9330   -1.4290   -0.1970 o         1 P1P     -1.004000
      4 O5'         0.4780    0.6600    0.0870 os        1 P1P     -0.726000
      5 C5'        -0.6370   -0.2390   -0.0460 c3        1 P1P      0.034000
      6 C4'        -1.9200    0.5310    0.0550 c3        1 P1P     -0.258000
      7 C3'        -3.1510   -0.4380   -0.0890 c3        1 P1P      0.203000
      8 O3'        -4.2980    0.1800   -0.0090 o         1 P1P     -0.716000
      9 H5'        -0.5230   -0.7490   -1.0400 h1        1 P1P      0.066000
     10 H5''       -0.5330   -1.0030    0.7710 h1        1 P1P      0.066000
     11 H4'1       -1.9860    1.0520    1.0390 hc        1 P1P      0.071000
     12 H4'2       -1.9750    1.3030   -0.7490 hc        1 P1P      0.071000
     13 H3'1       -2.9810   -1.2400    0.7150 h1        1 P1P     -0.102000
     14 H3'2       -2.9700   -0.9880   -1.0800 h1        1 P1P     -0.102000
@<TRIPOS>BOND
     1    1    2 1   
     2    1    3 1   
     3    1    4 1   
     4    4    5 1   
     5    5    6 1   
     6    5    9 1   
     7    5   10 1   
     8    6    7 1   
     9    6   11 1   
    10    6   12 1   
    11    7    8 1   
    12    7   13 1   
    13    7   14 1   
@<TRIPOS>SUBSTRUCTURE
     1 P1P         1 TEMP              0 ****  ****    0 ROOT
