@<TRIPOS>MOLECULE
P1P
   14    12     1     0     0
SMALL
bcc


@<TRIPOS>ATOM
      1 P           1.3020    1.2030    2.2840 p2        1 P1P      2.045600
      2 OP1         2.8830    1.2030    2.2840 os        1 P1P     -1.011000
      3 OP2         0.5620    1.2030    3.5660 o         1 P1P     -0.865500
      4 O5'         0.5120    1.2030    0.9150 os        1 P1P     -0.574900
      5 C5'         0.1830   -0.0360    0.3300 c3        1 P1P      0.184400
      6 C4'        -0.5650    0.2010   -0.9640 c3        1 P1P     -0.179400
      7 C3'        -0.9180   -1.1290   -1.5930 c3        1 P1P      0.443100
      8 O3'        -1.6130   -0.9090   -2.7980 o         1 P1P     -0.877500
      9 H5'         1.0000   -0.5360    0.1470 h1        1 P1P      0.026700
     10 H5''       -0.3810   -0.5450    0.9430 h1        1 P1P      0.026700
     11 H4'1       -1.3830    0.7010   -0.7810 hc        1 P1P      0.031700
     12 H4'2       -0.0010    0.7110   -1.5770 hc        1 P1P      0.031700
     13 H3'1       -1.4810   -1.6390   -0.9800 h1        1 P1P     -0.141300
     14 H3'2       -0.1000   -1.6290   -1.7760 h1        1 P1P     -0.141300
@<TRIPOS>BOND
     1    1    3 2   
     2    1    4 1   
     3    4    5 1   
     4    5    6 1   
     5    5    9 1   
     6    5   10 1   
     7    6    7 1   
     8    6   11 1   
     9    6   12 1   
    10    7    8 1   
    11    7   13 1   
    12    7   14 1   
@<TRIPOS>SUBSTRUCTURE
     1 P1P         1 TEMP              0 ****  ****    0 ROOT
