@<TRIPOS>MOLECULE
P1R
   10     7     1     0     0
SMALL
bcc


@<TRIPOS>ATOM
      1 C5         -0.5610   -0.0000   -0.9710 c1        1 P1R     -0.079000
      2 C6          0.8040   -0.0000   -0.9710 c1        1 P1R      0.345300
      3 N1          1.4740   -0.0000    0.1910 n1        1 P1R     -0.490800
      4 C4         -1.2420   -0.0000    0.2120 c1        1 P1R     -0.079000
      5 N3         -0.5700   -0.0000    1.3720 n1        1 P1R     -0.490800
      6 C2          0.7920   -0.0000    1.3710 c1        1 P1R      0.345300
      7 H5         -1.0500    0.0000   -1.8160 ha        1 P1R      0.103000
      8 H6          1.2920    0.0000   -1.8160 ha        1 P1R      0.122000
      9 H4         -2.2190   -0.0000    0.2130 ha        1 P1R      0.103000
     10 H2          1.2810    0.0000    2.2160 ha        1 P1R      0.122000
@<TRIPOS>BOND
     1    1    4 3   
     2    1    7 1   
     3    2    3 3   
     4    2    8 1   
     5    4    9 1   
     6    5    6 3   
     7    6   10 1   
@<TRIPOS>SUBSTRUCTURE
     1 P1R         1 TEMP              0 ****  ****    0 ROOT
