@<TRIPOS>MOLECULE
P1R
   10    10     1     0     0
SMALL
bcc


@<TRIPOS>ATOM
      1 C5         -0.0010   -1.3940    0.0010 ca        1 P1R     -0.363600
      2 C6          1.2000   -0.6570    0.0010 ca        1 P1R      0.425200
      3 N1          1.2180    0.6920    0.0000 nb        1 P1R     -0.691000
      4 C4         -1.2000   -0.6560    0.0000 ca        1 P1R      0.425200
      5 N3         -1.2170    0.6930   -0.0000 nb        1 P1R     -0.691000
      6 C2          0.0010    1.3010   -0.0000 ca        1 P1R      0.626900
      7 H5         -0.0010   -2.4900    0.0010 ha        1 P1R      0.155000
      8 H6          2.1830   -1.1600    0.0010 h4        1 P1R      0.029100
      9 H4         -2.1840   -1.1580    0.0000 h4        1 P1R      0.029100
     10 H2          0.0010    2.4110   -0.0010 h5        1 P1R      0.056100
@<TRIPOS>BOND
     1    1    2 ar  
     2    1    4 ar  
     3    1    7 1   
     4    2    3 ar  
     5    2    8 1   
     6    3    6 ar  
     7    4    5 ar  
     8    4    9 1   
     9    5    6 ar  
    10    6   10 1   
@<TRIPOS>SUBSTRUCTURE
     1 P1R         1 TEMP              0 ****  ****    0 ROOT
