@<TRIPOS>MOLECULE
P1S
   37    37     1     0     0
SMALL
bcc


@<TRIPOS>ATOM
      1 C1         -0.0310    0.0070   -1.3930 c3        1 P1S     -0.004000
      2 O1          1.4780    0.0070   -1.3930 os        1 P1S     -0.198000
      3 C2          2.0800    0.0070   -0.1980 c2        1 P1S      0.079000
      4 C3          1.3560   -0.1810    0.7750 c1        1 P1S     -0.147000
      5 C4         -0.1380   -0.5840    0.4660 c2        1 P1S      0.044000
      6 C5         -0.4810   -0.6040   -0.7860 c3        1 P1S      0.095000
      7 C6          3.4870    0.2810   -0.0130 c2        1 P1S     -0.153000
      8 C7          4.0080    0.3300    1.2350 c1        1 P1S     -0.048000
      9 C8          3.2280    0.1270    2.2840 c1        1 P1S     -0.129000
     10 C9          1.9060   -0.1300    2.1040 c2        1 P1S     -0.078000
     11 O2         -0.9570    0.2690    1.0550 os        1 P1S     -0.194000
     12 C10        -1.8700    0.3600    0.3570 c2        1 P1S      0.092000
     13 C11        -1.5470   -0.4010   -0.8240 c2        1 P1S     -0.223000
     14 C12        -3.1790    0.8240    0.5540 c1        1 P1S     -0.135000
     15 C13        -4.1870    0.5430   -0.4110 c1        1 P1S      0.009500
     16 C14        -3.8700   -0.2040   -1.5700 c1        1 P1S      0.009500
     17 C15        -2.5430   -0.6760   -1.7730 c1        1 P1S     -0.037000
     18 O3         -5.5720    0.8590   -0.4590 os        1 P1S     -0.214000
     19 C16        -6.1090    0.2930   -1.6390 c3        1 P1S      0.100000
     20 O4         -5.0600   -0.3510   -2.3340 os        1 P1S     -0.214000
     21 O5         -0.2710   -1.9210   -1.2680 oh        1 P1S     -0.303000
     22 C17         5.4230    0.8260    1.5040 c3        1 P1S      0.016000
     23 O6          6.2560   -0.2700    1.8080 oh        1 P1S     -0.325000
     24 H11        -0.3280   -0.2020   -2.2990 h1        1 P1S      0.117500
     25 H12A       -0.3280    0.9120   -1.1800 h1        1 P1S      0.117500
     26 H4         -0.2990   -1.4710    0.8400 h4        1 P1S      0.131000
     27 H6          4.0610    0.4300   -0.7880 ha        1 P1S      0.149000
     28 H8          3.6010    0.1620    3.1850 ha        1 P1S      0.159000
     29 H9          1.3280   -0.2800    2.8770 ha        1 P1S      0.147000
     30 H12        -3.3970    1.3450    1.3500 ha        1 P1S      0.176000
     31 H15        -2.3240   -1.1860   -2.5760 ha        1 P1S      0.165000
     32 H161       -6.7990   -0.3570   -1.4070 h2        1 P1S      0.114000
     33 H162       -6.4920    0.9960   -2.1970 h2        1 P1S      0.114000
     34 HO5        -0.7010   -2.4980   -0.7480 ho        1 P1S      0.211000
     35 H171        5.4130    1.4460    2.2580 h1        1 P1S      0.075500
     36 H172        5.7640    1.2840    0.7110 h1        1 P1S      0.075500
     37 HO6         7.0950    0.0090    1.8920 ho        1 P1S      0.204000
@<TRIPOS>BOND
     1    1    2 1   
     2    1    6 1   
     3    1   24 1   
     4    1   25 1   
     5    2    3 1   
     6    3    4 1   
     7    3    7 1   
     8    4   10 1   
     9    5    6 1   
    10    5   11 1   
    11    5   26 1   
    12    6   13 1   
    13    6   21 1   
    14    7    8 1   
    15    7   27 1   
    16    8   22 1   
    17    9   10 1   
    18    9   28 1   
    19   10   29 1   
    20   11   12 1   
    21   12   13 1   
    22   12   14 1   
    23   13   17 1   
    24   14   30 1   
    25   15   16 1   
    26   15   18 1   
    27   16   20 1   
    28   17   31 1   
    29   18   19 1   
    30   19   20 1   
    31   19   32 1   
    32   19   33 1   
    33   21   34 1   
    34   22   23 1   
    35   22   35 1   
    36   22   36 1   
    37   23   37 1   
@<TRIPOS>SUBSTRUCTURE
     1 P1S         1 TEMP              0 ****  ****    0 ROOT
