@<TRIPOS>MOLECULE
P1S
   37    41     1     0     0
SMALL
bcc


@<TRIPOS>ATOM
      1 C1          0.1130   -0.3280   -0.3870 c3        1 P1S      0.114400
      2 O1          1.5040   -0.0970   -0.1630 os        1 P1S     -0.314900
      3 C2          1.8490   -0.0680    1.1790 ca        1 P1S      0.124100
      4 C3          1.2220   -0.8990    2.1200 ca        1 P1S     -0.153300
      5 C4          0.1970   -1.8860    1.6890 c3        1 P1S      0.199400
      6 C5         -0.4110   -1.6080    0.2710 c3        1 P1S      0.169100
      7 C6          2.8890    0.7950    1.5470 ca        1 P1S     -0.152000
      8 C7          3.2970    0.8330    2.8830 ca        1 P1S     -0.055300
      9 C8          2.6580    0.0310    3.8350 ca        1 P1S     -0.129000
     10 C9          1.6300   -0.8280    3.4550 ca        1 P1S     -0.077000
     11 O2         -0.9100   -1.8930    2.6480 os        1 P1S     -0.308900
     12 C10        -2.0830   -1.6730    1.9510 ca        1 P1S      0.148100
     13 C11        -1.8870   -1.5020    0.5620 ca        1 P1S     -0.223300
     14 C12        -3.3390   -1.6360    2.5770 ca        1 P1S     -0.133000
     15 C13        -4.3860   -1.4140    1.6980 ca        1 P1S      0.100100
     16 C14        -4.2020   -1.2420    0.2990 ca        1 P1S      0.013100
     17 C15        -2.9580   -1.2810   -0.3060 ca        1 P1S     -0.052000
     18 O3         -5.7390   -1.3230    1.9960 os        1 P1S     -0.329900
     19 C16        -6.4310   -1.0880    0.7450 c3        1 P1S      0.322200
     20 O4         -5.4420   -1.0400   -0.3060 os        1 P1S     -0.333900
     21 O5         -0.0840   -2.7440   -0.5140 oh        1 P1S     -0.574800
     22 C17         4.4200    1.7480    3.2490 c3        1 P1S      0.173700
     23 O6          4.6100    1.7270    4.6570 oh        1 P1S     -0.597800
     24 H11        -0.4700    0.5560   -0.0150 h1        1 P1S      0.069700
     25 H12A        0.0430   -0.4030   -1.5050 h1        1 P1S      0.069700
     26 H4          0.6200   -2.9300    1.7180 h1        1 P1S      0.109700
     27 H6          3.3710    1.4220    0.7840 ha        1 P1S      0.148000
     28 H8          2.9760    0.0830    4.8890 ha        1 P1S      0.159000
     29 H9          1.1270   -1.4600    4.2040 ha        1 P1S      0.148000
     30 H12        -3.4690   -1.7720    3.6560 ha        1 P1S      0.177000
     31 H15        -2.8250   -1.1480   -1.3870 ha        1 P1S      0.155000
     32 H161       -7.1190   -1.9480    0.5530 h2        1 P1S      0.074700
     33 H162       -6.9410   -0.0950    0.8040 h2        1 P1S      0.074700
     34 HO5        -0.6490   -2.7190   -1.2970 ho        1 P1S      0.410000
     35 H171        4.1810    2.7960    2.9160 h1        1 P1S      0.035700
     36 H172        5.3620    1.4100    2.7350 h1        1 P1S      0.035700
     37 HO6         5.3470    2.3220    4.8370 ho        1 P1S      0.405000
@<TRIPOS>BOND
     1    1    2 1   
     2    1    6 1   
     3    1   24 1   
     4    1   25 1   
     5    2    3 1   
     6    3    4 ar  
     7    3    7 ar  
     8    4    5 1   
     9    4   10 ar  
    10    5    6 1   
    11    5   11 1   
    12    5   26 1   
    13    6   13 1   
    14    6   21 1   
    15    7    8 ar  
    16    7   27 1   
    17    8    9 ar  
    18    8   22 1   
    19    9   10 ar  
    20    9   28 1   
    21   10   29 1   
    22   11   12 1   
    23   12   13 ar  
    24   12   14 ar  
    25   13   17 ar  
    26   14   15 ar  
    27   14   30 1   
    28   15   16 ar  
    29   15   18 1   
    30   16   17 ar  
    31   16   20 1   
    32   17   31 1   
    33   18   19 1   
    34   19   20 1   
    35   19   32 1   
    36   19   33 1   
    37   21   34 1   
    38   22   23 1   
    39   22   35 1   
    40   22   36 1   
    41   23   37 1   
@<TRIPOS>SUBSTRUCTURE
     1 P1S         1 TEMP              0 ****  ****    0 ROOT
