@<TRIPOS>MOLECULE
P1S
   37    41     1     0     0
SMALL
bcc


@<TRIPOS>ATOM
      1 C1          0.3020    1.9390    0.5430 c3        1 P1S      0.114400
      2 O1          1.7200    2.0720    0.4650 os        1 P1S     -0.314900
      3 C2          2.3740    0.8780    0.2090 ca        1 P1S      0.124100
      4 C3          1.8180   -0.1010   -0.6310 ca        1 P1S     -0.153300
      5 C4          0.5250    0.1440   -1.3200 c3        1 P1S      0.199400
      6 C5         -0.3260    1.3080   -0.7040 c3        1 P1S      0.169100
      7 C6          3.6390    0.7110    0.7850 ca        1 P1S     -0.152000
      8 C7          4.3520   -0.4630    0.5260 ca        1 P1S     -0.055300
      9 C8          3.7950   -1.4590   -0.2840 ca        1 P1S     -0.129000
     10 C9          2.5390   -1.2770   -0.8580 ca        1 P1S     -0.077000
     11 O2         -0.2930   -1.0700   -1.2730 os        1 P1S     -0.308900
     12 C10        -1.5190   -0.7410   -0.7240 ca        1 P1S      0.148100
     13 C11        -1.6260    0.6220   -0.3680 ca        1 P1S     -0.223300
     14 C12        -2.5460   -1.6810   -0.5510 ca        1 P1S     -0.133000
     15 C13        -3.6950   -1.1450    0.0060 ca        1 P1S      0.100100
     16 C14        -3.8170    0.2250    0.3660 ca        1 P1S      0.013100
     17 C15        -2.7950    1.1430    0.1910 ca        1 P1S     -0.052000
     18 O3         -4.8810   -1.8020    0.3030 os        1 P1S     -0.329900
     19 C16        -5.7800   -0.8170    0.8670 c3        1 P1S      0.322200
     20 O4         -5.0860    0.4500    0.8960 os        1 P1S     -0.333900
     21 O5         -0.4610    2.2710   -1.7380 oh        1 P1S     -0.574800
     22 C17         5.7060   -0.6120    1.1390 c3        1 P1S      0.173700
     23 O6          6.2180   -1.9050    0.8520 oh        1 P1S     -0.597800
     24 H11        -0.0490    2.9990    0.6660 h1        1 P1S      0.069700
     25 H12A        0.0390    1.3310    1.4490 h1        1 P1S      0.069700
     26 H4          0.6950    0.3440   -2.4160 h1        1 P1S      0.109700
     27 H6          4.0540    1.5010    1.4260 ha        1 P1S      0.148000
     28 H8          4.3590   -2.3870   -0.4660 ha        1 P1S      0.159000
     29 H9          2.1000   -2.0600   -1.4960 ha        1 P1S      0.148000
     30 H12        -2.4420   -2.7340   -0.8340 ha        1 P1S      0.177000
     31 H15        -2.8980    2.1970    0.4710 ha        1 P1S      0.155000
     32 H161       -6.6700   -0.7240    0.1960 h2        1 P1S      0.074700
     33 H162       -6.0240   -1.1180    1.9150 h2        1 P1S      0.074700
     34 HO5        -1.1760    2.8660   -1.4780 ho        1 P1S      0.410000
     35 H171        5.6380   -0.4720    2.2540 h1        1 P1S      0.035700
     36 H172        6.3970    0.1700    0.7170 h1        1 P1S      0.035700
     37 HO6         7.0910   -1.9450    1.2590 ho        1 P1S      0.405000
@<TRIPOS>BOND
     1    1    2 1   
     2    1    6 1   
     3    1   24 1   
     4    1   25 1   
     5    2    3 1   
     6    3    4 ar  
     7    3    7 ar  
     8    4    5 1   
     9    4   10 ar  
    10    5    6 1   
    11    5   11 1   
    12    5   26 1   
    13    6   13 1   
    14    6   21 1   
    15    7    8 ar  
    16    7   27 1   
    17    8    9 ar  
    18    8   22 1   
    19    9   10 ar  
    20    9   28 1   
    21   10   29 1   
    22   11   12 1   
    23   12   13 ar  
    24   12   14 ar  
    25   13   17 ar  
    26   14   15 ar  
    27   14   30 1   
    28   15   16 ar  
    29   15   18 1   
    30   16   17 ar  
    31   16   20 1   
    32   17   31 1   
    33   18   19 1   
    34   19   20 1   
    35   19   32 1   
    36   19   33 1   
    37   21   34 1   
    38   22   23 1   
    39   22   35 1   
    40   22   36 1   
    41   23   37 1   
@<TRIPOS>SUBSTRUCTURE
     1 P1S         1 TEMP              0 ****  ****    0 ROOT
