@<TRIPOS>MOLECULE
P1S
   37    41     1     0     0
SMALL
bcc


@<TRIPOS>ATOM
      1 C1          0.1060   -0.2960   -0.3840 c3        1 P1S      0.114400
      2 O1          1.4960   -0.0630   -0.1610 os        1 P1S     -0.314900
      3 C2          1.8460   -0.0520    1.1800 ca        1 P1S      0.124100
      4 C3          1.2250   -0.9000    2.1110 ca        1 P1S     -0.153300
      5 C4          0.2030   -1.8840    1.6680 c3        1 P1S      0.199400
      6 C5         -0.4110   -1.5890    0.2560 c3        1 P1S      0.169100
      7 C6          2.8830    0.8090    1.5570 ca        1 P1S     -0.152000
      8 C7          3.2950    0.8290    2.8930 ca        1 P1S     -0.055300
      9 C8          2.6630    0.0110    3.8350 ca        1 P1S     -0.129000
     10 C9          1.6370   -0.8470    3.4450 ca        1 P1S     -0.077000
     11 O2         -0.9010   -1.9100    2.6310 os        1 P1S     -0.308900
     12 C10        -2.0780   -1.6860    1.9400 ca        1 P1S      0.148100
     13 C11        -1.8860   -1.4930    0.5540 ca        1 P1S     -0.223300
     14 C12        -3.3320   -1.6630    2.5710 ca        1 P1S     -0.133000
     15 C13        -4.3830   -1.4330    1.6980 ca        1 P1S      0.100100
     16 C14        -4.2030   -1.2400    0.3010 ca        1 P1S      0.013100
     17 C15        -2.9610   -1.2650   -0.3080 ca        1 P1S     -0.052000
     18 O3         -5.7350   -1.3530    2.0010 os        1 P1S     -0.329900
     19 C16        -6.4320   -1.1030    0.7570 c3        1 P1S      0.322200
     20 O4         -5.4460   -1.0350   -0.2970 os        1 P1S     -0.333900
     21 O5         -0.0820   -2.7120   -0.5470 oh        1 P1S     -0.574800
     22 C17         4.4150    1.7430    3.2680 c3        1 P1S      0.173700
     23 O6          4.6130    1.7000    4.6740 oh        1 P1S     -0.597800
     24 H11         0.0330   -0.3560   -1.5030 h1        1 P1S      0.069700
     25 H12A       -0.4800    0.5790    0.0020 h1        1 P1S      0.069700
     26 H4          0.6300   -2.9270    1.6810 h1        1 P1S      0.109700
     27 H6          3.3600    1.4500    0.8020 ha        1 P1S      0.148000
     28 H8          2.9850    0.0480    4.8880 ha        1 P1S      0.159000
     29 H9          1.1390   -1.4920    4.1860 ha        1 P1S      0.148000
     30 H12        -3.4570   -1.8150    3.6480 ha        1 P1S      0.177000
     31 H15        -2.8320   -1.1150   -1.3870 ha        1 P1S      0.155000
     32 H161       -7.1160   -1.9630    0.5540 h2        1 P1S      0.074700
     33 H162       -6.9460   -0.1130    0.8310 h2        1 P1S      0.074700
     34 HO5        -0.6490   -2.6770   -1.3270 ho        1 P1S      0.410000
     35 H171        5.3570    1.4190    2.7440 h1        1 P1S      0.035700
     36 H172        4.1690    2.7960    2.9540 h1        1 P1S      0.035700
     37 HO6         5.3480    2.2960    4.8610 ho        1 P1S      0.405000
@<TRIPOS>BOND
     1    1    2 1   
     2    1    6 1   
     3    1   24 1   
     4    1   25 1   
     5    2    3 1   
     6    3    4 ar  
     7    3    7 ar  
     8    4    5 1   
     9    4   10 ar  
    10    5    6 1   
    11    5   11 1   
    12    5   26 1   
    13    6   13 1   
    14    6   21 1   
    15    7    8 ar  
    16    7   27 1   
    17    8    9 ar  
    18    8   22 1   
    19    9   10 ar  
    20    9   28 1   
    21   10   29 1   
    22   11   12 1   
    23   12   13 ar  
    24   12   14 ar  
    25   13   17 ar  
    26   14   15 ar  
    27   14   30 1   
    28   15   16 ar  
    29   15   18 1   
    30   16   17 ar  
    31   16   20 1   
    32   17   31 1   
    33   18   19 1   
    34   19   20 1   
    35   19   32 1   
    36   19   33 1   
    37   21   34 1   
    38   22   23 1   
    39   22   35 1   
    40   22   36 1   
    41   23   37 1   
@<TRIPOS>SUBSTRUCTURE
     1 P1S         1 TEMP              0 ****  ****    0 ROOT
