@<TRIPOS>MOLECULE
P1T
   34    34     1     0     0
SMALL
bcc


@<TRIPOS>ATOM
      1 OP1         0.4110   -0.4470    0.6970 o         1 P1T     -0.840000
      2 P           1.8870   -0.5230    0.6590 p5        1 P1T      1.424800
      3 OP2         2.7590   -1.3820    1.4860 o         1 P1T     -0.840000
      4 OP3         2.3420    1.0400    0.8460 oh        1 P1T     -0.784400
      5 OP4         2.3510   -0.6860   -0.9160 os        1 P1T     -0.574200
      6 C5A         3.7190   -0.8390   -1.1550 c3        1 P1T      0.229700
      7 C5          4.0400   -2.1740   -1.7700 ca        1 P1T     -0.149600
      8 C6          4.2330   -3.2760   -0.9040 ca        1 P1T      0.352200
      9 N1          4.5610   -4.5100   -1.3130 nb        1 P1T     -0.675000
     10 C2          4.7150   -4.7150   -2.6410 ca        1 P1T      0.331600
     11 C2A         5.0760   -6.0700   -3.1550 c3        1 P1T     -0.118400
     12 C3          4.5320   -3.6700   -3.5910 ca        1 P1T      0.035800
     13 O3A         4.6810   -4.0340   -4.9010 oh        1 P1T     -0.535100
     14 C4          4.1820   -2.3750   -3.1490 ca        1 P1T     -0.096300
     15 C4A         3.9010   -1.2790   -4.1350 c3        1 P1T      0.189100
     16 N           5.0290   -0.4000   -4.4230 nu        1 P1T     -0.698000
     17 CA          6.0810   -0.9850   -5.2020 ce        1 P1T     -0.036200
     18 CB          7.2720   -1.2950   -4.6680 c2        1 P1T     -0.229000
     19 C           5.8280   -1.2230   -6.6940 c         1 P1T      0.883800
     20 OXT         4.8450   -1.9650   -7.0020 o         1 P1T     -0.839300
     21 O           6.5890   -0.6810   -7.5400 o         1 P1T     -0.839300
     22 H5A1        4.2880   -0.7420   -0.1850 h1        1 P1T      0.041700
     23 H5A2        4.0450   -0.0160   -1.8530 h1        1 P1T      0.041700
     24 H6          4.0990   -3.1390    0.1890 h4        1 P1T      0.055100
     25 H2A1        5.9310   -5.9740   -3.8700 hc        1 P1T      0.033367
     26 H2A2        5.3600   -6.7740   -2.3360 hc        1 P1T      0.033367
     27 H2A3        4.2050   -6.4940   -3.7130 hc        1 P1T      0.033367
     28 HO3A        4.7410   -3.2330   -5.4670 ho        1 P1T      0.482000
     29 H4A1        3.4830   -1.7430   -5.0810 h1        1 P1T      0.058700
     30 H4A2        3.0870   -0.6270   -3.6960 h1        1 P1T      0.058700
     31 HN          4.6700    0.3780   -4.9550 hn        1 P1T      0.353800
     32 HB1         7.5150   -1.1790   -3.6060 ha        1 P1T      0.099500
     33 HB2         8.0720   -1.6910   -5.3050 ha        1 P1T      0.099500
     34 H2          1.6420    1.6370    0.6130 ho        1 P1T      0.419000
@<TRIPOS>BOND
     1    1    2 1   
     2    2    3 1   
     3    2    4 1   
     4    2    5 1   
     5    4   34 1   
     6    5    6 1   
     7    6    7 1   
     8    6   22 1   
     9    6   23 1   
    10    7    8 ar  
    11    7   14 ar  
    12    8    9 ar  
    13    8   24 1   
    14    9   10 ar  
    15   10   11 1   
    16   10   12 ar  
    17   11   25 1   
    18   11   26 1   
    19   11   27 1   
    20   12   13 1   
    21   12   14 ar  
    22   13   28 1   
    23   14   15 1   
    24   15   16 1   
    25   15   29 1   
    26   15   30 1   
    27   16   17 1   
    28   16   31 1   
    29   17   18 2   
    30   17   19 1   
    31   18   32 1   
    32   18   33 1   
    33   19   20 1   
    34   19   21 1   
@<TRIPOS>SUBSTRUCTURE
     1 P1T         1 TEMP              0 ****  ****    0 ROOT
