@<TRIPOS>MOLECULE
P1T
   34    34     1     0     0
SMALL
bcc


@<TRIPOS>ATOM
      1 OP1         0.6140   -0.3090    0.8490 o         1 P1T     -0.840000
      2 P           2.0850   -0.3910    0.7340 p5        1 P1T      1.424800
      3 OP2         3.0000   -1.2240    1.5420 o         1 P1T     -0.840000
      4 OP3         2.5520    1.1760    0.8400 oh        1 P1T     -0.784400
      5 OP4         2.4630   -0.6120   -0.8580 os        1 P1T     -0.574200
      6 C5A         3.8160   -0.7770   -1.1650 c3        1 P1T      0.229700
      7 C5          4.1020   -2.1330   -1.7490 ca        1 P1T     -0.149600
      8 C6          4.3410   -3.2040   -0.8560 ca        1 P1T      0.352200
      9 N1          4.6460   -4.4520   -1.2380 nb        1 P1T     -0.675000
     10 C2          4.7270   -4.7050   -2.5650 ca        1 P1T      0.330600
     11 C2A         5.0580   -6.0780   -3.0490 c3        1 P1T     -0.118400
     12 C3          4.4930   -3.6930   -3.5400 ca        1 P1T      0.035800
     13 O3A         4.5710   -4.1040   -4.8420 oh        1 P1T     -0.535100
     14 C4          4.1690   -2.3820   -3.1250 ca        1 P1T     -0.096300
     15 C4A         3.8360   -1.3210   -4.1330 c3        1 P1T      0.189100
     16 N           4.9480   -0.4570   -4.5130 nh        1 P1T     -0.698000
     17 CA          5.9540   -1.0710   -5.3270 ce        1 P1T     -0.036200
     18 CB          7.1730   -1.3650   -4.8490 c2        1 P1T     -0.229000
     19 C           5.6200   -1.3600   -6.7940 c         1 P1T      0.883800
     20 OXT         6.3320   -0.8490   -7.6990 o         1 P1T     -0.839300
     21 O           4.6210   -2.1110   -7.0210 o         1 P1T     -0.839300
     22 H5A1        4.1040    0.0210   -1.9090 h1        1 P1T      0.041700
     23 H5A2        4.4370   -0.6470   -0.2310 h1        1 P1T      0.041700
     24 H6          4.2660   -3.0290    0.2370 h4        1 P1T      0.055100
     25 H2A1        5.8740   -6.0100   -3.8120 hc        1 P1T      0.033367
     26 H2A2        4.1580   -6.5190   -3.5450 hc        1 P1T      0.033367
     27 H2A3        5.3840   -6.7540   -2.2230 hc        1 P1T      0.033367
     28 HO3A        4.6000   -3.3240   -5.4390 ho        1 P1T      0.482000
     29 H4A1        3.3670   -1.8170   -5.0380 h1        1 P1T      0.058700
     30 H4A2        3.0480   -0.6520   -3.6740 h1        1 P1T      0.058700
     31 HN          1.8410    1.7660    0.6240 ho        1 P1T      0.419000
     32 HB1         7.4740   -1.2130   -3.8070 ha        1 P1T      0.099500
     33 HB2         7.9360   -1.7860   -5.5160 ha        1 P1T      0.099500
     34 H2          4.5610    0.3040   -5.0500 hn        1 P1T      0.353800
@<TRIPOS>BOND
     1    1    2 1   
     2    2    3 1   
     3    2    4 1   
     4    2    5 1   
     5    4   31 1   
     6    5    6 1   
     7    6    7 1   
     8    6   22 1   
     9    6   23 1   
    10    7    8 ar  
    11    7   14 ar  
    12    8    9 ar  
    13    8   24 1   
    14    9   10 ar  
    15   10   11 1   
    16   10   12 ar  
    17   11   25 1   
    18   11   26 1   
    19   11   27 1   
    20   12   13 1   
    21   12   14 ar  
    22   13   28 1   
    23   14   15 1   
    24   15   16 1   
    25   15   29 1   
    26   15   30 1   
    27   16   17 1   
    28   16   34 1   
    29   17   18 2   
    30   17   19 1   
    31   18   32 1   
    32   18   33 1   
    33   19   20 1   
    34   19   21 1   
@<TRIPOS>SUBSTRUCTURE
     1 P1T         1 TEMP              0 ****  ****    0 ROOT
