@<TRIPOS>MOLECULE
P1T
   34    34     1     0     0
SMALL
bcc


@<TRIPOS>ATOM
      1 OP1         0.5810   -0.2450    0.7820 o         1 P1T     -0.840000
      2 P           2.0500   -0.3820    0.7070 p5        1 P1T      1.424800
      3 OP2         2.9080   -1.2690    1.5190 o         1 P1T     -0.840000
      4 OP3         2.5750    1.1620    0.8630 oh        1 P1T     -0.784400
      5 OP4         2.4650   -0.5810   -0.8790 os        1 P1T     -0.574200
      6 C5A         3.8180   -0.7930   -1.1530 c3        1 P1T      0.229700
      7 C5          4.0670   -2.1460   -1.7600 ca        1 P1T     -0.149600
      8 C6          4.2380   -3.2460   -0.8870 ca        1 P1T      0.352200
      9 N1          4.5030   -4.4970   -1.2900 nb        1 P1T     -0.675000
     10 C2          4.6130   -4.7230   -2.6200 ca        1 P1T      0.331600
     11 C2A         4.9040   -6.0960   -3.1270 c3        1 P1T     -0.118400
     12 C3          4.4470   -3.6800   -3.5770 ca        1 P1T      0.035800
     13 O3A         4.5460   -4.0640   -4.8860 oh        1 P1T     -0.535100
     14 C4          4.1630   -2.3670   -3.1400 ca        1 P1T     -0.096300
     15 C4A         3.9010   -1.2710   -4.1310 c3        1 P1T      0.189100
     16 N           5.0570   -0.4430   -4.4590 nh        1 P1T     -0.697000
     17 CA          6.0630   -1.0790   -5.2560 ce        1 P1T     -0.036200
     18 CB          7.2540   -1.4320   -4.7480 c2        1 P1T     -0.229000
     19 C           5.7640   -1.3230   -6.7380 c         1 P1T      0.883800
     20 OXT         4.7410   -2.0230   -7.0130 o         1 P1T     -0.839300
     21 O           6.5270   -0.8260   -7.6100 o         1 P1T     -0.839300
     22 H5A1        4.4170   -0.7100   -0.1990 h1        1 P1T      0.041700
     23 H5A2        4.1590    0.0090   -1.8680 h1        1 P1T      0.041700
     24 H6          4.1380   -3.0930    0.2080 h4        1 P1T      0.055100
     25 H2A1        5.7410   -6.0430   -3.8670 hc        1 P1T      0.033367
     26 H2A2        5.1810   -6.8030   -2.3090 hc        1 P1T      0.033367
     27 H2A3        4.0000   -6.4900   -3.6560 hc        1 P1T      0.033367
     28 HO3A        4.6240   -3.2720   -5.4620 ho        1 P1T      0.482000
     29 H4A1        3.4390   -1.7270   -5.0600 h1        1 P1T      0.058700
     30 H4A2        3.1280   -0.5810   -3.6780 h1        1 P1T      0.058700
     31 HN          4.7160    0.3430   -4.9910 hn        1 P1T      0.353800
     32 HB1         7.5280   -1.3150   -3.6930 ha        1 P1T      0.099500
     33 HB2         8.0200   -1.8680   -5.4000 ha        1 P1T      0.099500
     34 H2          1.8930    1.7850    0.6420 ho        1 P1T      0.419000
@<TRIPOS>BOND
     1    1    2 1   
     2    2    3 1   
     3    2    4 1   
     4    2    5 1   
     5    4   34 1   
     6    5    6 1   
     7    6    7 1   
     8    6   22 1   
     9    6   23 1   
    10    7    8 ar  
    11    7   14 ar  
    12    8    9 ar  
    13    8   24 1   
    14    9   10 ar  
    15   10   11 1   
    16   10   12 ar  
    17   11   25 1   
    18   11   26 1   
    19   11   27 1   
    20   12   13 1   
    21   12   14 ar  
    22   13   28 1   
    23   14   15 1   
    24   15   16 1   
    25   15   29 1   
    26   15   30 1   
    27   16   17 1   
    28   16   31 1   
    29   17   18 2   
    30   17   19 1   
    31   18   32 1   
    32   18   33 1   
    33   19   20 1   
    34   19   21 1   
@<TRIPOS>SUBSTRUCTURE
     1 P1T         1 TEMP              0 ****  ****    0 ROOT
