@<TRIPOS>MOLECULE
P1T
   33    33     1     0     0
SMALL
bcc


@<TRIPOS>ATOM
      1 OP1        -1.5940    0.6970   -2.4940 o         1 P1T     -0.927833
      2 P          -1.2020   -0.7570   -2.5010 p5        1 P1T      1.316900
      3 OP2        -0.9180   -1.3630   -3.8470 o         1 P1T     -0.927833
      4 OP3        -1.9580   -1.6280   -1.5260 o         1 P1T     -0.927833
      5 OP4         0.3650   -0.7220   -1.7550 os        1 P1T     -0.565200
      6 C5A         0.5520    0.2210   -0.7760 c3        1 P1T      0.246700
      7 C5          0.7140   -0.3900    0.5990 ca        1 P1T     -0.141600
      8 C6         -0.1590   -1.4780    0.9060 ca        1 P1T      0.354200
      9 N1         -0.1780   -2.1160    2.0760 nb        1 P1T     -0.681000
     10 C2          0.6830   -1.7000    3.0460 ca        1 P1T      0.284600
     11 C2A         0.6980   -2.3830    4.3720 c3        1 P1T     -0.101400
     12 C3          1.5800   -0.6260    2.8360 ca        1 P1T      0.026800
     13 O3A         2.3900   -0.3140    3.9020 oh        1 P1T     -0.550100
     14 C4          1.6080    0.0370    1.5830 ca        1 P1T     -0.163300
     15 C4A         2.6140    1.1370    1.3750 c3        1 P1T      0.235100
     16 N           2.1990    2.3830    1.9770 nh        1 P1T     -0.745000
     17 CA          3.1270    3.3160    2.4310 ce        1 P1T      0.073800
     18 CB          2.8370    4.6390    2.5090 c2        1 P1T     -0.404000
     19 C           4.4790    2.8540    2.9990 c         1 P1T      0.910800
     20 OXT         5.4890    3.5840    2.7880 o         1 P1T     -0.843800
     21 O           4.5310    1.7920    3.6870 o         1 P1T     -0.843800
     22 H5A1       -0.3300    0.9310   -0.7340 h1        1 P1T      0.015700
     23 H5A2        1.4790    0.8210   -1.0200 h1        1 P1T      0.015700
     24 H6         -0.8830   -1.7950    0.0880 h4        1 P1T      0.142100
     25 H2A1        0.5960   -1.6200    5.1830 hc        1 P1T      0.016367
     26 H2A2       -0.1230   -3.1330    4.4750 hc        1 P1T      0.016367
     27 H2A3        1.6790   -2.9030    4.5120 hc        1 P1T      0.016367
     28 HO3A        2.9210    0.4800    3.6950 ho        1 P1T      0.473000
     29 H4A1        3.6020    0.8230    1.8280 h1        1 P1T      0.056200
     30 H4A2        2.7930    1.2740    0.2680 h1        1 P1T      0.056200
     31 HN          1.3930    2.7750    1.5380 hn        1 P1T      0.387800
     32 HB1         1.8990    5.0800    2.1580 ha        1 P1T      0.089000
     33 HB2         3.5690    5.3300    2.9350 ha        1 P1T      0.089000
@<TRIPOS>BOND
     1    1    2 1   
     2    2    3 1   
     3    2    4 1   
     4    2    5 1   
     5    5    6 1   
     6    6    7 1   
     7    6   22 1   
     8    6   23 1   
     9    7    8 ar  
    10    7   14 ar  
    11    8    9 ar  
    12    8   24 1   
    13    9   10 ar  
    14   10   11 1   
    15   10   12 ar  
    16   11   25 1   
    17   11   26 1   
    18   11   27 1   
    19   12   13 1   
    20   12   14 ar  
    21   13   28 1   
    22   14   15 1   
    23   15   16 1   
    24   15   29 1   
    25   15   30 1   
    26   16   17 1   
    27   16   31 1   
    28   17   18 2   
    29   17   19 1   
    30   18   32 1   
    31   18   33 1   
    32   19   20 1   
    33   19   21 1   
@<TRIPOS>SUBSTRUCTURE
     1 P1T         1 TEMP              0 ****  ****    0 ROOT
