@<TRIPOS>MOLECULE
P1T
   33    30     1     0     0
SMALL
bcc


@<TRIPOS>ATOM
      1 OP1         1.4860   -3.5510    3.0620 o         1 P1T     -0.927833
      2 P           1.1180   -4.2440    1.7710 p5        1 P1T      1.550500
      3 OP2         2.1090   -5.3560    1.4950 o         1 P1T     -0.927833
      4 OP3        -0.2690   -4.8240    1.8890 o         1 P1T     -0.927833
      5 OP4         1.1550   -3.1910    0.5720 os        1 P1T     -0.728000
      6 C5A         0.4200   -1.9760    0.7100 c3        1 P1T      0.084000
      7 C5          0.4740   -1.1930   -0.6070 c2        1 P1T     -0.067000
      8 C6          1.1660   -1.7080   -1.6920 c1        1 P1T     -0.108000
      9 N1          1.2180   -1.0100   -2.8630 n1        1 P1T     -0.154000
     10 C2          0.5870    0.1990   -2.9700 c1        1 P1T     -0.136000
     11 C2A         0.6900    0.9890   -4.2480 c3        1 P1T     -0.126000
     12 C3         -0.1130    0.7240   -1.8770 c1        1 P1T      0.040000
     13 O3A        -0.8620    1.9050   -2.0250 oh        1 P1T     -0.304000
     14 C4         -0.1650    0.0310   -0.7120 c2        1 P1T     -0.189000
     15 C4A        -0.9970    0.5720    0.4710 c3        1 P1T     -0.022000
     16 N          -0.1620    1.4100    1.3060 n3        1 P1T     -0.278000
     17 CA         -0.7630    2.3880    2.1750 c2        1 P1T     -0.001000
     18 CB         -0.3390    3.6880    2.1390 c1        1 P1T     -0.389000
     19 C          -1.8630    1.9790    3.1270 c2        1 P1T      0.367000
     20 OXT        -3.0290    2.3710    2.9350 o         1 P1T     -0.581000
     21 O          -1.6130    1.1750    4.0730 o         1 P1T     -0.581000
     22 H5A1       -0.5050   -2.1790    0.9290 h1        1 P1T      0.059500
     23 H5A2        0.8100   -1.4410    1.4200 h1        1 P1T      0.059500
     24 H6          1.6230   -2.5820   -1.6170 ha        1 P1T      0.279000
     25 H2A1       -0.1890    1.0340   -4.6760 hc        1 P1T      0.056000
     26 H2A2        1.3120    0.5580   -4.8400 hc        1 P1T      0.056000
     27 H2A3        1.0090    1.9100   -4.0450 hc        1 P1T      0.056000
     28 HO3A       -1.5800    1.7400   -2.5270 ho        1 P1T      0.267000
     29 H4A1       -1.3380   -0.1770    0.9990 h1        1 P1T      0.108500
     30 H4A2       -1.7600    1.1060    0.1230 h1        1 P1T      0.108500
     31 HN          0.7450    1.3460    1.2530 hn        1 P1T      0.179000
     32 HB1         0.3720    3.9530    1.5230 DU        1 P1T      0.077000
     33 HB2        -0.7480    4.3530    2.7290 ha        1 P1T      0.099000
@<TRIPOS>BOND
     1    1    2 1   
     2    2    3 1   
     3    2    4 1   
     4    2    5 1   
     5    5    6 1   
     6    6    7 1   
     7    6   22 1   
     8    6   23 1   
     9    7    8 1   
    10    7   14 1   
    11    8   24 1   
    12    9   10 1   
    13   10   11 1   
    14   11   25 1   
    15   11   26 1   
    16   11   27 1   
    17   12   13 1   
    18   12   14 1   
    19   13   28 1   
    20   14   15 1   
    21   15   16 1   
    22   15   29 1   
    23   15   30 1   
    24   16   17 1   
    25   16   31 1   
    26   17   18 1   
    27   17   19 1   
    28   18   33 1   
    29   19   20 1   
    30   19   21 1   
@<TRIPOS>SUBSTRUCTURE
     1 P1T         1 TEMP              0 ****  ****    0 ROOT
