@<TRIPOS>MOLECULE
P1Y
   31    32     1     0     0
SMALL
bcc


@<TRIPOS>ATOM
      1 C01         0.0840   -0.3580   -0.0630 ca        1 P1Y     -0.077000
      2 C02         1.4770   -0.4350    0.0470 ca        1 P1Y     -0.057900
      3 C03         2.0750   -0.1780    1.2950 ca        1 P1Y      0.138100
      4 C04         1.2790    0.1420    2.4050 ca        1 P1Y     -0.205000
      5 C05        -0.1040    0.2080    2.2770 ca        1 P1Y     -0.057000
      6 C06        -0.7130   -0.0410    1.0400 ca        1 P1Y     -0.097300
      7 C07        -2.1950    0.0110    0.9040 c3        1 P1Y     -0.056400
      8 C08        -2.7150    1.4350    1.0270 ca        1 P1Y      0.599300
      9 N09        -2.7440    1.9800    2.2800 nb        1 P1Y     -0.666000
     10 C10        -3.2040    3.2400    2.4090 ca        1 P1Y      0.337800
     11 C11        -3.6270    3.9860    1.2720 ca        1 P1Y     -0.064500
     12 C12        -3.5700    3.3230    0.0130 ca        1 P1Y      0.574600
     13 N13        -3.1190    2.0500   -0.1250 nb        1 P1Y     -0.770000
     14 O14        -4.0880    5.2670    1.2940 oh        1 P1Y     -0.508100
     15 O15        -3.9980    4.0210   -1.0970 oh        1 P1Y     -0.607300
     16 C16        -3.2740    3.9010    3.8070 c         1 P1Y      0.823100
     17 O17        -3.6030    3.2050    4.7930 o         1 P1Y     -0.800300
     18 O18        -3.0190    5.1410    3.8320 o         1 P1Y     -0.800300
     19 BR19        2.4600   -0.8780   -1.4900 br        1 P1Y     -0.102100
     20 O20         3.4530   -0.2860    1.3680 os        1 P1Y     -0.325900
     21 C21         4.0610    0.2670    2.5290 c3        1 P1Y      0.115700
     22 H01        -0.3960   -0.5430   -1.0380 ha        1 P1Y      0.145000
     23 H04         1.7380    0.3500    3.3820 ha        1 P1Y      0.140000
     24 H05        -0.7250    0.4710    3.1500 ha        1 P1Y      0.177000
     25 H07        -2.5090   -0.4260   -0.0810 hc        1 P1Y      0.062200
     26 H07A       -2.6640   -0.6110    1.7150 hc        1 P1Y      0.062200
     27 H21         3.7340    1.3220    2.6920 h1        1 P1Y      0.042367
     28 H21A        5.1540    0.2220    2.2960 h1        1 P1Y      0.042367
     29 H21B        3.8270   -0.3580    3.4250 h1        1 P1Y      0.042367
     30 H10        -3.9020    5.6430    2.1820 ho        1 P1Y      0.478000
     31 H11        -3.8900    3.4570   -1.8780 ho        1 P1Y      0.416000
@<TRIPOS>BOND
     1    1    2 ar  
     2    1    6 ar  
     3    1   22 1   
     4    2    3 ar  
     5    2   19 1   
     6    3    4 ar  
     7    3   20 1   
     8    4    5 ar  
     9    4   23 1   
    10    5    6 ar  
    11    5   24 1   
    12    6    7 1   
    13    7    8 1   
    14    7   25 1   
    15    7   26 1   
    16    8    9 ar  
    17    8   13 ar  
    18    9   10 ar  
    19   10   11 ar  
    20   10   16 1   
    21   11   12 ar  
    22   11   14 1   
    23   12   13 ar  
    24   12   15 1   
    25   14   30 1   
    26   15   31 1   
    27   16   17 1   
    28   16   18 1   
    29   20   21 1   
    30   21   27 1   
    31   21   28 1   
    32   21   29 1   
@<TRIPOS>SUBSTRUCTURE
     1 P1Y         1 TEMP              0 ****  ****    0 ROOT
