@<TRIPOS>MOLECULE
P1Y
   31    32     1     0     0
SMALL
bcc


@<TRIPOS>ATOM
      1 C01        -1.8480    0.3770    1.1580 ca        1 P1Y     -0.076000
      2 C02        -2.9530   -0.1730    0.5010 ca        1 P1Y     -0.057900
      3 C03        -2.8750   -1.5000    0.0340 ca        1 P1Y      0.138100
      4 C04        -1.7060   -2.2490    0.2360 ca        1 P1Y     -0.206000
      5 C05        -0.6210   -1.6860    0.8970 ca        1 P1Y     -0.056000
      6 C06        -0.6830   -0.3670    1.3640 ca        1 P1Y     -0.098300
      7 C07         0.4710    0.2330    2.0900 c3        1 P1Y     -0.057400
      8 C08         1.6390    0.5060    1.1550 ca        1 P1Y      0.598300
      9 N09         2.3260   -0.5820    0.6930 nb        1 P1Y     -0.669000
     10 C10         3.3700   -0.3620   -0.1340 ca        1 P1Y      0.353800
     11 C11         3.7190    0.9620   -0.5100 ca        1 P1Y     -0.130500
     12 C12         2.9470    2.0290    0.0330 ca        1 P1Y      0.585600
     13 N13         1.9010    1.8200    0.8700 nb        1 P1Y     -0.709000
     14 O14         4.7410    1.3160   -1.3470 oh        1 P1Y     -0.552100
     15 O15         3.2310    3.3490   -0.2590 oh        1 P1Y     -0.617300
     16 C16         4.1960   -1.5460   -0.6900 c         1 P1Y      0.823100
     17 O17         4.3540   -2.5660    0.0140 o         1 P1Y     -0.800800
     18 O18         4.6890   -1.3650   -1.8430 o         1 P1Y     -0.800800
     19 BR19       -4.4760    0.9020    0.2820 br        1 P1Y     -0.102100
     20 O20        -3.9970   -2.0160   -0.5900 os        1 P1Y     -0.325900
     21 C21        -3.8010   -3.2160   -1.3280 c3        1 P1Y      0.115700
     22 H01        -1.8890    1.4200    1.5140 ha        1 P1Y      0.147000
     23 H04        -1.6340   -3.2830   -0.1310 ha        1 P1Y      0.140000
     24 H05         0.3010   -2.2760    1.0420 ha        1 P1Y      0.177000
     25 H07         0.1560    1.1850    2.5960 hc        1 P1Y      0.063700
     26 H07A        0.8170   -0.4780    2.8900 hc        1 P1Y      0.063700
     27 H21        -2.9510   -3.1160   -2.0450 h1        1 P1Y      0.042367
     28 H21A       -3.6300   -4.0750   -0.6340 h1        1 P1Y      0.042367
     29 H21B       -4.7690   -3.3440   -1.8770 h1        1 P1Y      0.042367
     30 H10         5.0680    0.5040   -1.7940 ho        1 P1Y      0.491000
     31 H11         3.9470    3.3330   -0.9140 ho        1 P1Y      0.435000
@<TRIPOS>BOND
     1    1    2 ar  
     2    1    6 ar  
     3    1   22 1   
     4    2    3 ar  
     5    2   19 1   
     6    3    4 ar  
     7    3   20 1   
     8    4    5 ar  
     9    4   23 1   
    10    5    6 ar  
    11    5   24 1   
    12    6    7 1   
    13    7    8 1   
    14    7   25 1   
    15    7   26 1   
    16    8    9 ar  
    17    8   13 ar  
    18    9   10 ar  
    19   10   11 ar  
    20   10   16 1   
    21   11   12 ar  
    22   11   14 1   
    23   12   13 ar  
    24   12   15 1   
    25   14   30 1   
    26   15   31 1   
    27   16   17 1   
    28   16   18 1   
    29   20   21 1   
    30   21   27 1   
    31   21   28 1   
    32   21   29 1   
@<TRIPOS>SUBSTRUCTURE
     1 P1Y         1 TEMP              0 ****  ****    0 ROOT
