@<TRIPOS>MOLECULE
P1Y
   31    32     1     0     0
SMALL
bcc


@<TRIPOS>ATOM
      1 C01         0.1080   -0.3200   -0.0940 ca        1 P1Y     -0.077000
      2 C02         1.5000   -0.3910    0.0250 ca        1 P1Y     -0.057900
      3 C03         2.0870   -0.1560    1.2830 ca        1 P1Y      0.138100
      4 C04         1.2800    0.1360    2.3930 ca        1 P1Y     -0.205000
      5 C05        -0.1020    0.1960    2.2550 ca        1 P1Y     -0.057000
      6 C06        -0.7000   -0.0310    1.0090 ca        1 P1Y     -0.097300
      7 C07        -2.1810    0.0150    0.8630 c3        1 P1Y     -0.056400
      8 C08        -2.7110    1.4330    1.0110 ca        1 P1Y      0.599300
      9 N09        -2.7530    1.9510    2.2760 nb        1 P1Y     -0.666000
     10 C10        -3.2210    3.2050    2.4280 ca        1 P1Y      0.337800
     11 C11        -3.6420    3.9720    1.3030 ca        1 P1Y     -0.064500
     12 C12        -3.5720    3.3350    0.0310 ca        1 P1Y      0.574600
     13 N13        -3.1110    2.0680   -0.1300 nb        1 P1Y     -0.770000
     14 O14        -4.1120    5.2490    1.3480 oh        1 P1Y     -0.508100
     15 O15        -3.9980    4.0540   -1.0670 oh        1 P1Y     -0.607300
     16 C16        -3.3060    3.8370    3.8380 c         1 P1Y      0.823100
     17 O17        -3.6360    3.1190    4.8070 o         1 P1Y     -0.800300
     18 O18        -3.0590    5.0780    3.8900 o         1 P1Y     -0.800300
     19 Br19        2.4970   -0.7950   -1.5130 br        1 P1Y     -0.102100
     20 O20         3.4650   -0.2570    1.3640 os        1 P1Y     -0.325900
     21 C21         4.0600    0.2750    2.5410 c3        1 P1Y      0.115700
     22 H01        -0.3640   -0.4870   -1.0760 ha        1 P1Y      0.145000
     23 H04         1.7310    0.3260    3.3770 ha        1 P1Y      0.140000
     24 H05        -0.7310    0.4370    3.1300 ha        1 P1Y      0.177000
     25 H07        -2.4850   -0.4040   -0.1330 hc        1 P1Y      0.062200
     26 H07A       -2.6520   -0.6270    1.6580 hc        1 P1Y      0.062200
     27 H21         3.7260    1.3250    2.7240 h1        1 P1Y      0.042367
     28 H21A        5.1560    0.2420    2.3150 h1        1 P1Y      0.042367
     29 H21B        3.8240   -0.3700    3.4220 h1        1 P1Y      0.042367
     30 H10        -3.9340    5.6070    2.2450 ho        1 P1Y      0.478000
     31 H11        -3.8810    3.5060   -1.8590 ho        1 P1Y      0.416000
@<TRIPOS>BOND
     1    1    2 ar  
     2    1    6 ar  
     3    1   22 1   
     4    2    3 ar  
     5    2   19 1   
     6    3    4 ar  
     7    3   20 1   
     8    4    5 ar  
     9    4   23 1   
    10    5    6 ar  
    11    5   24 1   
    12    6    7 1   
    13    7    8 1   
    14    7   25 1   
    15    7   26 1   
    16    8    9 ar  
    17    8   13 ar  
    18    9   10 ar  
    19   10   11 ar  
    20   10   16 1   
    21   11   12 ar  
    22   11   14 1   
    23   12   13 ar  
    24   12   15 1   
    25   14   30 1   
    26   15   31 1   
    27   16   17 1   
    28   16   18 1   
    29   20   21 1   
    30   21   27 1   
    31   21   28 1   
    32   21   29 1   
@<TRIPOS>SUBSTRUCTURE
     1 P1Y         1 TEMP              0 ****  ****    0 ROOT
