@<TRIPOS>MOLECULE
P1Y
   31    27     1     0     0
SMALL
bcc


@<TRIPOS>ATOM
      1 C01         0.9580   -1.2810   -1.1250 c1        1 P1Y     -0.077000
      2 C02         2.3510   -1.2900   -1.0830 c1        1 P1Y     -0.199000
      3 C03         3.0070   -1.2680    0.1370 c1        1 P1Y      0.094000
      4 C04         2.2710   -1.2380    1.3270 c2        1 P1Y     -0.204000
      5 C05         0.8820   -1.2290    1.2840 c1        1 P1Y     -0.058000
      6 C06         0.2250   -1.2510    0.0620 c1        1 P1Y     -0.091000
      7 C07        -1.2850   -1.3000    0.0200 c3        1 P1Y     -0.051000
      8 C08        -1.8360    0.1170   -0.0910 c2        1 P1Y     -0.004000
      9 N09        -2.3460    0.7390    1.0160 n2        1 P1Y     -0.165000
     10 C10        -2.8910    1.9720    0.9080 c1        1 P1Y      0.001000
     11 C11        -2.9310    2.5970   -0.3110 c1        1 P1Y     -0.013000
     12 C12        -2.4210    1.9710   -1.4150 c1        1 P1Y      0.031000
     13 N13        -1.8760    0.7370   -1.3020 n2        1 P1Y     -0.240000
     14 O14        -3.4040    3.9150   -0.4100 oh        1 P1Y     -0.207000
     15 O15        -2.4780    2.5930   -2.6550 o         1 P1Y     -0.277000
     16 C16        -3.3750    2.7040    2.1600 c2        1 P1Y      0.403000
     17 O17        -2.6180    3.5100    2.7440 o         1 P1Y     -0.527000
     18 O18        -4.5020    2.4570    2.6290 o         1 P1Y     -0.527000
     19 BR19        3.3610   -1.3920   -2.7200 br        1 P1Y      0.037000
     20 O20         4.4330   -1.2180    0.1790 o         1 P1Y     -0.209000
     21 C21         5.0640   -2.5110    0.1720 c3        1 P1Y     -0.074000
     22 H01         0.4890   -1.3530   -1.9950 ha        1 P1Y      0.144000
     23 H04         2.7250   -1.1280    2.1680 ha        1 P1Y      0.142000
     24 H05         0.3560   -1.1640    2.1350 ha        1 P1Y      0.179000
     25 H07        -1.5700   -1.8180   -0.7470 hc        1 P1Y      0.103000
     26 H07A       -1.6280   -1.7270    0.8580 hc        1 P1Y      0.103000
     27 H21         4.8800   -2.9630   -0.6890 h1        1 P1Y      0.082333
     28 H21A        6.0420   -2.4020    0.2860 h1        1 P1Y      0.082333
     29 H21B        4.7010   -3.0620    0.9210 h1        1 P1Y      0.082333
     30 H10        -3.5390    4.1240   -1.2850 ho        1 P1Y      0.211000
     31 H11        -3.0450    2.1580   -3.1770 ho        1 P1Y      0.229000
@<TRIPOS>BOND
     1    1    6 1   
     2    1   22 1   
     3    2    3 1   
     4    2   19 1   
     5    3    4 1   
     6    4    5 1   
     7    4   23 1   
     8    5   24 1   
     9    6    7 1   
    10    7    8 1   
    11    7   25 1   
    12    7   26 1   
    13    8    9 1   
    14    8   13 1   
    15    9   10 1   
    16   10   16 1   
    17   11   12 1   
    18   11   14 1   
    19   12   13 1   
    20   14   30 1   
    21   15   31 1   
    22   16   17 1   
    23   16   18 1   
    24   20   21 1   
    25   21   27 1   
    26   21   28 1   
    27   21   29 1   
@<TRIPOS>SUBSTRUCTURE
     1 P1Y         1 TEMP              0 ****  ****    0 ROOT
