@<TRIPOS>MOLECULE
P1Z
   43    43     1     0     0
SMALL
bcc


@<TRIPOS>ATOM
      1 C16        -1.3580   -1.4540    1.2920 c1        1 P1Z     -0.180000
      2 C17         1.9900    1.5290    0.5890 c1        1 P1Z     -0.051000
      3 C12         1.9380    0.4390    1.5700 c3        1 P1Z     -0.090000
      4 C13         1.0380    0.7550    2.7340 c2        1 P1Z     -0.141000
      5 C14        -0.1910    0.2430    2.8810 c2        1 P1Z     -0.046000
      6 C15        -0.8060   -0.6700    2.0100 c1        1 P1Z     -0.156000
      7 C8          4.8750   -3.1810   -2.9880 c3        1 P1Z     -0.237000
      8 C9          3.3940   -3.1310   -2.9870 c2        1 P1Z     -0.164000
      9 C10         2.6400   -2.5410   -2.0470 c2        1 P1Z     -0.060000
     10 C11         3.1390   -1.8800   -0.9200 c1        1 P1Z     -0.106000
     11 C6          3.5480   -1.3070    0.0550 c1        1 P1Z     -0.089000
     12 C7          5.5080   -4.4400   -3.3100 c1        1 P1Z     -0.045000
     13 C21         9.5790    2.0290   -0.6420 c3        1 P1Z     -0.217500
     14 C20         8.3380    1.5610   -1.3450 c3        1 P1Z     -0.217500
     15 C18         6.4460    2.0650    1.8850 cx        1 P1Z     -0.140000
     16 N2          3.2740   -0.0040    2.0570 n         1 P1Z     -0.120000
     17 C3          4.1080    1.0740    2.5940 c2        1 P1Z      0.311000
     18 C4          5.5140    0.8960    2.0960 cx        1 P1Z     -0.236000
     19 C5          5.4310   -0.2340    1.1160 c2        1 P1Z      0.327000
     20 N1          4.0720   -0.7810    1.1970 n         1 P1Z     -0.066000
     21 O3          3.7070    1.9190    3.3960 o         1 P1Z     -0.287000
     22 O5          6.3190   -0.7100    0.4140 o         1 P1Z     -0.264000
     23 H16         1.0270    1.9920    0.3310 ha        1 P1Z      0.069000
     24 H17        -1.8500   -2.1510    0.6610 ha        1 P1Z      0.228000
     25 H13         1.4820   -0.4500    1.0020 h1        1 P1Z      0.175000
     26 H14         1.4550    1.4530    3.4820 ha        1 P1Z      0.171000
     27 H15        -0.8090    0.5440    3.7500 ha        1 P1Z      0.152000
     28 H8          5.2970   -2.8680   -1.9820 hc        1 P1Z      0.166500
     29 H9          5.2760   -2.4170   -3.7230 hc        1 P1Z      0.166500
     30 H10         2.9040   -3.6290   -3.8410 ha        1 P1Z      0.127000
     31 H11         1.5360   -2.5530   -2.1250 ha        1 P1Z      0.139000
     32 H7          4.8430   -5.3010   -3.4870 ha        1 P1Z      0.035000
     33 H211        7.8770    0.6950   -0.8060 hc        1 P1Z      0.072667
     34 H212       10.3330    1.2060   -0.5840 hc        1 P1Z      0.072667
     35 H213       10.0410    2.8890   -1.1830 hc        1 P1Z      0.072667
     36 H201        9.3430    2.3580    0.4000 hc        1 P1Z      0.072667
     37 H202        8.5750    1.2360   -2.3860 hc        1 P1Z      0.072667
     38 H191        7.5830    2.3820   -1.4010 hc        1 P1Z      0.072667
     39 H192        6.5280    1.4020    4.0370 hc        1 P1Z      0.137750
     40 H181        7.5530    0.3820    2.8930 hc        1 P1Z      0.137750
     41 H182        7.0890    2.0520    0.9820 hc        1 P1Z      0.137750
     42 H4          6.0640    3.0750    2.1270 hc        1 P1Z      0.137750
     43 C19         6.7150    1.0970    2.9900 cx        1 P1Z     -0.140000
@<TRIPOS>BOND
     1    1    6 1   
     2    1   24 1   
     3    2    3 1   
     4    2   23 1   
     5    3    4 1   
     6    3   16 1   
     7    3   25 1   
     8    4    5 1   
     9    4   26 1   
    10    5    6 1   
    11    5   27 1   
    12    7    8 1   
    13    7   12 1   
    14    7   28 1   
    15    7   29 1   
    16    8    9 1   
    17    8   30 1   
    18    9   10 1   
    19    9   31 1   
    20   10   11 1   
    21   11   20 1   
    22   12   32 1   
    23   13   14 1   
    24   13   34 1   
    25   13   35 1   
    26   13   36 1   
    27   14   33 1   
    28   14   37 1   
    29   14   38 1   
    30   15   18 1   
    31   15   41 1   
    32   15   42 1   
    33   15   43 1   
    34   16   17 1   
    35   16   20 1   
    36   17   18 1   
    37   17   21 1   
    38   18   19 1   
    39   18   43 1   
    40   19   20 1   
    41   19   22 1   
    42   39   43 1   
    43   40   43 1   
@<TRIPOS>SUBSTRUCTURE
     1 P1Z         1 TEMP              0 ****  ****    0 ROOT
