@<TRIPOS>MOLECULE
P1Z
   43    45     1     0     0
SMALL
bcc


@<TRIPOS>ATOM
      1 C16        -3.0970   -1.6390    2.0210 ca        1 P1Z     -0.122000
      2 C17        -2.0570   -0.9220    1.4330 ca        1 P1Z     -0.125250
      3 C12        -1.6000   -1.2730    0.1490 ca        1 P1Z      0.018100
      4 C13        -2.1960   -2.3650   -0.5200 ca        1 P1Z     -0.125250
      5 C14        -3.2280   -3.0720    0.0890 ca        1 P1Z     -0.122000
      6 C15        -3.6860   -2.7120    1.3560 ca        1 P1Z     -0.133000
      7 C8         -1.6740    4.0940    0.3270 ca        1 P1Z     -0.122000
      8 C9         -2.7310    4.0570   -0.5810 ca        1 P1Z     -0.133000
      9 C10        -2.9440    2.9110   -1.3430 ca        1 P1Z     -0.122000
     10 C11        -2.1130    1.8010   -1.2060 ca        1 P1Z     -0.125250
     11 C6         -1.0520    1.8280   -0.2810 ca        1 P1Z      0.018100
     12 C7         -0.8370    2.9940    0.4870 ca        1 P1Z     -0.125250
     13 C21         6.5370   -0.1160    0.8360 c3        1 P1Z     -0.093100
     14 C20         5.2200   -0.8420    0.9350 c3        1 P1Z     -0.077400
     15 C18         2.8840   -1.0060    0.0760 c3        1 P1Z     -0.062400
     16 N2         -0.5760   -0.5440   -0.5570 n         1 P1Z     -0.228600
     17 C3          0.6050   -1.2890   -0.9470 c         1 P1Z      0.677500
     18 C4          1.8320   -0.3860   -0.8200 c3        1 P1Z     -0.226700
     19 C5          1.2310    0.9020   -0.2570 c         1 P1Z      0.677500
     20 N1         -0.1880    0.7020   -0.0320 n         1 P1Z     -0.228600
     21 O3          0.5840   -2.4370   -1.3900 o         1 P1Z     -0.551000
     22 O5          1.8340    1.9340    0.0320 o         1 P1Z     -0.551000
     23 H16        -3.4500   -1.3510    3.0230 ha        1 P1Z      0.136000
     24 H17        -1.6130   -0.0810    1.9870 ha        1 P1Z      0.154000
     25 H13        -1.8350   -2.6740   -1.5150 ha        1 P1Z      0.154000
     26 H14        -3.6840   -3.9230   -0.4400 ha        1 P1Z      0.136000
     27 H15        -4.5050   -3.2730    1.8280 ha        1 P1Z      0.135000
     28 H8         -1.4960    4.9980    0.9280 ha        1 P1Z      0.136000
     29 H9         -3.3910    4.9290   -0.6970 ha        1 P1Z      0.135000
     30 H10        -3.7740    2.8760   -2.0650 ha        1 P1Z      0.136000
     31 H11        -2.3080    0.9120   -1.8260 ha        1 P1Z      0.154000
     32 H7          0.0050    3.0460    1.1970 ha        1 P1Z      0.154000
     33 H211        6.4100    0.9660    1.0820 hc        1 P1Z      0.035033
     34 H212        7.2760   -0.5560    1.5490 hc        1 P1Z      0.035033
     35 H213        6.9540   -0.1940   -0.1970 hc        1 P1Z      0.035033
     36 H201        5.3700   -1.9290    0.7040 hc        1 P1Z      0.040700
     37 H202        4.8320   -0.7770    1.9860 hc        1 P1Z      0.040700
     38 H191        4.0280    0.8260    0.2230 hc        1 P1Z      0.054200
     39 H192        4.5890   -0.3100   -1.0670 hc        1 P1Z      0.054200
     40 H181        3.0290   -2.0750   -0.2370 hc        1 P1Z      0.063200
     41 H182        2.5240   -1.0100    1.1380 hc        1 P1Z      0.063200
     42 H4          2.2570   -0.1770   -1.8390 hc        1 P1Z      0.121700
     43 C19         4.1970   -0.2580   -0.0170 c3        1 P1Z     -0.088400
@<TRIPOS>BOND
     1    1    2 ar  
     2    1    6 ar  
     3    1   23 1   
     4    2    3 ar  
     5    2   24 1   
     6    3    4 ar  
     7    3   16 1   
     8    4    5 ar  
     9    4   25 1   
    10    5    6 ar  
    11    5   26 1   
    12    6   27 1   
    13    7    8 ar  
    14    7   12 ar  
    15    7   28 1   
    16    8    9 ar  
    17    8   29 1   
    18    9   10 ar  
    19    9   30 1   
    20   10   11 ar  
    21   10   31 1   
    22   11   12 ar  
    23   11   20 1   
    24   12   32 1   
    25   13   14 1   
    26   13   33 1   
    27   13   34 1   
    28   13   35 1   
    29   14   36 1   
    30   14   37 1   
    31   14   43 1   
    32   15   18 1   
    33   15   40 1   
    34   15   41 1   
    35   15   43 1   
    36   16   17 1   
    37   16   20 1   
    38   17   18 1   
    39   17   21 2   
    40   18   19 1   
    41   18   42 1   
    42   19   20 1   
    43   19   22 2   
    44   38   43 1   
    45   39   43 1   
@<TRIPOS>SUBSTRUCTURE
     1 P1Z         1 TEMP              0 ****  ****    0 ROOT
