@<TRIPOS>MOLECULE
P1Z
   43    58     1     0     0
SMALL
bcc


@<TRIPOS>ATOM
      1 C16         0.0000    0.0000    0.0000 c3        1 P1Z      0.028000
      2 C17         1.3810    0.0000    0.0000 c2        1 P1Z     -0.056000
      3 C12         2.0740    0.0000    1.2030 c2        1 P1Z     -0.001000
      4 C13         1.3750    0.0120    2.4040 c3        1 P1Z     -0.135000
      5 C14        -0.0050    0.0190    2.3970 c3        1 P1Z     -0.219000
      6 C15        -0.6930    0.0130    1.1970 c2        1 P1Z     -0.356000
      7 C8          3.6910   -2.9820   -2.5080 c3        1 P1Z      0.099000
      8 C9          2.7040   -3.8330   -2.0450 DU        1 P1Z     -0.214000
      9 C10         2.2300   -3.7090   -0.7530 c3        1 P1Z     -0.347000
     10 C11         2.7460   -2.7380    0.0830 c2        1 P1Z     -0.431000
     11 C6          3.7330   -1.8780   -0.3790 c2        1 P1Z      0.045000
     12 C7          4.2070   -2.0050   -1.6790 c2        1 P1Z     -0.195000
     13 C21        10.0900    2.1420    0.0160 DU        1 P1Z     -0.028000
     14 C20         8.6110    2.4970    0.1780 DU        1 P1Z     -0.604000
     15 C18         6.4020    1.6610    0.9940 DU        1 P1Z     -0.248000
     16 N2          3.4730   -0.0070    1.2070 n         1 P1Z      0.094000
     17 C3          4.2320    0.8380    1.9300 c2        1 P1Z      0.277000
     18 C4          5.6730    0.4770    1.6330 c3        1 P1Z     -0.635000
     19 C5          5.5680   -0.6750    0.6550 c2        1 P1Z      0.265000
     20 N1          4.2520   -0.8890    0.4630 n         1 P1Z      0.138000
     21 O3          3.8390    1.7150    2.6700 o         1 P1Z     -0.372000
     22 O5          6.4850   -1.2810    0.1450 o         1 P1Z     -0.389000
     23 H16         1.0540    0.2000    0.1520 hc        1 P1Z     -0.131000
     24 H17         0.4080   -0.0010   -0.4760 DU        1 P1Z      0.075000
     25 H13         1.5510    0.0050    1.3350 hc        1 P1Z      0.320000
     26 H14         0.9660    0.0170    2.8780 DU        1 P1Z      0.156000
     27 H15        -0.6220    0.0210    2.2780 DU        1 P1Z      0.234000
     28 H8          2.8740   -2.5340   -1.9550 DU        1 P1Z      0.175000
     29 H9          3.3900   -3.4530   -2.7930 DU        1 P1Z      0.175000
     30 H10         2.2650   -4.1590   -1.7370 DU        1 P1Z      0.174000
     31 H11         2.0930   -3.5680   -0.1570 DU        1 P1Z      0.227000
     32 H7          3.6210   -2.2080   -0.7910 ha        1 P1Z      0.167000
     33 H211        9.2400    1.5740   -0.3440 DU        1 P1Z      0.359500
     34 H212       10.6090    2.9660   -0.4590 ha        1 P1Z      0.139500
     35 H213       10.5250    1.9540    0.9900 ha        1 P1Z      0.139500
     36 H201        9.4020    1.8700   -0.2150 DU        1 P1Z      0.359500
     37 H202        8.5400    3.4310    0.7220 ha        1 P1Z      0.160000
     38 H191        8.0090    1.9360   -0.0590 DU        1 P1Z      0.273000
     39 H192        8.1370    1.6210    1.8260 ha        1 P1Z      0.097000
     40 H181        7.3070    1.0690    0.9380 DU        1 P1Z      0.258000
     41 H182        6.1480    1.7090   -0.0590 ha        1 P1Z      0.062000
     42 H4          5.8810    1.5370    1.5570 DU        1 P1Z      0.253000
     43 C19         7.8810    1.3140    0.8190 DU        1 P1Z     -0.392000
@<TRIPOS>BOND
     1    1    2 1   
     2    1    6 1   
     3    1   23 1   
     4    1   24 1   
     5    2    3 1   
     6    2   24 1   
     7    3    4 1   
     8    3   16 1   
     9    4    5 1   
    10    4   25 1   
    11    4   26 1   
    12    5    6 1   
    13    5   26 1   
    14    5   27 1   
    15    6   27 1   
    16    7    8 1   
    17    7   12 1   
    18    7   28 1   
    19    7   29 1   
    20    8    9 1   
    21    8   28 1   
    22    8   29 1   
    23    8   30 1   
    24    9   10 1   
    25    9   30 1   
    26    9   31 1   
    27   10   11 1   
    28   10   31 1   
    29   11   12 1   
    30   11   20 1   
    31   12   32 1   
    32   13   14 1   
    33   13   33 1   
    34   13   34 1   
    35   13   35 1   
    36   13   36 1   
    37   14   33 1   
    38   14   36 1   
    39   14   37 1   
    40   14   38 1   
    41   14   43 1   
    42   15   18 1   
    43   15   40 1   
    44   15   41 1   
    45   15   42 1   
    46   15   43 1   
    47   16   17 1   
    48   16   20 1   
    49   17   18 1   
    50   17   21 1   
    51   18   19 1   
    52   18   42 1   
    53   19   20 1   
    54   19   22 1   
    55   33   36 1   
    56   38   43 1   
    57   39   43 1   
    58   40   43 1   
@<TRIPOS>SUBSTRUCTURE
     1 P1Z         1 TEMP              0 ****  ****    0 ROOT
