@<TRIPOS>MOLECULE
P1Z
   43    39     1     0     0
SMALL
bcc


@<TRIPOS>ATOM
      1 C16        -4.2990   -0.5240    1.7080 c1        1 P1Z     -0.066375
      2 C17        -2.9150   -0.5130    1.6500 c1        1 P1Z     -0.074500
      3 C12        -2.2740   -0.1660    0.4720 c1        1 P1Z      0.031700
      4 C13        -3.0170    0.1710   -0.6480 c1        1 P1Z     -0.066375
      5 C14        -4.4010    0.1600   -0.5900 c1        1 P1Z     -0.066375
      6 C15        -5.0420   -0.1880    0.5880 c1        1 P1Z     -0.066375
      7 C8         -0.5660   -3.2860   -2.8730 c1        1 P1Z     -0.066375
      8 C9         -0.8250   -4.4890   -2.2360 c1        1 P1Z     -0.066375
      9 C10        -0.8310   -4.5530   -0.8510 c1        1 P1Z     -0.066375
     10 C11        -0.5780   -3.4140   -0.1030 c1        1 P1Z     -0.066375
     11 C6         -0.3190   -2.2100   -0.7400 c1        1 P1Z      0.031700
     12 C7         -0.3120   -2.1460   -2.1250 c1        1 P1Z     -0.074500
     13 C21         4.2970    4.3550    1.0370 c3        1 P1Z     -0.093100
     14 C20         3.3860    3.5540    0.1350 c3        1 P1Z     -0.077400
     15 C19         3.2710    2.1410    0.6620 c3        1 P1Z     -0.088400
     16 C18         2.1580    1.4200   -0.0660 c3        1 P1Z     -0.062400
     17 N2         -0.8630   -0.0650    0.4390 n         1 P1Z     -0.242200
     18 C3         -0.1000    1.0960    0.7570 c         1 P1Z      0.677500
     19 C4          1.3220    0.6830    0.9130 c3        1 P1Z     -0.226700
     20 C5          1.3010   -0.7580    0.5550 c         1 P1Z      0.677500
     21 N1          0.0190   -1.0600    0.0250 n         1 P1Z     -0.242200
     22 O3         -0.5380    2.2170    0.9160 o         1 P1Z     -0.551000
     23 O5          2.2270   -1.5360    0.6710 o         1 P1Z     -0.551000
     24 H16        -4.7510   -0.7690    2.5380 ha        1 P1Z      0.083500
     25 H17        -2.3910   -0.7510    2.4390 ha        1 P1Z      0.093500
     26 H13        -2.5650    0.4160   -1.4790 ha        1 P1Z      0.083500
     27 H14        -4.9250    0.3970   -1.3780 ha        1 P1Z      0.083500
     28 H15        -6.0170   -0.1950    0.6290 ha        1 P1Z      0.083500
     29 H8         -0.5610   -3.2410   -3.8490 ha        1 P1Z      0.083500
     30 H9         -1.0030   -5.2920   -2.7630 ha        1 P1Z      0.083500
     31 H10        -1.0140   -5.4010   -0.4030 ha        1 P1Z      0.083500
     32 H11        -0.5820   -3.4590    0.8710 ha        1 P1Z      0.083500
     33 H7         -0.1300   -1.2990   -2.5740 ha        1 P1Z      0.093500
     34 H211        3.9660    4.3110    1.9590 hc        1 P1Z      0.035033
     35 H212        5.2040    3.9850    0.9970 hc        1 P1Z      0.035033
     36 H213        4.3120    5.2900    0.7390 hc        1 P1Z      0.035033
     37 H201        2.5000    3.9680    0.1160 hc        1 P1Z      0.040700
     38 H202        3.7570    3.5350   -0.7700 hc        1 P1Z      0.040700
     39 H191        4.1150    1.6690    0.5160 hc        1 P1Z      0.054700
     40 H192        3.0730    2.1650    1.6180 hc        1 P1Z      0.054700
     41 H181        1.6040    2.0710   -0.5420 hc        1 P1Z      0.063200
     42 H182        2.5420    0.7890   -0.7070 hc        1 P1Z      0.063200
     43 H4          1.7630    0.9250    1.7510 hc        1 P1Z      0.121700
@<TRIPOS>BOND
     1    1    6 3   
     2    1   24 1   
     3    2    3 3   
     4    2   25 1   
     5    3   17 1   
     6    4    5 3   
     7    4   26 1   
     8    5   27 1   
     9    6   28 1   
    10    7    8 3   
    11    7   29 1   
    12    8   30 1   
    13    9   10 3   
    14    9   31 1   
    15   10   32 1   
    16   11   12 3   
    17   11   21 1   
    18   12   33 1   
    19   13   14 1   
    20   13   34 1   
    21   13   35 1   
    22   13   36 1   
    23   14   15 1   
    24   14   37 1   
    25   14   38 1   
    26   15   16 1   
    27   15   39 1   
    28   15   40 1   
    29   16   19 1   
    30   16   41 1   
    31   16   42 1   
    32   17   18 1   
    33   17   21 1   
    34   18   19 1   
    35   18   22 2   
    36   19   20 1   
    37   19   43 1   
    38   20   21 1   
    39   20   23 2   
@<TRIPOS>SUBSTRUCTURE
     1 P1Z         1 TEMP              0 ****  ****    0 ROOT
