@<TRIPOS>MOLECULE
P20
   29    29     1     0     0
SMALL
bcc


@<TRIPOS>ATOM
      1 S           2.7320    0.7770   -1.4160 sh        1 P20     -0.370900
      2 C1          1.8590    0.2940    0.0440 c3        1 P20     -0.006300
      3 C2          2.5720   -0.6170    1.0270 c3        1 P20     -0.116400
      4 C3          3.8840   -0.0610    1.4870 ca        1 P20     -0.067300
      5 C4          5.0850   -0.5450    0.9590 ca        1 P20     -0.154000
      6 C5          6.3300   -0.0470    1.3930 ca        1 P20      0.151600
      7 C6          3.9280    0.9260    2.4840 ca        1 P20     -0.002600
      8 C7          5.1570    1.4140    2.9400 ca        1 P20     -0.100000
      9 C8          6.3470    0.9400    2.4080 ca        1 P20     -0.150000
     10 N9          7.5590   -0.4760    0.8620 nh        1 P20     -0.763600
     11 C10         7.6380   -1.2150   -0.3780 c2        1 P20      0.769100
     12 N11         8.3090   -2.3240   -0.5530 n2        1 P20     -0.857100
     13 N12         6.9280   -0.6320   -1.4710 nh        1 P20     -0.884800
     14 C13         2.6930   -2.0430    0.5290 c         1 P20      0.629100
     15 O14         2.4460   -3.0380    1.2120 o         1 P20     -0.489000
     16 O15         3.0730   -2.3310   -0.7440 oh        1 P20     -0.581100
     17 CL16        2.5110    1.5580    3.1830 cl        1 P20     -0.086400
     18 HS          3.7870    1.3650   -0.8750 hs        1 P20      0.217800
     19 H11A        1.5260    1.2100    0.5940 h1        1 P20      0.094200
     20 H12         0.9460   -0.2260   -0.3480 h1        1 P20      0.094200
     21 H2          1.8970   -0.6950    1.9400 hc        1 P20      0.115700
     22 H4          5.0510   -1.3450    0.1970 ha        1 P20      0.171000
     23 H7          5.1840    2.1830    3.7290 ha        1 P20      0.154000
     24 H8          7.3030    1.3390    2.7820 ha        1 P20      0.147000
     25 HN9         8.2250   -0.7490    1.5540 hn        1 P20      0.425800
     26 H11         8.6890   -2.7480    0.2630 hn        1 P20      0.399400
     27 H121        6.9840    0.3640   -1.4940 hn        1 P20      0.404300
     28 H122        3.2240   -1.5090   -1.2490 ho        1 P20      0.451000
     29 H123        7.1560   -1.0490   -2.3500 hn        1 P20      0.404300
@<TRIPOS>BOND
     1    1    2 1   
     2    1   18 1   
     3    2    3 1   
     4    2   19 1   
     5    2   20 1   
     6    3    4 1   
     7    3   14 1   
     8    3   21 1   
     9    4    5 ar  
    10    4    7 ar  
    11    5    6 ar  
    12    5   22 1   
    13    6    9 ar  
    14    6   10 1   
    15    7    8 ar  
    16    7   17 1   
    17    8    9 ar  
    18    8   23 1   
    19    9   24 1   
    20   10   11 1   
    21   10   25 1   
    22   11   12 2   
    23   11   13 1   
    24   12   26 1   
    25   13   27 1   
    26   13   29 1   
    27   14   15 2   
    28   14   16 1   
    29   16   28 1   
@<TRIPOS>SUBSTRUCTURE
     1 P20         1 TEMP              0 ****  ****    0 ROOT
