@<TRIPOS>MOLECULE
P20
   29    29     1     0     0
SMALL
bcc


@<TRIPOS>ATOM
      1 S           2.3480    1.9060   -0.9150 sh        1 P20     -0.333900
      2 C1          2.5370    0.1820   -0.6030 c3        1 P20     -0.016300
      3 C2          2.6280   -0.1860    0.8680 c3        1 P20     -0.114400
      4 C3          3.9770    0.1050    1.4510 ca        1 P20     -0.054300
      5 C4          5.1060   -0.5190    0.9080 ca        1 P20     -0.151000
      6 C5          6.3990   -0.2550    1.3970 ca        1 P20      0.143600
      7 C6          4.1390    0.9840    2.5310 ca        1 P20      0.022400
      8 C7          5.4180    1.2330    3.0470 ca        1 P20     -0.103000
      9 C8          6.5360    0.6300    2.4940 ca        1 P20     -0.139000
     10 N9          7.5610   -0.8270    0.8480 nu        1 P20     -0.766600
     11 C10         7.6020   -1.3550   -0.4920 c2        1 P20      0.772100
     12 N11         8.2290   -2.4480   -0.8480 n2        1 P20     -0.868100
     13 N12         6.9130   -0.5870   -1.4810 nv        1 P20     -0.887800
     14 C13         2.2630   -1.6400    1.0890 c         1 P20      0.627100
     15 O14         1.5770   -2.0720    2.0140 o         1 P20     -0.475000
     16 O15         2.6700   -2.6070    0.2140 oh        1 P20     -0.575100
     17 Cl16        2.8220    1.7740    3.2600 cl        1 P20     -0.078400
     18 HS          1.1900    2.1170   -0.3140 hs        1 P20      0.202800
     19 H11A        3.4820   -0.0890   -1.1440 h1        1 P20      0.085700
     20 H12         1.6940   -0.3850   -1.0720 h1        1 P20      0.085700
     21 H2          1.8450    0.4090    1.4290 hc        1 P20      0.110700
     22 H4          4.9690   -1.2380    0.0830 ha        1 P20      0.147000
     23 H7          5.5380    1.9210    3.9000 ha        1 P20      0.154000
     24 H8          7.5310    0.8470    2.9120 ha        1 P20      0.147000
     25 HN9         8.1290   -1.3090    1.5120 hn        1 P20      0.427800
     26 H11         8.6040   -3.0030   -0.1110 hn        1 P20      0.397400
     27 H121        7.1990   -0.8100   -2.4130 hn        1 P20      0.405300
     28 H122        3.2120   -2.2210   -0.4860 ho        1 P20      0.428000
     29 H123        6.9260    0.3950   -1.3020 hn        1 P20      0.405300
@<TRIPOS>BOND
     1    1    2 1   
     2    1   18 1   
     3    2    3 1   
     4    2   19 1   
     5    2   20 1   
     6    3    4 1   
     7    3   14 1   
     8    3   21 1   
     9    4    5 ar  
    10    4    7 ar  
    11    5    6 ar  
    12    5   22 1   
    13    6    9 ar  
    14    6   10 1   
    15    7    8 ar  
    16    7   17 1   
    17    8    9 ar  
    18    8   23 1   
    19    9   24 1   
    20   10   11 1   
    21   10   25 1   
    22   11   12 2   
    23   11   13 1   
    24   12   26 1   
    25   13   27 1   
    26   13   29 1   
    27   14   15 2   
    28   14   16 1   
    29   16   28 1   
@<TRIPOS>SUBSTRUCTURE
     1 P20         1 TEMP              0 ****  ****    0 ROOT
