@<TRIPOS>MOLECULE
P20
   28    28     1     0     0
SMALL
bcc


@<TRIPOS>ATOM
      1 S           0.0770    0.5570   -0.2090 sh        1 P20     -0.500900
      2 C1          1.8350    0.2850   -0.1210 c3        1 P20      0.066700
      3 C2          2.3090   -0.0050    1.2880 c3        1 P20     -0.186400
      4 C3          3.7880    0.1690    1.3810 ca        1 P20      0.015700
      5 C4          4.6330   -0.8220    0.8640 ca        1 P20     -0.147000
      6 C5          6.0350   -0.7040    0.9290 ca        1 P20      0.091600
      7 C6          4.3770    1.3090    1.9540 ca        1 P20     -0.007600
      8 C7          5.7680    1.4430    2.0180 ca        1 P20     -0.125000
      9 C8          6.5980    0.4530    1.5100 ca        1 P20     -0.180000
     10 N9          6.8670   -1.7690    0.5040 nh        1 P20     -0.717600
     11 C10         7.9550   -1.4900   -0.4140 c2        1 P20      0.759100
     12 N11         9.0180   -2.2520   -0.5050 n2        1 P20     -0.879100
     13 N12         7.8380   -0.3590   -1.2710 nh        1 P20     -0.904800
     14 C13         1.8240   -1.4390    1.6900 c         1 P20      0.915600
     15 O14         2.3210   -2.4430    1.1090 o         1 P20     -0.822800
     16 O15         0.9020   -1.4900    2.5460 o         1 P20     -0.822800
     17 CL16        3.4410    2.5870    2.5910 cl        1 P20     -0.115400
     18 HS         -0.3130   -0.3020    0.7460 hs        1 P20      0.283800
     19 H11A        2.1060   -0.5730   -0.7850 h1        1 P20      0.060200
     20 H12         2.2940    1.2190   -0.5240 h1        1 P20      0.060200
     21 H2          1.8050    0.7060    2.0010 hc        1 P20      0.080700
     22 H4          4.1520   -1.7290    0.4410 ha        1 P20      0.205000
     23 H7          6.2130    2.3370    2.4780 ha        1 P20      0.129000
     24 H8          7.6890    0.5660    1.5870 ha        1 P20      0.125000
     25 HN9         6.3410   -2.5770    0.2250 hn        1 P20      0.417800
     26 H11         9.0000   -3.0760    0.0550 hn        1 P20      0.395400
     27 H121        7.2930    0.3890   -0.9000 hn        1 P20      0.401300
     28 H122        8.7010   -0.0550   -1.6670 hn        1 P20      0.401300
@<TRIPOS>BOND
     1    1    2 1   
     2    1   18 1   
     3    2    3 1   
     4    2   19 1   
     5    2   20 1   
     6    3    4 1   
     7    3   14 1   
     8    3   21 1   
     9    4    5 ar  
    10    4    7 ar  
    11    5    6 ar  
    12    5   22 1   
    13    6    9 ar  
    14    6   10 1   
    15    7    8 ar  
    16    7   17 1   
    17    8    9 ar  
    18    8   23 1   
    19    9   24 1   
    20   10   11 1   
    21   10   25 1   
    22   11   12 2   
    23   11   13 1   
    24   12   26 1   
    25   13   27 1   
    26   13   28 1   
    27   14   15 1   
    28   14   16 1   
@<TRIPOS>SUBSTRUCTURE
     1 P20         1 TEMP              0 ****  ****    0 ROOT
