@<TRIPOS>MOLECULE
P20
   28    28     1     0     0
SMALL
bcc


@<TRIPOS>ATOM
      1 S          -2.1000    0.3650    2.7090 sh        1 P20     -0.494900
      2 C1         -2.0030    1.2780    1.1740 c3        1 P20      0.074700
      3 C2         -1.7970    0.4640   -0.0790 c3        1 P20     -0.191400
      4 C3         -0.4560   -0.1850   -0.1250 ca        1 P20      0.019700
      5 C4          0.6750    0.6230   -0.3080 ca        1 P20     -0.147000
      6 C5          1.9700    0.0750   -0.3620 ca        1 P20      0.093600
      7 C6         -0.2690   -1.5710    0.0050 ca        1 P20     -0.004600
      8 C7          1.0140   -2.1270   -0.0400 ca        1 P20     -0.119000
      9 C8          2.1290   -1.3200   -0.2140 ca        1 P20     -0.180000
     10 N9          3.0890    0.8950   -0.6530 nh        1 P20     -0.715600
     11 C10         4.2610    0.7910    0.1990 c2        1 P20      0.757100
     12 N11         5.4730    1.0400   -0.2320 n2        1 P20     -0.875100
     13 N12         4.0660    0.4430    1.5650 nh        1 P20     -0.906800
     14 C13        -1.9880    1.4390   -1.3040 c         1 P20      0.931600
     15 O14        -1.3110    2.5030   -1.3170 o         1 P20     -0.816800
     16 O15        -2.8330    1.0940   -2.1660 o         1 P20     -0.816800
     17 CL16       -1.5800   -2.6450    0.2260 cl        1 P20     -0.125400
     18 HS         -2.5010   -0.8110    2.2520 hs        1 P20      0.220800
     19 H11A       -1.1600    2.0000    1.3080 h1        1 P20      0.077700
     20 H12        -2.9510    1.8600    1.0710 h1        1 P20      0.077700
     21 H2         -2.6070   -0.3110   -0.1670 hc        1 P20      0.069700
     22 H4          0.5000    1.7090   -0.4560 ha        1 P20      0.198000
     23 H7          1.1440   -3.2160    0.0600 ha        1 P20      0.129000
     24 H8          3.1290   -1.7760   -0.2600 ha        1 P20      0.125000
     25 HN9         2.8310    1.8510   -0.8130 hn        1 P20      0.415800
     26 H11         5.5310    1.3630   -1.1730 hn        1 P20      0.396400
     27 H121        4.8860    0.1190    2.0290 hn        1 P20      0.402800
     28 H122        3.2640   -0.1240    1.7400 hn        1 P20      0.402800
@<TRIPOS>BOND
     1    1    2 1   
     2    1   18 1   
     3    2    3 1   
     4    2   19 1   
     5    2   20 1   
     6    3    4 1   
     7    3   14 1   
     8    3   21 1   
     9    4    5 ar  
    10    4    7 ar  
    11    5    6 ar  
    12    5   22 1   
    13    6    9 ar  
    14    6   10 1   
    15    7    8 ar  
    16    7   17 1   
    17    8    9 ar  
    18    8   23 1   
    19    9   24 1   
    20   10   11 1   
    21   10   25 1   
    22   11   12 2   
    23   11   13 1   
    24   12   26 1   
    25   13   27 1   
    26   13   28 1   
    27   14   15 1   
    28   14   16 1   
@<TRIPOS>SUBSTRUCTURE
     1 P20         1 TEMP              0 ****  ****    0 ROOT
