@<TRIPOS>MOLECULE
P20
   28    25     1     0     0
SMALL
bcc


@<TRIPOS>ATOM
      1 S          -4.3630   -0.4080    1.7180 sh        1 P20     -0.158000
      2 C1         -2.6660    0.0970    1.8030 c3        1 P20     -0.185000
      3 C2         -2.1600    0.4030    0.4110 c3        1 P20     -0.173000
      4 C3         -0.6480    0.4550    0.4240 c2        1 P20      0.013000
      5 C4          0.0840   -0.5200   -0.2360 c2        1 P20     -0.138000
      6 C5          1.4680   -0.5160   -0.1630 c1        1 P20     -0.027000
      7 C6          0.0050    1.4350    1.1560 c1        1 P20     -0.066000
      8 C7          1.3890    1.4390    1.2280 c1        1 P20     -0.130500
      9 C8          2.1210    0.4640    0.5680 c1        1 P20     -0.130500
     10 N9          2.2130   -1.5590   -0.7720 n3        1 P20     -0.263000
     11 C10         2.7920   -1.3630   -2.0520 c2        1 P20      0.150000
     12 N11         3.9470   -0.7620   -2.1620 n1        1 P20     -0.336000
     13 N12         2.1180   -1.8210   -3.2140 n3        1 P20     -0.359000
     14 C13        -2.7070    1.7390   -0.0420 c2        1 P20      0.348000
     15 O14        -2.5370    2.1180   -1.2300 o         1 P20     -0.564500
     16 O15        -3.3620    2.4550    0.7600 o         1 P20     -0.564500
     17 CL16       -0.9170    2.6260    2.0330 cl        1 P20     -0.043000
     18 HS         -4.6790   -0.8940    2.7420 hs        1 P20      0.107000
     19 H11A       -2.1310   -0.6220    2.1940 h1        1 P20      0.109000
     20 H12        -2.5920    0.8970    2.3600 h1        1 P20      0.109000
     21 H2         -2.4560   -0.2950   -0.2040 hc        1 P20      0.107000
     22 H4         -0.3740   -1.1920   -0.7760 ha        1 P20      0.167000
     23 H7          1.8490    2.1290    1.7430 ha        1 P20      0.131000
     24 H8          3.0950    0.4640    0.6250 ha        1 P20      0.131000
     25 HN9         2.3280   -2.3510   -0.3360 hn        1 P20      0.172000
     26 H11         4.3820   -0.4670   -1.4140 DU        1 P20      0.144000
     27 H121        1.2120   -1.7240   -3.2840 hn        1 P20      0.225500
     28 H122        2.5880   -2.2280   -3.8840 hn        1 P20      0.225500
@<TRIPOS>BOND
     1    1    2 1   
     2    1   18 1   
     3    2    3 1   
     4    2   19 1   
     5    2   20 1   
     6    3    4 1   
     7    3   14 1   
     8    3   21 1   
     9    4    5 1   
    10    4    7 1   
    11    5    6 1   
    12    5   22 1   
    13    6   10 1   
    14    7   17 1   
    15    8    9 1   
    16    8   23 1   
    17    9   24 1   
    18   10   11 1   
    19   10   25 1   
    20   11   12 1   
    21   11   13 1   
    22   13   27 1   
    23   13   28 1   
    24   14   15 1   
    25   14   16 1   
@<TRIPOS>SUBSTRUCTURE
     1 P20         1 TEMP              0 ****  ****    0 ROOT
