@<TRIPOS>MOLECULE
P21
   61    63     1     0     0
SMALL
bcc


@<TRIPOS>ATOM
      1 CL15        1.5950    0.3710    3.6960 cl        1 P21     -0.012400
      2 C11         2.6890    0.2650    2.4190 ca        1 P21      0.074400
      3 C14         3.8440   -0.5230    2.5530 ca        1 P21     -0.125500
      4 C9          4.7460   -0.6190    1.5000 ca        1 P21     -0.063000
      5 C13         2.4500    0.9650    1.2290 ca        1 P21     -0.125500
      6 C8          3.3570    0.8730    0.1780 ca        1 P21     -0.063000
      7 C5          4.5040    0.0690    0.3010 ca        1 P21     -0.212600
      8 C1          5.4120    0.0390   -0.8530 c         1 P21      0.571700
      9 O7          5.5460    0.9270   -1.6860 o         1 P21     -0.426100
     10 N2          6.1970   -1.2440   -1.0630 n4        1 P21     -0.590200
     11 C12         5.8120   -1.8980   -2.3600 c3        1 P21      0.122800
     12 C19         6.3440   -1.2380   -3.6200 c3        1 P21     -0.114400
     13 C3          7.6960   -1.0830   -0.9210 c3        1 P21      0.119500
     14 C6          8.1410   -1.3550    0.5440 c3        1 P21      0.157800
     15 N4          9.5920   -1.3960    0.6250 n3        1 P21     -0.727600
     16 C18        10.2110   -0.1620    0.1570 c3        1 P21      0.151800
     17 C21         9.7490    0.2490   -1.2390 c3        1 P21     -0.082400
     18 C20         8.2380    0.2840   -1.3410 c3        1 P21     -0.094400
     19 C10        10.0400   -1.8060    1.9540 c3        1 P21      0.170800
     20 C16        11.5420   -2.0940    2.0390 c3        1 P21     -0.032100
     21 C17        11.8550   -2.7290    3.3490 ca        1 P21     -0.101300
     22 C24        12.0310   -4.1140    3.4390 ca        1 P21     -0.125000
     23 C28        12.3400   -4.7040    4.6640 ca        1 P21     -0.124500
     24 C29        12.4760   -3.9150    5.8060 ca        1 P21     -0.119000
     25 C27        12.3040   -2.5340    5.7210 ca        1 P21     -0.124500
     26 C25        11.9950   -1.9420    4.4980 ca        1 P21     -0.125000
     27 C23         5.7950   -1.9780   -4.8340 c3        1 P21      0.133400
     28 O22         6.4470   -1.3980   -5.9570 os        1 P21     -0.416600
     29 C26         6.0120   -1.9520   -7.1910 c3        1 P21      0.111700
     30 H14         4.0400   -1.0600    3.4960 ha        1 P21      0.178000
     31 H13         1.5500    1.5950    1.1240 ha        1 P21      0.178000
     32 H9          5.6590   -1.2170    1.6500 ha        1 P21      0.153500
     33 H8          3.1790    1.4370   -0.7540 ha        1 P21      0.153500
     34 H121        6.1870   -2.9630   -2.3120 hx        1 P21      0.095700
     35 H122        4.6830   -1.9150   -2.3920 hx        1 P21      0.095700
     36 H3          8.1580   -1.8750   -1.5890 hx        1 P21      0.118700
     37 H191        7.4650   -1.2730   -3.6520 hc        1 P21      0.090200
     38 H192        6.0370   -0.1590   -3.6780 hc        1 P21      0.090200
     39 H231        6.0320   -3.0750   -4.7820 h1        1 P21      0.036200
     40 H232        4.6840   -1.8430   -4.9210 h1        1 P21      0.036200
     41 H6C1        7.7510   -2.3570    0.8820 h1        1 P21      0.041700
     42 H6C2        7.6940   -0.5570    1.2090 h1        1 P21      0.041700
     43 H201        7.9290    0.5310   -2.3920 hc        1 P21      0.073200
     44 H202        7.8320    1.0860   -0.6700 hc        1 P21      0.073200
     45 H181       10.0190    0.6930    0.8700 h1        1 P21      0.057200
     46 H182       11.3240   -0.3410    0.1240 h1        1 P21      0.057200
     47 H101        9.7810   -1.0290    2.7320 h1        1 P21      0.042700
     48 H102        9.4880   -2.7540    2.2170 h1        1 P21      0.042700
     49 H211       10.1660   -0.4580   -2.0030 hc        1 P21      0.073700
     50 H212       10.1560    1.2700   -1.4620 hc        1 P21      0.073700
     51 H161       12.1210   -1.1370    1.9410 hc        1 P21      0.060200
     52 H162       11.8540   -2.7670    1.1970 hc        1 P21      0.060200
     53 H24        11.9340   -4.7400    2.5390 ha        1 P21      0.130500
     54 H25        11.8690   -0.8510    4.4310 ha        1 P21      0.130500
     55 H28        12.4820   -5.7930    4.7270 ha        1 P21      0.139000
     56 H29        12.7240   -4.3810    6.7720 ha        1 P21      0.141000
     57 H27        12.4170   -1.9090    6.6200 ha        1 P21      0.139000
     58 H261        6.6090   -1.4010   -7.9600 h1        1 P21      0.047367
     59 H262        4.9180   -1.7730   -7.3370 h1        1 P21      0.047367
     60 H263        6.2320   -3.0470   -7.2290 h1        1 P21      0.047367
     61 H21         5.9010   -1.8990   -0.3250 hn        1 P21      0.446800
@<TRIPOS>BOND
     1    1    2 1   
     2    2    3 ar  
     3    2    5 ar  
     4    3    4 ar  
     5    3   30 1   
     6    4    7 ar  
     7    4   32 1   
     8    5    6 ar  
     9    5   31 1   
    10    6    7 ar  
    11    6   33 1   
    12    7    8 1   
    13    8    9 2   
    14    8   10 1   
    15   10   11 1   
    16   10   13 1   
    17   10   61 1   
    18   11   12 1   
    19   11   34 1   
    20   11   35 1   
    21   12   27 1   
    22   12   37 1   
    23   12   38 1   
    24   13   14 1   
    25   13   18 1   
    26   13   36 1   
    27   14   15 1   
    28   14   41 1   
    29   14   42 1   
    30   15   16 1   
    31   15   19 1   
    32   16   17 1   
    33   16   45 1   
    34   16   46 1   
    35   17   18 1   
    36   17   49 1   
    37   17   50 1   
    38   18   43 1   
    39   18   44 1   
    40   19   20 1   
    41   19   47 1   
    42   19   48 1   
    43   20   21 1   
    44   20   51 1   
    45   20   52 1   
    46   21   22 ar  
    47   21   26 ar  
    48   22   23 ar  
    49   22   53 1   
    50   23   24 ar  
    51   23   55 1   
    52   24   25 ar  
    53   24   56 1   
    54   25   26 ar  
    55   25   57 1   
    56   26   54 1   
    57   27   28 1   
    58   27   39 1   
    59   27   40 1   
    60   28   29 1   
    61   29   58 1   
    62   29   59 1   
    63   29   60 1   
@<TRIPOS>SUBSTRUCTURE
     1 P21         1 TEMP              0 ****  ****    0 ROOT
