@<TRIPOS>MOLECULE
P21
   60    62     1     0     0
SMALL
bcc


@<TRIPOS>ATOM
      1 CL15       -6.7200    3.2080    0.1110 cl        1 P21     -0.087400
      2 C11        -5.2160    2.4680   -0.1650 ca        1 P21      0.026400
      3 C14        -4.0910    2.8980    0.5460 ca        1 P21     -0.127000
      4 C9         -2.8590    2.2880    0.3190 ca        1 P21     -0.093000
      5 C13        -5.1140    1.4350   -1.1030 ca        1 P21     -0.127000
      6 C8         -3.8790    0.8290   -1.3260 ca        1 P21     -0.093000
      7 C5         -2.7540    1.2520   -0.6140 ca        1 P21     -0.128600
      8 C1         -1.4170    0.6450   -0.9060 c         1 P21      0.671700
      9 O7         -0.7060    1.1100   -1.8180 o         1 P21     -0.589100
     10 N2         -0.9840   -0.4090   -0.1090 n         1 P21     -0.464800
     11 C12        -1.8600   -1.0230    0.8600 c3        1 P21      0.094000
     12 C19        -2.6750   -2.2060    0.3340 c3        1 P21     -0.112400
     13 C3          0.2540   -1.1180   -0.4140 c3        1 P21      0.112700
     14 C6          1.5000   -0.2070   -0.2280 c3        1 P21      0.152800
     15 N4          2.7440   -0.9450   -0.4210 n3        1 P21     -0.730600
     16 C18         2.8040   -1.6120   -1.7150 c3        1 P21      0.162800
     17 C21         1.5910   -2.4970   -1.9920 c3        1 P21     -0.074400
     18 C20         0.2980   -1.7320   -1.8210 c3        1 P21     -0.104400
     19 C10         3.9000   -0.0890   -0.1760 c3        1 P21      0.172800
     20 C16         5.2200   -0.8580   -0.0550 c3        1 P21     -0.039100
     21 C17         6.3030    0.0530    0.4070 ca        1 P21     -0.081300
     22 C24         6.7770   -0.0160    1.7220 ca        1 P21     -0.127000
     23 C28         7.8000    0.8300    2.1460 ca        1 P21     -0.128500
     24 C29         8.3580    1.7530    1.2610 ca        1 P21     -0.132000
     25 C27         7.8900    1.8260   -0.0510 ca        1 P21     -0.128500
     26 C25         6.8680    0.9810   -0.4770 ca        1 P21     -0.127000
     27 C23        -3.4970   -2.7960    1.4650 c3        1 P21      0.130400
     28 O22        -4.2420   -3.8750    0.9030 os        1 P21     -0.420600
     29 C26        -5.0650   -4.5210    1.8590 c3        1 P21      0.115700
     30 H14        -4.1740    3.7160    1.2780 ha        1 P21      0.152500
     31 H13        -6.0000    1.1030   -1.6660 ha        1 P21      0.152500
     32 H9         -1.9680    2.6290    0.8680 ha        1 P21      0.148000
     33 H8         -3.7910    0.0210   -2.0690 ha        1 P21      0.148000
     34 H121       -1.2290   -1.3760    1.7270 h1        1 P21      0.056200
     35 H122       -2.5700   -0.2420    1.2580 h1        1 P21      0.056200
     36 H3          0.3360   -1.9690    0.3300 h1        1 P21      0.064700
     37 H191       -3.3590   -1.8730   -0.4900 hc        1 P21      0.062200
     38 H192       -2.0000   -2.9940   -0.0890 hc        1 P21      0.062200
     39 H231       -2.8360   -3.1820    2.2870 h1        1 P21      0.027200
     40 H232       -4.2020   -2.0340    1.8930 h1        1 P21      0.027200
     41 H6C1        1.4150    0.6680   -0.9360 h1        1 P21      0.050200
     42 H6C2        1.5020    0.1910    0.8260 h1        1 P21      0.050200
     43 H201       -0.5730   -2.4220   -1.9670 hc        1 P21      0.058200
     44 H202        0.2280   -0.9180   -2.5910 hc        1 P21      0.058200
     45 H181        2.9030   -0.8670   -2.5590 h1        1 P21      0.033700
     46 H182        3.7260   -2.2590   -1.7190 h1        1 P21      0.033700
     47 H101        4.0190    0.6940   -0.9820 h1        1 P21      0.036700
     48 H102        3.7210    0.4530    0.7970 h1        1 P21      0.036700
     49 H211        1.6670   -2.8800   -3.0430 hc        1 P21      0.046700
     50 H212        1.6040   -3.3820   -1.3050 hc        1 P21      0.046700
     51 H161        5.1000   -1.7130    0.6620 hc        1 P21      0.055200
     52 H162        5.5020   -1.2910   -1.0520 hc        1 P21      0.055200
     53 H24         6.3400   -0.7430    2.4230 ha        1 P21      0.132000
     54 H25         6.5000    1.0390   -1.5120 ha        1 P21      0.132000
     55 H28         8.1680    0.7690    3.1800 ha        1 P21      0.130500
     56 H29         9.1650    2.4200    1.5970 ha        1 P21      0.130000
     57 H27         8.3280    2.5530   -0.7510 ha        1 P21      0.130500
     58 H261       -5.5780   -5.3310    1.2820 h1        1 P21      0.034033
     59 H262       -4.4470   -4.9580    2.6820 h1        1 P21      0.034033
     60 H263       -5.8130   -3.8070    2.2840 h1        1 P21      0.034033
@<TRIPOS>BOND
     1    1    2 1   
     2    2    3 ar  
     3    2    5 ar  
     4    3    4 ar  
     5    3   30 1   
     6    4    7 ar  
     7    4   32 1   
     8    5    6 ar  
     9    5   31 1   
    10    6    7 ar  
    11    6   33 1   
    12    7    8 1   
    13    8    9 2   
    14    8   10 1   
    15   10   11 1   
    16   10   13 1   
    17   11   12 1   
    18   11   34 1   
    19   11   35 1   
    20   12   27 1   
    21   12   37 1   
    22   12   38 1   
    23   13   14 1   
    24   13   18 1   
    25   13   36 1   
    26   14   15 1   
    27   14   41 1   
    28   14   42 1   
    29   15   16 1   
    30   15   19 1   
    31   16   17 1   
    32   16   45 1   
    33   16   46 1   
    34   17   18 1   
    35   17   49 1   
    36   17   50 1   
    37   18   43 1   
    38   18   44 1   
    39   19   20 1   
    40   19   47 1   
    41   19   48 1   
    42   20   21 1   
    43   20   51 1   
    44   20   52 1   
    45   21   22 ar  
    46   21   26 ar  
    47   22   23 ar  
    48   22   53 1   
    49   23   24 ar  
    50   23   55 1   
    51   24   25 ar  
    52   24   56 1   
    53   25   26 ar  
    54   25   57 1   
    55   26   54 1   
    56   27   28 1   
    57   27   39 1   
    58   27   40 1   
    59   28   29 1   
    60   29   58 1   
    61   29   59 1   
    62   29   60 1   
@<TRIPOS>SUBSTRUCTURE
     1 P21         1 TEMP              0 ****  ****    0 ROOT
