@<TRIPOS>MOLECULE
P21
   61    63     1     0     0
SMALL
bcc


@<TRIPOS>ATOM
      1 Cl15        1.5760    0.4000    3.6500 cl        1 P21     -0.012400
      2 C11         2.6770    0.2820    2.3790 ca        1 P21      0.074400
      3 C14         3.8320   -0.5030    2.5260 ca        1 P21     -0.126000
      4 C9          4.7380   -0.6090    1.4780 ca        1 P21     -0.063000
      5 C13         2.4420    0.9700    1.1810 ca        1 P21     -0.126000
      6 C8          3.3540    0.8680    0.1350 ca        1 P21     -0.063000
      7 C5          4.5020    0.0670    0.2720 ca        1 P21     -0.212600
      8 C1          5.4150    0.0270   -0.8780 c         1 P21      0.571700
      9 O7          5.5520    0.9060   -1.7190 o         1 P21     -0.426100
     10 N2          6.2020   -1.2580   -1.0720 nx        1 P21     -0.590200
     11 C12         5.8230   -1.9260   -2.3630 c3        1 P21      0.122800
     12 C19         6.3610   -1.2770   -3.6280 c3        1 P21     -0.114400
     13 C3          7.7000   -1.0930   -0.9250 c3        1 P21      0.119500
     14 C6          8.1390   -1.3490    0.5460 c3        1 P21      0.157800
     15 N4          9.5890   -1.3880    0.6340 n3        1 P21     -0.727600
     16 C18        10.2100   -0.1590    0.1550 c3        1 P21      0.151800
     17 C21         9.7530    0.2370   -1.2470 c3        1 P21     -0.082400
     18 C20         8.2420    0.2700   -1.3570 c3        1 P21     -0.094400
     19 C10        10.0310   -1.7840    1.9680 c3        1 P21      0.170800
     20 C16        11.5340   -2.0680    2.0640 c3        1 P21     -0.032100
     21 C17        11.8420   -2.6890    3.3820 ca        1 P21     -0.101300
     22 C24        12.0230   -4.0730    3.4860 ca        1 P21     -0.125000
     23 C28        12.3270   -4.6490    4.7190 ca        1 P21     -0.124500
     24 C29        12.4520   -3.8490    5.8550 ca        1 P21     -0.119000
     25 C27        12.2750   -2.4680    5.7550 ca        1 P21     -0.124500
     26 C25        11.9710   -1.8900    4.5240 ca        1 P21     -0.125000
     27 C23         5.8180   -2.0300   -4.8370 c3        1 P21      0.133400
     28 O22         6.4760   -1.4620   -5.9620 os        1 P21     -0.416600
     29 C26         6.0460   -2.0290   -7.1920 c3        1 P21      0.111700
     30 H14         4.0240   -1.0310    3.4760 ha        1 P21      0.178000
     31 H13         1.5420    1.5970    1.0660 ha        1 P21      0.178000
     32 H9          5.6520   -1.2040    1.6390 ha        1 P21      0.153500
     33 H8          3.1800    1.4230   -0.8030 ha        1 P21      0.153500
     34 H121        4.6950   -1.9440   -2.4000 hx        1 P21      0.095700
     35 H122        6.1990   -2.9890   -2.3030 hx        1 P21      0.095700
     36 H3          8.1660   -1.8920   -1.5820 hx        1 P21      0.118700
     37 H191        6.0530   -0.2000   -3.6980 hc        1 P21      0.090200
     38 H192        7.4820   -1.3110   -3.6540 hc        1 P21      0.090200
     39 H231        6.0540   -3.1270   -4.7710 h1        1 P21      0.036200
     40 H232        4.7070   -1.8970   -4.9300 h1        1 P21      0.036200
     41 H6C1        7.6880   -0.5450    1.2000 h1        1 P21      0.041700
     42 H6C2        7.7480   -2.3490    0.8920 h1        1 P21      0.041700
     43 H201        7.9380    0.5060   -2.4100 hc        1 P21      0.073200
     44 H202        7.8320    1.0790   -0.6950 hc        1 P21      0.073200
     45 H181       10.0130    0.7040    0.8590 h1        1 P21      0.057200
     46 H182       11.3220   -0.3370    0.1290 h1        1 P21      0.057200
     47 H101        9.4800   -2.7300    2.2390 h1        1 P21      0.042700
     48 H102        9.7680   -0.9990    2.7380 h1        1 P21      0.042700
     49 H211       10.1740   -0.4770   -2.0020 hc        1 P21      0.073700
     50 H212       10.1600    1.2560   -1.4790 hc        1 P21      0.073700
     51 H161       12.1120   -1.1110    1.9590 hc        1 P21      0.060200
     52 H162       11.8510   -2.7490    1.2310 hc        1 P21      0.060200
     53 H24        11.9340   -4.7070    2.5920 ha        1 P21      0.130500
     54 H25        11.8410   -0.8000    4.4460 ha        1 P21      0.130500
     55 H28        12.4740   -5.7370    4.7940 ha        1 P21      0.139000
     56 H29        12.6960   -4.3040    6.8260 ha        1 P21      0.141000
     57 H27        12.3800   -1.8340    6.6480 ha        1 P21      0.139000
     58 H261        6.6480   -1.4860   -7.9650 h1        1 P21      0.047367
     59 H262        4.9530   -1.8510   -7.3460 h1        1 P21      0.047367
     60 H263        6.2660   -3.1240   -7.2180 h1        1 P21      0.047367
     61 H21         5.9030   -1.9060   -0.3280 hn        1 P21      0.446800
@<TRIPOS>BOND
     1    1    2 1   
     2    2    3 ar  
     3    2    5 ar  
     4    3    4 ar  
     5    3   30 1   
     6    4    7 ar  
     7    4   32 1   
     8    5    6 ar  
     9    5   31 1   
    10    6    7 ar  
    11    6   33 1   
    12    7    8 1   
    13    8    9 2   
    14    8   10 1   
    15   10   11 1   
    16   10   13 1   
    17   10   61 1   
    18   11   12 1   
    19   11   34 1   
    20   11   35 1   
    21   12   27 1   
    22   12   37 1   
    23   12   38 1   
    24   13   14 1   
    25   13   18 1   
    26   13   36 1   
    27   14   15 1   
    28   14   41 1   
    29   14   42 1   
    30   15   16 1   
    31   15   19 1   
    32   16   17 1   
    33   16   45 1   
    34   16   46 1   
    35   17   18 1   
    36   17   49 1   
    37   17   50 1   
    38   18   43 1   
    39   18   44 1   
    40   19   20 1   
    41   19   47 1   
    42   19   48 1   
    43   20   21 1   
    44   20   51 1   
    45   20   52 1   
    46   21   22 ar  
    47   21   26 ar  
    48   22   23 ar  
    49   22   53 1   
    50   23   24 ar  
    51   23   55 1   
    52   24   25 ar  
    53   24   56 1   
    54   25   26 ar  
    55   25   57 1   
    56   26   54 1   
    57   27   28 1   
    58   27   39 1   
    59   27   40 1   
    60   28   29 1   
    61   29   58 1   
    62   29   59 1   
    63   29   60 1   
@<TRIPOS>SUBSTRUCTURE
     1 P21         1 TEMP              0 ****  ****    0 ROOT
