@<TRIPOS>MOLECULE
P21
   61    63     1     0     0
SMALL
bcc


@<TRIPOS>ATOM
      1 CL15        1.5670    0.4060    3.6310 cl        1 P21     -0.012400
      2 C11         2.6720    0.2880    2.3640 ca        1 P21      0.074400
      3 C14         3.8250   -0.4990    2.5140 ca        1 P21     -0.126000
      4 C9          4.7350   -0.6050    1.4690 ca        1 P21     -0.063000
      5 C13         2.4440    0.9800    1.1680 ca        1 P21     -0.126000
      6 C8          3.3590    0.8790    0.1240 ca        1 P21     -0.063000
      7 C5          4.5040    0.0740    0.2630 ca        1 P21     -0.212600
      8 C1          5.4210    0.0350   -0.8830 c         1 P21      0.571700
      9 O7          5.5630    0.9170   -1.7220 o         1 P21     -0.426100
     10 N2          6.2070   -1.2510   -1.0770 n4        1 P21     -0.590200
     11 C12         5.8300   -1.9140   -2.3720 c3        1 P21      0.122800
     12 C19         6.3740   -1.2640   -3.6330 c3        1 P21     -0.114400
     13 C3          7.7040   -1.0900   -0.9240 c3        1 P21      0.119500
     14 C6          8.1370   -1.3510    0.5470 c3        1 P21      0.157800
     15 N4          9.5870   -1.3930    0.6400 n3        1 P21     -0.727600
     16 C18        10.2120   -0.1640    0.1680 c3        1 P21      0.151800
     17 C21         9.7610    0.2370   -1.2350 c3        1 P21     -0.082400
     18 C20         8.2510    0.2740   -1.3500 c3        1 P21     -0.094400
     19 C10        10.0230   -1.7950    1.9750 c3        1 P21      0.170800
     20 C16        11.5250   -2.0810    2.0760 c3        1 P21     -0.032100
     21 C17        11.8270   -2.7080    3.3920 ca        1 P21     -0.101300
     22 C24        12.0070   -4.0920    3.4920 ca        1 P21     -0.125000
     23 C28        12.3050   -4.6730    4.7240 ca        1 P21     -0.124500
     24 C29        12.4250   -3.8780    5.8630 ca        1 P21     -0.119000
     25 C27        12.2480   -2.4970    5.7690 ca        1 P21     -0.124500
     26 C25        11.9500   -1.9140    4.5380 ca        1 P21     -0.125000
     27 C23         5.8340   -2.0120   -4.8460 c3        1 P21      0.133400
     28 O22         6.4980   -1.4430   -5.9670 os        1 P21     -0.416600
     29 C26         6.0710   -2.0050   -7.2010 c3        1 P21      0.111700
     30 H14         4.0110   -1.0300    3.4620 ha        1 P21      0.178000
     31 H13         1.5450    1.6110    1.0500 ha        1 P21      0.178000
     32 H9          5.6460   -1.2030    1.6310 ha        1 P21      0.153500
     33 H8          3.1890    1.4370   -0.8130 ha        1 P21      0.153500
     34 H121        6.2040   -2.9780   -2.3130 hx        1 P21      0.095700
     35 H122        4.7020   -1.9290   -2.4130 hx        1 P21      0.095700
     36 H3          8.1700   -1.8880   -1.5820 hx        1 P21      0.118700
     37 H191        7.4960   -1.3000   -3.6550 hc        1 P21      0.090200
     38 H192        6.0690   -0.1850   -3.7010 hc        1 P21      0.090200
     39 H231        6.0670   -3.1090   -4.7820 h1        1 P21      0.036200
     40 H232        4.7240   -1.8750   -4.9430 h1        1 P21      0.036200
     41 H6C1        7.7430   -2.3510    0.8890 h1        1 P21      0.041700
     42 H6C2        7.6860   -0.5480    1.2020 h1        1 P21      0.041700
     43 H201        7.8400    1.0810   -0.6880 hc        1 P21      0.073200
     44 H202        7.9510    0.5130   -2.4050 hc        1 P21      0.073200
     45 H181       11.3240   -0.3450    0.1450 h1        1 P21      0.057200
     46 H182       10.0140    0.6960    0.8730 h1        1 P21      0.057200
     47 H101        9.7570   -1.0120    2.7460 h1        1 P21      0.042700
     48 H102        9.4700   -2.7410    2.2400 h1        1 P21      0.042700
     49 H211       10.1840   -0.4760   -1.9900 hc        1 P21      0.073700
     50 H212       10.1710    1.2560   -1.4630 hc        1 P21      0.073700
     51 H161       11.8450   -2.7600    1.2420 hc        1 P21      0.060200
     52 H162       12.1040   -1.1250    1.9770 hc        1 P21      0.060200
     53 H24        11.9220   -4.7230    2.5950 ha        1 P21      0.130500
     54 H25        11.8200   -0.8240    4.4650 ha        1 P21      0.130500
     55 H28        12.4510   -5.7620    4.7950 ha        1 P21      0.139000
     56 H29        12.6650   -4.3370    6.8340 ha        1 P21      0.141000
     57 H27        12.3490   -1.8670    6.6650 ha        1 P21      0.139000
     58 H261        6.6780   -1.4620   -7.9690 h1        1 P21      0.047367
     59 H262        4.9800   -1.8230   -7.3580 h1        1 P21      0.047367
     60 H263        6.2880   -3.1010   -7.2280 h1        1 P21      0.047367
     61 H21         5.9030   -1.9000   -0.3360 hn        1 P21      0.446800
@<TRIPOS>BOND
     1    1    2 1   
     2    2    3 ar  
     3    2    5 ar  
     4    3    4 ar  
     5    3   30 1   
     6    4    7 ar  
     7    4   32 1   
     8    5    6 ar  
     9    5   31 1   
    10    6    7 ar  
    11    6   33 1   
    12    7    8 1   
    13    8    9 2   
    14    8   10 1   
    15   10   11 1   
    16   10   13 1   
    17   10   61 1   
    18   11   12 1   
    19   11   34 1   
    20   11   35 1   
    21   12   27 1   
    22   12   37 1   
    23   12   38 1   
    24   13   14 1   
    25   13   18 1   
    26   13   36 1   
    27   14   15 1   
    28   14   41 1   
    29   14   42 1   
    30   15   16 1   
    31   15   19 1   
    32   16   17 1   
    33   16   45 1   
    34   16   46 1   
    35   17   18 1   
    36   17   49 1   
    37   17   50 1   
    38   18   43 1   
    39   18   44 1   
    40   19   20 1   
    41   19   47 1   
    42   19   48 1   
    43   20   21 1   
    44   20   51 1   
    45   20   52 1   
    46   21   22 ar  
    47   21   26 ar  
    48   22   23 ar  
    49   22   53 1   
    50   23   24 ar  
    51   23   55 1   
    52   24   25 ar  
    53   24   56 1   
    54   25   26 ar  
    55   25   57 1   
    56   26   54 1   
    57   27   28 1   
    58   27   39 1   
    59   27   40 1   
    60   28   29 1   
    61   29   58 1   
    62   29   59 1   
    63   29   60 1   
@<TRIPOS>SUBSTRUCTURE
     1 P21         1 TEMP              0 ****  ****    0 ROOT
