@<TRIPOS>MOLECULE
P21
   60    58     1     0     0
SMALL
bcc


@<TRIPOS>ATOM
      1 CL15       -8.3070    1.5970    0.5100 cl        1 P21     -0.010000
      2 C11        -6.5620    1.6550    0.5200 c2        1 P21     -0.053000
      3 C14        -5.8920    2.0730    1.6550 c2        1 P21     -0.128000
      4 C9         -4.4980    2.0430    1.6930 c1        1 P21     -0.093000
      5 C13        -5.8440    1.2030   -0.5880 c1        1 P21     -0.128000
      6 C8         -4.4580    1.1730   -0.5510 c1        1 P21     -0.095000
      7 C5         -3.7820    1.5930    0.5910 c1        1 P21     -0.106000
      8 C1         -2.2370    1.7080    0.5750 c2        1 P21      0.342000
      9 O7         -1.6540    2.1920    1.5270 o         1 P21     -0.353000
     10 N2         -1.4860    1.2670   -0.5890 n         1 P21     -0.322000
     11 C12        -2.1880    0.6530   -1.7280 c3        1 P21     -0.025000
     12 C19        -1.1580    0.2340   -2.8070 c3        1 P21     -0.187000
     13 C3         -0.0160    1.4070   -0.6160 c3        1 P21      0.035000
     14 C6          0.5970    0.3950    0.3480 c3        1 P21     -0.093000
     15 N4          2.0500    0.5860    0.5170 n3        1 P21     -0.253000
     16 C18         2.4040    1.9570    0.8600 c3        1 P21     -0.073000
     17 C21         1.7980    2.9740   -0.1020 c3        1 P21     -0.155000
     18 C20         0.3340    2.7880   -0.2720 c3        1 P21     -0.172000
     19 C10         2.5430   -0.3150    1.5490 c3        1 P21     -0.064000
     20 C16         3.8590   -0.9890    1.0640 c3        1 P21     -0.126000
     21 C17         4.2690   -2.0950    2.0560 c2        1 P21     -0.073000
     22 C24         5.1380   -1.8040    3.0980 c2        1 P21     -0.126000
     23 C28         5.5000   -2.7990    4.0000 c1        1 P21     -0.129000
     24 C29         4.9930   -4.0810    3.8590 c1        1 P21     -0.130500
     25 C27         4.1230   -4.3730    2.8160 c1        1 P21     -0.130500
     26 C25         3.7610   -3.3790    1.9140 c1        1 P21     -0.128000
     27 C23        -1.8260   -0.7660   -3.8010 c3        1 P21     -0.021000
     28 O22        -0.8100   -1.4730   -4.5240 os        1 P21     -0.282000
     29 C26        -1.3050   -2.5950   -5.2750 c3        1 P21     -0.074000
     30 H14        -6.3950    2.3890    2.4290 ha        1 P21      0.151000
     31 H13        -6.3180    0.9070   -1.3900 ha        1 P21      0.152000
     32 H9         -4.0250    2.3390    2.4960 ha        1 P21      0.147000
     33 H8         -3.9620    0.8600   -1.3170 ha        1 P21      0.149000
     34 H121       -2.8110    1.2960   -2.1080 h1        1 P21      0.103000
     35 H122       -2.6760   -0.1330   -1.4240 h1        1 P21      0.103000
     36 H3          0.3030    1.2160   -1.5180 h1        1 P21      0.110000
     37 H191       -0.8570    1.0250   -3.2930 hc        1 P21      0.098000
     38 H192       -0.3960   -0.1940   -2.3790 hc        1 P21      0.098000
     39 H231       -2.3750   -1.4060   -3.3000 h1        1 P21      0.069000
     40 H232       -2.3980   -0.2670   -4.4370 h1        1 P21      0.069000
     41 H6C1        0.4360   -0.5030    0.0070 h1        1 P21      0.085500
     42 H6C2        0.1620    0.4850    1.2210 h1        1 P21      0.085500
     43 H201       -0.1140    3.0290    0.5610 hc        1 P21      0.098500
     44 H202        0.0210    3.3790   -0.9820 hc        1 P21      0.098500
     45 H181        3.3770    2.0460    0.8420 h1        1 P21      0.072500
     46 H182        2.0850    2.1490    1.7670 h1        1 P21      0.072500
     47 H101        2.7190    0.1960    2.3760 h1        1 P21      0.076000
     48 H102        1.8760   -0.9990    1.7270 h1        1 P21      0.076000
     49 H211        2.2340    2.8830   -0.9790 hc        1 P21      0.086000
     50 H212        1.9660    3.8810    0.2450 hc        1 P21      0.086000
     51 H161        4.5640   -0.3230    1.0130 hc        1 P21      0.095000
     52 H162        3.7180   -1.3810    0.1820 hc        1 P21      0.095000
     53 H24         5.4920   -0.9100    3.1970 ha        1 P21      0.131000
     54 H25         3.1490   -3.5840    1.1790 ha        1 P21      0.133000
     55 H28         6.1120   -2.5940    4.7330 ha        1 P21      0.130000
     56 H29         5.2480   -4.7790    4.4920 ha        1 P21      0.130000
     57 H27         3.7640   -5.2810    2.7160 ha        1 P21      0.130000
     58 H261       -0.5610   -3.2270   -5.4550 h1        1 P21      0.073000
     59 H262       -2.0050   -3.0510   -4.7590 h1        1 P21      0.073000
     60 H263       -1.6830   -2.2770   -6.1350 h1        1 P21      0.073000
@<TRIPOS>BOND
     1    1    2 1   
     2    2    3 1   
     3    2    5 1   
     4    3    4 1   
     5    3   30 1   
     6    4   32 1   
     7    5   31 1   
     8    6    7 1   
     9    6   33 1   
    10    7    8 1   
    11    8    9 1   
    12    8   10 1   
    13   10   11 1   
    14   10   13 1   
    15   11   12 1   
    16   11   34 1   
    17   11   35 1   
    18   12   27 1   
    19   12   37 1   
    20   12   38 1   
    21   13   14 1   
    22   13   18 1   
    23   13   36 1   
    24   14   15 1   
    25   14   41 1   
    26   14   42 1   
    27   15   16 1   
    28   15   19 1   
    29   16   17 1   
    30   16   45 1   
    31   16   46 1   
    32   17   18 1   
    33   17   49 1   
    34   17   50 1   
    35   18   43 1   
    36   18   44 1   
    37   19   20 1   
    38   19   47 1   
    39   19   48 1   
    40   20   21 1   
    41   20   51 1   
    42   20   52 1   
    43   21   22 1   
    44   21   26 1   
    45   22   23 1   
    46   22   53 1   
    47   23   55 1   
    48   24   25 1   
    49   24   56 1   
    50   25   57 1   
    51   26   54 1   
    52   27   28 1   
    53   27   39 1   
    54   27   40 1   
    55   28   29 1   
    56   29   58 1   
    57   29   59 1   
    58   29   60 1   
@<TRIPOS>SUBSTRUCTURE
     1 P21         1 TEMP              0 ****  ****    0 ROOT
