@<TRIPOS>MOLECULE
P22
   16    15     1     0     0
SMALL
bcc


@<TRIPOS>ATOM
      1 C6         -2.7740   -0.0390   -1.4140 c3        1 P22     -0.122100
      2 C7         -1.2610   -0.0390   -1.4140 c3        1 P22      0.242400
      3 O7         -0.7920   -0.0390   -0.0860 os        1 P22     -0.562200
      4 PA          0.7690    0.0050    0.1620 p5        1 P22      1.578800
      5 O1A         1.4160   -1.1890   -0.4990 o         1 P22     -0.934500
      6 O2A         1.3360    1.2750   -0.4260 o         1 P22     -0.934500
      7 O3A         1.0570   -0.0320    1.7150 os        1 P22     -0.803800
      8 PB          2.5080    0.0440    2.3380 p5        1 P22      1.462900
      9 O1B         3.3690   -1.0440    1.7430 o         1 P22     -0.962167
     10 O2B         2.4230   -0.1420    3.8340 o         1 P22     -0.962167
     11 O3B         3.1170    1.3920    2.0330 o         1 P22     -0.962167
     12 H61        -3.0990   -0.0320   -2.3340 hc        1 P22      0.002367
     13 H62        -3.0990    0.7550   -0.9480 hc        1 P22      0.002367
     14 H63        -3.0990   -0.8390   -0.9590 hc        1 P22      0.002367
     15 H71        -0.9360    0.7580   -1.8740 h1        1 P22     -0.024800
     16 H72        -0.9360   -0.8360   -1.8740 h1        1 P22     -0.024800
@<TRIPOS>BOND
     1    1    2 1   
     2    1   12 1   
     3    1   13 1   
     4    1   14 1   
     5    2    3 1   
     6    2   15 1   
     7    2   16 1   
     8    3    4 1   
     9    4    5 1   
    10    4    6 1   
    11    4    7 1   
    12    7    8 1   
    13    8    9 1   
    14    8   10 1   
    15    8   11 1   
@<TRIPOS>SUBSTRUCTURE
     1 P22         1 TEMP              0 ****  ****    0 ROOT
