@<TRIPOS>MOLECULE
P23
   19    18     1     0     0
SMALL
bcc


@<TRIPOS>ATOM
      1 C5         -3.0960   -0.0160   -1.8040 c3        1 P23     -0.075100
      2 C6         -1.5830   -0.0160   -1.8040 c3        1 P23     -0.103400
      3 C7         -1.0790   -0.0160   -0.3780 c3        1 P23      0.203400
      4 O7          0.3280    0.0410   -0.3780 os        1 P23     -0.562200
      5 PA          1.0840   -0.0080    1.0100 p5        1 P23      1.576800
      6 O1A         0.5740    1.1010    1.9000 o         1 P23     -0.935500
      7 O2A         0.8330   -1.3410    1.6730 o         1 P23     -0.935500
      8 O3A         2.6350    0.1790    0.7720 os        1 P23     -0.803800
      9 PB          3.7150    0.0810    1.9220 p5        1 P23      1.463900
     10 O1B         3.2740    0.9180    3.0990 o         1 P23     -0.962167
     11 O2B         5.0420    0.5910    1.4110 o         1 P23     -0.962167
     12 O3B         3.8620   -1.3580    2.3550 o         1 P23     -0.962167
     13 H51        -3.4220   -0.0300   -2.7240 hc        1 P23     -0.002300
     14 H52        -3.4220    0.7870   -1.3560 hc        1 P23     -0.002300
     15 H53        -3.4220   -0.8060   -1.3320 hc        1 P23     -0.002300
     16 H61        -1.2580    0.7810   -2.2640 hc        1 P23      0.027700
     17 H62        -1.2580   -0.8130   -2.2640 hc        1 P23      0.027700
     18 H71        -1.4360    0.7600    0.0940 h1        1 P23      0.003700
     19 H72        -1.3720   -0.8320    0.0710 h1        1 P23      0.003700
@<TRIPOS>BOND
     1    1    2 1   
     2    1   13 1   
     3    1   14 1   
     4    1   15 1   
     5    2    3 1   
     6    2   16 1   
     7    2   17 1   
     8    3    4 1   
     9    3   18 1   
    10    3   19 1   
    11    4    5 1   
    12    5    6 1   
    13    5    7 1   
    14    5    8 1   
    15    8    9 1   
    16    9   10 1   
    17    9   11 1   
    18    9   12 1   
@<TRIPOS>SUBSTRUCTURE
     1 P23         1 TEMP              0 ****  ****    0 ROOT
