@<TRIPOS>MOLECULE
P24
   26    25     1     0     0
SMALL
bcc


@<TRIPOS>ATOM
      1 N1         -0.3190    0.1730   -4.9020 n3        1 P24     -0.915800
      2 C2          0.4770    0.0170   -3.7080 c3        1 P24      0.152800
      3 C3         -0.3910   -0.0280   -2.4320 c3        1 P24      0.158800
      4 N4          0.4120   -0.1860   -1.2360 n3        1 P24     -0.825200
      5 C5         -0.3690   -0.0820   -0.0180 c3        1 P24      0.164800
      6 C6          0.4920   -0.0500    1.2430 c3        1 P24     -0.083400
      7 C7         -0.3920    0.0070    2.4700 c3        1 P24     -0.082400
      8 C8          0.4670    0.0340    3.7340 c3        1 P24      0.159800
      9 N9         -0.3090    0.0410    4.9510 n3        1 P24     -0.916800
     10 HN11       -1.0410   -0.5180   -4.9470 hn        1 P24      0.349800
     11 HN12        0.2600    0.0960   -5.7140 hn        1 P24      0.349800
     12 H21         1.1730    0.9030   -3.6530 h1        1 P24      0.032200
     13 H22         1.1210   -0.9120   -3.7350 h1        1 P24      0.032200
     14 H31        -1.0880   -0.9110   -2.4860 h1        1 P24      0.035700
     15 H32        -1.0320    0.9030   -2.3970 h1        1 P24      0.035700
     16 HN4         1.1680    0.4730   -1.2280 hn        1 P24      0.354800
     17 H51        -1.0450   -0.9830    0.0230 h1        1 P24      0.030200
     18 H52        -1.0360    0.8320   -0.0170 h1        1 P24      0.030200
     19 H61         1.1700    0.8430    1.2230 hc        1 P24      0.046700
     20 H62         1.1410   -0.9630    1.2860 hc        1 P24      0.046700
     21 H71        -1.0710   -0.8860    2.4910 hc        1 P24      0.048200
     22 H72        -1.0420    0.9200    2.4280 hc        1 P24      0.048200
     23 H81         1.1650    0.9220    3.6610 h1        1 P24      0.024700
     24 H82         1.1120   -0.8900    3.7540 h1        1 P24      0.024700
     25 HN91        0.2880    0.1730    5.7430 hn        1 P24      0.348300
     26 HN92       -1.0000    0.7640    4.9360 hn        1 P24      0.348300
@<TRIPOS>BOND
     1    1    2 1   
     2    1   10 1   
     3    1   11 1   
     4    2    3 1   
     5    2   12 1   
     6    2   13 1   
     7    3    4 1   
     8    3   14 1   
     9    3   15 1   
    10    4    5 1   
    11    4   16 1   
    12    5    6 1   
    13    5   17 1   
    14    5   18 1   
    15    6    7 1   
    16    6   19 1   
    17    6   20 1   
    18    7    8 1   
    19    7   21 1   
    20    7   22 1   
    21    8    9 1   
    22    8   23 1   
    23    8   24 1   
    24    9   25 1   
    25    9   26 1   
@<TRIPOS>SUBSTRUCTURE
     1 P24         1 TEMP              0 ****  ****    0 ROOT
