@<TRIPOS>MOLECULE
P24
   29    28     1     0     0
SMALL
bcc


@<TRIPOS>ATOM
      1 N1         -0.0990   -0.0030   -0.1240 n4        1 P24     -0.834600
      2 C2          1.3850    0.0010   -0.0440 c3        1 P24      0.074800
      3 C3          1.9150   -0.0020    1.4100 c3        1 P24      0.077800
      4 N4          3.4060    0.0020    1.4710 n4        1 P24     -0.763000
      5 C5          3.9050   -0.0010    2.8940 c3        1 P24      0.110800
      6 C6          5.4320    0.0010    2.9760 c3        1 P24     -0.108400
      7 C7          5.8650    0.0010    4.4350 c3        1 P24     -0.106400
      8 C8          7.3930    0.0010    4.5100 c3        1 P24      0.101800
      9 N9          7.9230    0.0010    5.9030 n4        1 P24     -0.837600
     10 HN11       -0.5020    0.8320    0.3260 hn        1 P24      0.494133
     11 HN12       -0.3820   -0.0010   -1.1210 hn        1 P24      0.494133
     12 H21         1.7580   -0.9150   -0.5990 hx        1 P24      0.142700
     13 H22         1.7520    0.9220   -0.5930 hx        1 P24      0.142700
     14 H31         1.5440    0.9140    1.9630 hx        1 P24      0.137700
     15 H32         1.5480   -0.9220    1.9570 hx        1 P24      0.137700
     16 HN4         3.7730    0.8370    0.9910 hn        1 P24      0.471800
     17 H51         3.4910   -0.9210    3.4010 hx        1 P24      0.125700
     18 H52         3.4880    0.9170    3.4050 hx        1 P24      0.125700
     19 H61         5.8490    0.9110    2.4640 hc        1 P24      0.090700
     20 H62         5.8520   -0.9060    2.4620 hc        1 P24      0.090700
     21 H71         5.4520    0.9080    4.9530 hc        1 P24      0.087700
     22 H72         5.4520   -0.9080    4.9520 hc        1 P24      0.087700
     23 H81         7.8030    0.9180    3.9910 hx        1 P24      0.125700
     24 H82         7.8030   -0.9170    3.9920 hx        1 P24      0.125700
     25 HN91        7.6100    0.8360    6.4140 hn        1 P24      0.480133
     26 HN92        7.6090   -0.8330    6.4150 hn        1 P24      0.480133
     27 H13        -0.4970   -0.8430    0.3200 hn        1 P24      0.494133
     28 H42         3.7770   -0.8300    0.9870 hn        1 P24      0.471800
     29 H93         8.9540    0.0010    5.8780 hn        1 P24      0.480133
@<TRIPOS>BOND
     1    1    2 1   
     2    1   10 1   
     3    1   11 1   
     4    1   27 1   
     5    2    3 1   
     6    2   12 1   
     7    2   13 1   
     8    3    4 1   
     9    3   14 1   
    10    3   15 1   
    11    4    5 1   
    12    4   16 1   
    13    4   28 1   
    14    5    6 1   
    15    5   17 1   
    16    5   18 1   
    17    6    7 1   
    18    6   19 1   
    19    6   20 1   
    20    7    8 1   
    21    7   21 1   
    22    7   22 1   
    23    8    9 1   
    24    8   23 1   
    25    8   24 1   
    26    9   25 1   
    27    9   26 1   
    28    9   29 1   
@<TRIPOS>SUBSTRUCTURE
     1 P24         1 TEMP              0 ****  ****    0 ROOT
