@<TRIPOS>MOLECULE
P24
   29    28     1     0     0
SMALL
bcc


@<TRIPOS>ATOM
      1 N1         -0.0980   -0.0000   -0.1250 nz        1 P24     -0.834600
      2 C2          1.3860   -0.0010   -0.0450 c3        1 P24      0.074800
      3 C3          1.9150   -0.0000    1.4090 c3        1 P24      0.077800
      4 N4          3.4070   -0.0010    1.4710 ny        1 P24     -0.763000
      5 C5          3.9050    0.0000    2.8940 c3        1 P24      0.110800
      6 C6          5.4320   -0.0010    2.9770 c3        1 P24     -0.108400
      7 C7          5.8640    0.0010    4.4360 c3        1 P24     -0.106400
      8 C8          7.3920   -0.0000    4.5120 c3        1 P24      0.101800
      9 N9          7.9220    0.0020    5.9050 nz        1 P24     -0.837600
     10 HN11       -0.4990   -0.8370    0.3220 hn        1 P24      0.494133
     11 HN12       -0.3810   -0.0010   -1.1230 hn        1 P24      0.494133
     12 H21         1.7560   -0.9200   -0.5960 hx        1 P24      0.142700
     13 H22         1.7560    0.9170   -0.5970 hx        1 P24      0.142700
     14 H31         1.5460   -0.9180    1.9600 hx        1 P24      0.137700
     15 H32         1.5470    0.9180    1.9590 hx        1 P24      0.137700
     16 HN4         3.7760    0.8310    0.9880 hn        1 P24      0.471800
     17 H51         3.4900    0.9200    3.4020 hx        1 P24      0.125700
     18 H52         3.4890   -0.9180    3.4040 hx        1 P24      0.125700
     19 H61         5.8500   -0.9110    2.4660 hc        1 P24      0.090700
     20 H62         5.8510    0.9070    2.4630 hc        1 P24      0.090700
     21 H71         5.4500   -0.9050    4.9550 hc        1 P24      0.087700
     22 H72         5.4520    0.9110    4.9520 hc        1 P24      0.087700
     23 H81         7.8020   -0.9190    3.9950 hx        1 P24      0.125700
     24 H82         7.8040    0.9150    3.9910 hx        1 P24      0.125700
     25 HN91        8.9530    0.0010    5.8800 hn        1 P24      0.480133
     26 HN92        7.6070   -0.8310    6.4180 hn        1 P24      0.480133
     27 H13        -0.4980    0.8370    0.3210 hn        1 P24      0.494133
     28 H42         3.7760   -0.8350    0.9900 hn        1 P24      0.471800
     29 H93         7.6090    0.8390    6.4140 hn        1 P24      0.480133
@<TRIPOS>BOND
     1    1    2 1   
     2    1   10 1   
     3    1   11 1   
     4    1   27 1   
     5    2    3 1   
     6    2   12 1   
     7    2   13 1   
     8    3    4 1   
     9    3   14 1   
    10    3   15 1   
    11    4    5 1   
    12    4   16 1   
    13    4   28 1   
    14    5    6 1   
    15    5   17 1   
    16    5   18 1   
    17    6    7 1   
    18    6   19 1   
    19    6   20 1   
    20    7    8 1   
    21    7   21 1   
    22    7   22 1   
    23    8    9 1   
    24    8   23 1   
    25    8   24 1   
    26    9   25 1   
    27    9   26 1   
    28    9   29 1   
@<TRIPOS>SUBSTRUCTURE
     1 P24         1 TEMP              0 ****  ****    0 ROOT
