@<TRIPOS>MOLECULE
P24
   26    25     1     0     0
SMALL
bcc


@<TRIPOS>ATOM
      1 N1         -4.1730   -0.4210   -2.4830 n3        1 P24     -0.915800
      2 C2         -2.7400   -0.4210   -2.4830 c3        1 P24      0.152800
      3 C3         -2.2310   -0.4210   -1.0460 c3        1 P24      0.158800
      4 N4         -0.7900   -0.3690   -1.0460 n3        1 P24     -0.825200
      5 C5         -0.3120   -0.1910    0.3070 c3        1 P24      0.163800
      6 C6          1.1840    0.1550    0.2800 c3        1 P24     -0.083400
      7 C7          1.7010    0.3030    1.7150 c3        1 P24     -0.082400
      8 C8          3.1870    0.6500    1.6880 c3        1 P24      0.158800
      9 N9          3.6750    0.7630    3.0300 n3        1 P24     -0.916800
     10 HN11       -4.4770   -1.1530   -2.9350 hn        1 P24      0.349800
     11 HN12       -4.4770    0.3360   -2.8910 hn        1 P24      0.349800
     12 H21        -2.4150    0.3760   -2.9430 h1        1 P24      0.031700
     13 H22        -2.4150   -1.2180   -2.9430 h1        1 P24      0.031700
     14 H31        -2.5850    0.3580   -0.5750 h1        1 P24      0.036200
     15 H32        -2.5280   -1.2350   -0.5960 h1        1 P24      0.036200
     16 HN4        -0.4580   -1.1480   -1.3860 hn        1 P24      0.355800
     17 H51        -0.4450   -1.0170    0.8110 h1        1 P24      0.030700
     18 H52        -0.8060    0.5340    0.7340 h1        1 P24      0.030700
     19 H61         1.6750   -0.5580   -0.1710 hc        1 P24      0.047200
     20 H62         1.3150    0.9940   -0.2010 hc        1 P24      0.047200
     21 H71         1.2090    1.0150    2.1660 hc        1 P24      0.048200
     22 H72         1.5720   -0.5370    2.1950 hc        1 P24      0.048200
     23 H81         3.3150    1.4990    1.2230 h1        1 P24      0.024700
     24 H82         3.6770   -0.0540    1.2220 h1        1 P24      0.024700
     25 HN91        3.9970    1.6050    3.1670 hn        1 P24      0.348300
     26 HN92        4.3440    0.1570    3.1630 hn        1 P24      0.348300
@<TRIPOS>BOND
     1    1    2 1   
     2    1   10 1   
     3    1   11 1   
     4    2    3 1   
     5    2   12 1   
     6    2   13 1   
     7    3    4 1   
     8    3   14 1   
     9    3   15 1   
    10    4    5 1   
    11    4   16 1   
    12    5    6 1   
    13    5   17 1   
    14    5   18 1   
    15    6    7 1   
    16    6   19 1   
    17    6   20 1   
    18    7    8 1   
    19    7   21 1   
    20    7   22 1   
    21    8    9 1   
    22    8   23 1   
    23    8   24 1   
    24    9   25 1   
    25    9   26 1   
@<TRIPOS>SUBSTRUCTURE
     1 P24         1 TEMP              0 ****  ****    0 ROOT
