@<TRIPOS>MOLECULE
P25
   25    24     1     0     0
SMALL
bcc


@<TRIPOS>ATOM
      1 C4          2.4550   -0.1880   -2.4110 c3        1 P25     -0.084400
      2 CM4         3.9680   -0.1880   -2.4110 c3        1 P25     -0.084100
      3 C5          1.9510   -0.1880   -0.9850 c3        1 P25     -0.066400
      4 C6          0.4430   -0.0690   -0.9830 c3        1 P25     -0.133400
      5 C7         -0.0670   -0.1350    0.4400 c3        1 P25      0.251400
      6 O7         -1.4380    0.1830    0.4630 os        1 P25     -0.558200
      7 PA         -2.2310    0.0050    1.8190 p5        1 P25      1.577800
      8 O1A        -1.5110    0.7420    2.9230 o         1 P25     -0.933500
      9 O2A        -2.3140   -1.4620    2.1640 o         1 P25     -0.933500
     10 O3A        -3.6890    0.5920    1.6580 os        1 P25     -0.802800
     11 PB         -4.7450    0.6480    2.8330 p5        1 P25      1.461900
     12 O1B        -4.2310    1.5500    3.9290 o         1 P25     -0.960500
     13 O2B        -4.9600   -0.7410    3.3830 o         1 P25     -0.960500
     14 O3B        -6.0540    1.1900    2.3080 o         1 P25     -0.960500
     15 H41         2.1300   -0.9850   -2.8710 hc        1 P25      0.033700
     16 H42         2.1300    0.6090   -2.8710 hc        1 P25      0.033700
     17 HM41        4.2940   -0.9380   -1.8790 hc        1 P25      0.009033
     18 HM42        4.2940   -0.2730   -3.3270 hc        1 P25      0.009033
     19 HM43        4.2940    0.6490   -2.0270 hc        1 P25      0.009033
     20 H51         2.2130   -1.0200   -0.5470 hc        1 P25      0.018700
     21 H52         2.3370    0.5680   -0.5030 hc        1 P25      0.018700
     22 H61         0.1830    0.7830   -1.3830 hc        1 P25      0.050200
     23 H62         0.0580   -0.8020   -1.5010 hc        1 P25      0.050200
     24 H71         0.4250    0.5040    0.9910 h1        1 P25     -0.022300
     25 H72         0.0640   -1.0360    0.7910 h1        1 P25     -0.022300
@<TRIPOS>BOND
     1    1    2 1   
     2    1    3 1   
     3    1   15 1   
     4    1   16 1   
     5    2   17 1   
     6    2   18 1   
     7    2   19 1   
     8    3    4 1   
     9    3   20 1   
    10    3   21 1   
    11    4    5 1   
    12    4   22 1   
    13    4   23 1   
    14    5    6 1   
    15    5   24 1   
    16    5   25 1   
    17    6    7 1   
    18    7    8 1   
    19    7    9 1   
    20    7   10 1   
    21   10   11 1   
    22   11   12 1   
    23   11   13 1   
    24   11   14 1   
@<TRIPOS>SUBSTRUCTURE
     1 P25         1 TEMP              0 ****  ****    0 ROOT
