@<TRIPOS>MOLECULE
P26
   52    55     1     0     0
SMALL
bcc


@<TRIPOS>ATOM
      1 O2         -0.0250    0.1350   -0.0430 o         1 P26     -0.829800
      2 C22         1.2380    0.1130    0.0020 c         1 P26      0.906200
      3 O1          1.9100    0.1340    1.0720 o         1 P26     -0.829800
      4 C19         1.9970    0.0610   -1.3160 ca        1 P26     -0.109600
      5 C18         1.3060    0.0440   -2.5320 ca        1 P26     -0.117000
      6 C17         1.9980    0.0090   -3.7400 ca        1 P26     -0.129500
      7 C20         3.3960    0.0360   -1.3280 ca        1 P26     -0.117000
      8 C21         4.0940    0.0010   -2.5320 ca        1 P26     -0.129500
      9 C16         3.3970   -0.0080   -3.7450 ca        1 P26     -0.164300
     10 C13         4.1480   -0.0510   -5.0500 c3        1 P26      0.451200
     11 O4          5.4030    0.6520   -4.9610 os        1 P26     -0.436600
     12 C15         5.2290    2.0000   -5.4000 c3        1 P26      0.108400
     13 C14         3.9040    1.9990   -6.1620 c3        1 P26      0.108400
     14 O3          3.4390    0.6500   -6.0910 os        1 P26     -0.436600
     15 C10         4.4100   -1.4660   -5.5090 ca        1 P26     -0.067300
     16 C9          3.4440   -2.1310   -6.2800 ca        1 P26     -0.080000
     17 C8          3.6840   -3.4400   -6.6690 ca        1 P26     -0.089300
     18 C01         2.7930   -4.3410   -7.4810 c3        1 P26     -0.004700
     19 C2          2.5370   -3.7510   -8.8570 c3        1 P26     -0.081100
     20 C1          1.4700   -4.5690   -6.7690 c3        1 P26     -0.081100
     21 C11         5.5910   -2.1130   -5.1400 ca        1 P26     -0.099000
     22 C12         5.8310   -3.4340   -5.5340 ca        1 P26     -0.127000
     23 C7          4.8780   -4.0930   -6.2960 ca        1 P26     -0.080300
     24 C02         4.9180   -5.5040   -6.8170 c3        1 P26     -0.006700
     25 C6          6.1050   -5.7050   -7.7440 c3        1 P26     -0.079600
     26 C5          4.9920   -6.4980   -5.6710 c3        1 P26     -0.079600
     27 C3          3.5870   -5.6660   -7.5930 c3        1 P26     -0.068400
     28 H18         0.2040    0.0610   -2.5060 ha        1 P26      0.152500
     29 H17         1.4540    0.0010   -4.6960 ha        1 P26      0.117500
     30 H20         3.9260    0.0460   -0.3620 ha        1 P26      0.152500
     31 H21         5.1930   -0.0140   -2.5420 ha        1 P26      0.117500
     32 H15         6.1110    2.2370   -6.0450 h1        1 P26      0.051700
     33 H15A        5.2060    2.6680   -4.5030 h1        1 P26      0.051700
     34 H14         3.1400    2.6670   -5.6930 h1        1 P26      0.051700
     35 H14A        4.0190    2.2350   -7.2490 h1        1 P26      0.051700
     36 H9          2.5150   -1.6110   -6.5620 ha        1 P26      0.149000
     37 H2          3.4990   -3.5910   -9.3990 hc        1 P26      0.035700
     38 H2A         1.8960   -4.4390   -9.4580 hc        1 P26      0.035700
     39 H2B         2.0160   -2.7670   -8.7600 hc        1 P26      0.035700
     40 H1          0.8260   -5.2580   -7.3650 hc        1 P26      0.035700
     41 H1A         0.9340   -3.5980   -6.6370 hc        1 P26      0.035700
     42 H1B         1.6410   -5.0170   -5.7610 hc        1 P26      0.035700
     43 H11         6.3350   -1.5730   -4.5320 ha        1 P26      0.146000
     44 H12         6.7590   -3.9410   -5.2370 ha        1 P26      0.125000
     45 H6          7.0580   -5.5330   -7.1870 hc        1 P26      0.033867
     46 H6A         6.0590   -4.9890   -8.5990 hc        1 P26      0.033867
     47 H6B         6.1080   -6.7460   -8.1470 hc        1 P26      0.033867
     48 H5          4.9910   -7.5430   -6.0660 hc        1 P26      0.033867
     49 H5A         5.9280   -6.3370   -5.0830 hc        1 P26      0.033867
     50 H5B         4.1170   -6.3710   -4.9890 hc        1 P26      0.033867
     51 H3          3.7920   -5.9030   -8.6660 hc        1 P26      0.041200
     52 H3A         2.9920   -6.5100   -7.1670 hc        1 P26      0.041200
@<TRIPOS>BOND
     1    1    2 1   
     2    2    3 1   
     3    2    4 1   
     4    4    5 ar  
     5    4    7 ar  
     6    5    6 ar  
     7    5   28 1   
     8    6    9 ar  
     9    6   29 1   
    10    7    8 ar  
    11    7   30 1   
    12    8    9 ar  
    13    8   31 1   
    14    9   10 1   
    15   10   11 1   
    16   10   14 1   
    17   10   15 1   
    18   11   12 1   
    19   12   13 1   
    20   12   32 1   
    21   12   33 1   
    22   13   14 1   
    23   13   34 1   
    24   13   35 1   
    25   15   16 ar  
    26   15   21 ar  
    27   16   17 ar  
    28   16   36 1   
    29   17   18 1   
    30   17   23 ar  
    31   18   19 1   
    32   18   20 1   
    33   18   27 1   
    34   19   37 1   
    35   19   38 1   
    36   19   39 1   
    37   20   40 1   
    38   20   41 1   
    39   20   42 1   
    40   21   22 ar  
    41   21   43 1   
    42   22   23 ar  
    43   22   44 1   
    44   23   24 1   
    45   24   25 1   
    46   24   26 1   
    47   24   27 1   
    48   25   45 1   
    49   25   46 1   
    50   25   47 1   
    51   26   48 1   
    52   26   49 1   
    53   26   50 1   
    54   27   51 1   
    55   27   52 1   
@<TRIPOS>SUBSTRUCTURE
     1 P26         1 TEMP              0 ****  ****    0 ROOT
