@<TRIPOS>MOLECULE
P26
   52    50     1     0     0
SMALL
bcc


@<TRIPOS>ATOM
      1 O2         -5.1650    0.3980    3.3760 o         1 P26     -0.564000
      2 C22        -5.5410    0.5510    2.1800 c1        1 P26      0.355000
      3 O1         -6.7710    0.6570    1.9140 os        1 P26     -0.565000
      4 C19        -4.5080    0.7110    1.0730 c2        1 P26     -0.089000
      5 C18        -3.9480    1.9550    0.8230 c2        1 P26     -0.117000
      6 C17        -2.9610    2.0910   -0.1480 c1        1 P26     -0.129000
      7 C20        -4.0830   -0.4020    0.3520 c1        1 P26     -0.117000
      8 C21        -3.0970   -0.2660   -0.6180 c1        1 P26     -0.130000
      9 C16        -2.5350    0.9800   -0.8680 c1        1 P26     -0.157000
     10 C13        -1.3900    1.1160   -1.8800 c3        1 P26      0.293000
     11 O4         -0.3350    1.0430   -3.0510 os        1 P26     -0.293000
     12 C15        -0.9540    1.2840   -4.0830 c3        1 P26     -0.042000
     13 C14        -2.1440    2.1630   -3.6430 c3        1 P26     -0.042000
     14 O3         -2.1820    2.0760   -2.1710 os        1 P26     -0.293000
     15 C10        -0.2270    0.8080   -0.9250 c2        1 P26     -0.060000
     16 C9          0.4390   -0.4260   -1.0050 c2        1 P26     -0.080000
     17 C8          1.4380   -0.7400   -0.0840 c1        1 P26     -0.082000
     18 C01         2.3390   -1.9950    0.0870 c2        1 P26     -0.012000
     19 C2          3.2340   -2.1660   -1.1550 c3        1 P26     -0.199000
     20 C1          1.4590   -3.2490    0.2740 c3        1 P26     -0.199000
     21 C11         0.1160    1.7330    0.0920 c1        1 P26     -0.099000
     22 C12         1.1180    1.4180    1.0170 c1        1 P26     -0.127000
     23 C7          1.7820    0.1920    0.9390 c2        1 P26     -0.073000
     24 C02         2.8640   -0.4630    1.8420 c3        1 P26     -0.014000
     25 C6          4.1340    0.4120    1.8530 c3        1 P26     -0.197500
     26 C5          2.3240   -0.6140    3.2770 c3        1 P26     -0.197500
     27 C3          3.1800   -1.7930    1.2840 c3        1 P26     -0.147000
     28 H18        -4.2810    2.7440    1.2950 ha        1 P26      0.153000
     29 H17        -2.5940    2.9770   -0.3520 ha        1 P26      0.118000
     30 H20        -4.5130   -1.2730    0.4950 ha        1 P26      0.152000
     31 H21        -2.8330   -1.0410   -1.1610 ha        1 P26      0.117000
     32 H15        -1.2780    0.4510   -4.4880 h1        1 P26      0.091000
     33 H15A       -0.3850    1.7740   -4.7150 h1        1 P26      0.091000
     34 H14        -2.0010    3.0920   -3.9230 h1        1 P26      0.091000
     35 H14A       -2.9790    1.8190   -4.0240 h1        1 P26      0.091000
     36 H9          0.2560   -1.0330   -1.7560 ha        1 P26      0.149000
     37 H2          3.6600   -1.3070   -1.3740 hc        1 P26      0.075000
     38 H2A         2.6860   -2.4640   -1.9170 hc        1 P26      0.075000
     39 H2B         3.9270   -2.8360   -0.9690 hc        1 P26      0.075000
     40 H1          2.0300   -4.0230    0.4830 hc        1 P26      0.075000
     41 H1A         0.8280   -3.0990    1.0110 hc        1 P26      0.075000
     42 H1B         0.9580   -3.4240   -0.5550 hc        1 P26      0.075000
     43 H11        -0.3840    2.5720    0.1790 ha        1 P26      0.146000
     44 H12         1.3550    2.0600    1.7210 ha        1 P26      0.125000
     45 H6          4.3900    0.6290    0.9300 hc        1 P26      0.073167
     46 H6A         4.8670   -0.0790    2.2900 hc        1 P26      0.073167
     47 H6B         3.9550    1.2430    2.3470 hc        1 P26      0.073167
     48 H5          1.4860   -1.1210    3.2590 hc        1 P26      0.073167
     49 H5A         2.1610    0.2770    3.6610 hc        1 P26      0.073167
     50 H5B         2.9860   -1.0940    3.8290 hc        1 P26      0.073167
     51 H3          2.9840   -2.4880    1.9500 hc        1 P26      0.080500
     52 H3A         4.1310   -1.8310    1.0330 hc        1 P26      0.080500
@<TRIPOS>BOND
     1    1    2 1   
     2    2    4 1   
     3    4    5 1   
     4    4    7 1   
     5    5    6 1   
     6    5   28 1   
     7    6   29 1   
     8    7   30 1   
     9    8    9 1   
    10    8   31 1   
    11    9   10 1   
    12   10   11 1   
    13   10   14 1   
    14   10   15 1   
    15   11   12 1   
    16   12   13 1   
    17   12   32 1   
    18   12   33 1   
    19   13   14 1   
    20   13   34 1   
    21   13   35 1   
    22   15   16 1   
    23   15   21 1   
    24   16   17 1   
    25   16   36 1   
    26   17   23 1   
    27   18   19 1   
    28   18   20 1   
    29   18   27 1   
    30   19   37 1   
    31   19   38 1   
    32   19   39 1   
    33   20   40 1   
    34   20   41 1   
    35   20   42 1   
    36   21   43 1   
    37   22   23 1   
    38   22   44 1   
    39   23   24 1   
    40   24   25 1   
    41   24   26 1   
    42   24   27 1   
    43   25   45 1   
    44   25   46 1   
    45   25   47 1   
    46   26   48 1   
    47   26   49 1   
    48   26   50 1   
    49   27   51 1   
    50   27   52 1   
@<TRIPOS>SUBSTRUCTURE
     1 P26         1 TEMP              0 ****  ****    0 ROOT
