@<TRIPOS>MOLECULE
P26
   52    55     1     0     0
SMALL
bcc


@<TRIPOS>ATOM
      1 O2          5.5150   -2.4030    1.1420 o         1 P26     -0.829800
      2 C22         5.1940   -1.8860    0.0350 c         1 P26      0.906200
      3 O1          5.8070   -2.0930   -1.0500 o         1 P26     -0.829800
      4 C19         3.9940   -0.9500    0.0080 ca        1 P26     -0.109600
      5 C18         3.2820   -0.6770    1.1810 ca        1 P26     -0.117000
      6 C17         2.1910    0.1890    1.1620 ca        1 P26     -0.129500
      7 C20         3.5920   -0.3470   -1.1890 ca        1 P26     -0.117000
      8 C21         2.5020    0.5200   -1.2140 ca        1 P26     -0.129500
      9 C16         1.7990    0.7950   -0.0370 ca        1 P26     -0.164300
     10 C13         0.6160    1.7280   -0.0610 c3        1 P26      0.451200
     11 O4          0.7840    2.7680   -1.0440 os        1 P26     -0.436600
     12 C15         1.3570    3.9220   -0.4280 c3        1 P26      0.108400
     13 C14         1.1570    3.7080    1.0720 c3        1 P26      0.108400
     14 O3          0.4880    2.4510    1.1800 os        1 P26     -0.436600
     15 C10        -0.6770    0.9990   -0.3350 ca        1 P26     -0.067300
     16 C9         -1.3960    0.4440    0.7360 ca        1 P26     -0.080000
     17 C8         -2.5660   -0.2490    0.4680 ca        1 P26     -0.089300
     18 C01        -3.4820   -0.9290    1.4490 c3        1 P26     -0.004700
     19 C2         -4.0460    0.0700    2.4450 c3        1 P26     -0.081100
     20 C1         -2.7480   -2.0320    2.1940 c3        1 P26     -0.081100
     21 C11        -1.1350    0.8550   -1.6460 ca        1 P26     -0.099000
     22 C12        -2.3170    0.1550   -1.9130 ca        1 P26     -0.127000
     23 C7         -3.0290   -0.3950   -0.8570 ca        1 P26     -0.080300
     24 C02        -4.3060   -1.1880   -0.9100 c3        1 P26     -0.006700
     25 C6         -5.4290   -0.3650   -1.5160 c3        1 P26     -0.079600
     26 C5         -4.1140   -2.4620   -1.7160 c3        1 P26     -0.079600
     27 C3         -4.6120   -1.5230    0.5710 c3        1 P26     -0.068400
     28 H18         3.6090   -1.1620    2.1140 ha        1 P26      0.152500
     29 H17         1.6340    0.4080    2.0850 ha        1 P26      0.117500
     30 H20         4.1610   -0.5750   -2.1040 ha        1 P26      0.152500
     31 H21         2.1890    0.9980   -2.1540 ha        1 P26      0.117500
     32 H15         2.4370    3.9810   -0.7110 h1        1 P26      0.051700
     33 H15A        0.7970    4.8030   -0.8270 h1        1 P26      0.051700
     34 H14         2.1260    3.6470    1.6280 h1        1 P26      0.051700
     35 H14A        0.4820    4.4650    1.5410 h1        1 P26      0.051700
     36 H9         -1.0230    0.5620    1.7650 ha        1 P26      0.149000
     37 H2         -4.6030    0.8790    1.9140 hc        1 P26      0.035700
     38 H2A        -4.7440   -0.4420    3.1510 hc        1 P26      0.035700
     39 H2B        -3.2170    0.5340    3.0310 hc        1 P26      0.035700
     40 H1         -1.8970   -1.6000    2.7740 hc        1 P26      0.035700
     41 H1A        -3.4410   -2.5480    2.9000 hc        1 P26      0.035700
     42 H1B        -2.3410   -2.7830    1.4750 hc        1 P26      0.035700
     43 H11        -0.5550    1.2960   -2.4710 ha        1 P26      0.146000
     44 H12        -2.6700    0.0390   -2.9470 ha        1 P26      0.125000
     45 H6         -5.1740   -0.0840   -2.5660 hc        1 P26      0.033867
     46 H6A        -6.3780   -0.9540   -1.5230 hc        1 P26      0.033867
     47 H6B        -5.5910    0.5690   -0.9270 hc        1 P26      0.033867
     48 H5         -3.2990   -3.0830   -1.2740 hc        1 P26      0.033867
     49 H5A        -5.0580   -3.0580   -1.7250 hc        1 P26      0.033867
     50 H5B        -3.8370   -2.2110   -2.7690 hc        1 P26      0.033867
     51 H3         -4.6700   -2.6300    0.7130 hc        1 P26      0.041200
     52 H3A        -5.5990   -1.0910    0.8680 hc        1 P26      0.041200
@<TRIPOS>BOND
     1    1    2 1   
     2    2    3 1   
     3    2    4 1   
     4    4    5 ar  
     5    4    7 ar  
     6    5    6 ar  
     7    5   28 1   
     8    6    9 ar  
     9    6   29 1   
    10    7    8 ar  
    11    7   30 1   
    12    8    9 ar  
    13    8   31 1   
    14    9   10 1   
    15   10   11 1   
    16   10   14 1   
    17   10   15 1   
    18   11   12 1   
    19   12   13 1   
    20   12   32 1   
    21   12   33 1   
    22   13   14 1   
    23   13   34 1   
    24   13   35 1   
    25   15   16 ar  
    26   15   21 ar  
    27   16   17 ar  
    28   16   36 1   
    29   17   18 1   
    30   17   23 ar  
    31   18   19 1   
    32   18   20 1   
    33   18   27 1   
    34   19   37 1   
    35   19   38 1   
    36   19   39 1   
    37   20   40 1   
    38   20   41 1   
    39   20   42 1   
    40   21   22 ar  
    41   21   43 1   
    42   22   23 ar  
    43   22   44 1   
    44   23   24 1   
    45   24   25 1   
    46   24   26 1   
    47   24   27 1   
    48   25   45 1   
    49   25   46 1   
    50   25   47 1   
    51   26   48 1   
    52   26   49 1   
    53   26   50 1   
    54   27   51 1   
    55   27   52 1   
@<TRIPOS>SUBSTRUCTURE
     1 P26         1 TEMP              0 ****  ****    0 ROOT
