@<TRIPOS>MOLECULE
P26
   52    55     1     0     0
SMALL
bcc


@<TRIPOS>ATOM
      1 O2         -0.0170    0.1320   -0.0360 o         1 P26     -0.829800
      2 C22         1.2460    0.1120    0.0070 c         1 P26      0.906200
      3 O1          1.9210    0.1340    1.0760 o         1 P26     -0.829800
      4 C19         2.0030    0.0610   -1.3120 ca        1 P26     -0.109600
      5 C18         1.3090    0.0430   -2.5270 ca        1 P26     -0.117000
      6 C17         1.9990    0.0100   -3.7360 ca        1 P26     -0.129500
      7 C20         3.4020    0.0380   -1.3270 ca        1 P26     -0.117000
      8 C21         4.0970    0.0040   -2.5330 ca        1 P26     -0.129500
      9 C16         3.3980   -0.0060   -3.7440 ca        1 P26     -0.164300
     10 C13         4.1460   -0.0480   -5.0510 c3        1 P26      0.451200
     11 O4          5.4010    0.6570   -4.9640 os        1 P26     -0.436600
     12 C15         5.2240    2.0050   -5.4020 c3        1 P26      0.108400
     13 C14         3.8980    2.0030   -6.1620 c3        1 P26      0.108400
     14 O3          3.4350    0.6540   -6.0900 os        1 P26     -0.436600
     15 C10         4.4090   -1.4610   -5.5110 ca        1 P26     -0.067300
     16 C9          3.4410   -2.1280   -6.2780 ca        1 P26     -0.080000
     17 C8          3.6820   -3.4360   -6.6680 ca        1 P26     -0.089300
     18 C01         2.7890   -4.3390   -7.4760 c3        1 P26     -0.004700
     19 C2          2.5260   -3.7490   -8.8510 c3        1 P26     -0.081100
     20 C1          1.4700   -4.5700   -6.7590 c3        1 P26     -0.081100
     21 C11         5.5940   -2.1060   -5.1470 ca        1 P26     -0.099000
     22 C12         5.8340   -3.4270   -5.5430 ca        1 P26     -0.127000
     23 C7          4.8780   -4.0880   -6.3010 ca        1 P26     -0.080300
     24 C02         4.9200   -5.4980   -6.8230 c3        1 P26     -0.006700
     25 C6          6.1030   -5.6970   -7.7540 c3        1 P26     -0.079600
     26 C5          5.0000   -6.4930   -5.6770 c3        1 P26     -0.079600
     27 C3          3.5860   -5.6620   -7.5930 c3        1 P26     -0.068400
     28 H18         0.2080    0.0590   -2.4980 ha        1 P26      0.152500
     29 H17         1.4540    0.0010   -4.6910 ha        1 P26      0.117500
     30 H20         3.9330    0.0480   -0.3620 ha        1 P26      0.152500
     31 H21         5.1970   -0.0090   -2.5450 ha        1 P26      0.117500
     32 H15         6.1040    2.2440   -6.0480 h1        1 P26      0.051700
     33 H15A        5.2020    2.6730   -4.5050 h1        1 P26      0.051700
     34 H14         4.0100    2.2400   -7.2480 h1        1 P26      0.051700
     35 H14A        3.1340    2.6700   -5.6900 h1        1 P26      0.051700
     36 H9          2.5110   -1.6100   -6.5550 ha        1 P26      0.149000
     37 H2          2.0040   -2.7670   -8.7510 hc        1 P26      0.035700
     38 H2A         3.4860   -3.5870   -9.3980 hc        1 P26      0.035700
     39 H2B         1.8840   -4.4390   -9.4500 hc        1 P26      0.035700
     40 H1          0.8240   -5.2610   -7.3530 hc        1 P26      0.035700
     41 H1A         1.6470   -5.0180   -5.7520 hc        1 P26      0.035700
     42 H1B         0.9320   -3.6000   -6.6250 hc        1 P26      0.035700
     43 H11         6.3380   -1.5660   -4.5430 ha        1 P26      0.146000
     44 H12         6.7640   -3.9320   -5.2500 ha        1 P26      0.125000
     45 H6          6.1060   -6.7370   -8.1580 hc        1 P26      0.033867
     46 H6A         6.0520   -4.9800   -8.6090 hc        1 P26      0.033867
     47 H6B         7.0580   -5.5230   -7.2020 hc        1 P26      0.033867
     48 H5          4.1280   -6.3670   -4.9910 hc        1 P26      0.033867
     49 H5A         5.0000   -7.5370   -6.0720 hc        1 P26      0.033867
     50 H5B         5.9380   -6.3290   -5.0930 hc        1 P26      0.033867
     51 H3          2.9940   -6.5080   -7.1640 hc        1 P26      0.041200
     52 H3A         3.7870   -5.8990   -8.6670 hc        1 P26      0.041200
@<TRIPOS>BOND
     1    1    2 1   
     2    2    3 1   
     3    2    4 1   
     4    4    5 ar  
     5    4    7 ar  
     6    5    6 ar  
     7    5   28 1   
     8    6    9 ar  
     9    6   29 1   
    10    7    8 ar  
    11    7   30 1   
    12    8    9 ar  
    13    8   31 1   
    14    9   10 1   
    15   10   11 1   
    16   10   14 1   
    17   10   15 1   
    18   11   12 1   
    19   12   13 1   
    20   12   32 1   
    21   12   33 1   
    22   13   14 1   
    23   13   34 1   
    24   13   35 1   
    25   15   16 ar  
    26   15   21 ar  
    27   16   17 ar  
    28   16   36 1   
    29   17   18 1   
    30   17   23 ar  
    31   18   19 1   
    32   18   20 1   
    33   18   27 1   
    34   19   37 1   
    35   19   38 1   
    36   19   39 1   
    37   20   40 1   
    38   20   41 1   
    39   20   42 1   
    40   21   22 ar  
    41   21   43 1   
    42   22   23 ar  
    43   22   44 1   
    44   23   24 1   
    45   24   25 1   
    46   24   26 1   
    47   24   27 1   
    48   25   45 1   
    49   25   46 1   
    50   25   47 1   
    51   26   48 1   
    52   26   49 1   
    53   26   50 1   
    54   27   51 1   
    55   27   52 1   
@<TRIPOS>SUBSTRUCTURE
     1 P26         1 TEMP              0 ****  ****    0 ROOT
