@<TRIPOS>MOLECULE
P27
   65    60     1     0     0
SMALL
bcc


@<TRIPOS>ATOM
      1 C32         0.0190   -0.8830   -0.1280 c3        1 P27     -0.055000
      2 C33         1.5460   -0.8930   -0.3810 c2        1 P27     -0.327000
      3 C4A         2.4240   -0.6360    0.6690 c2        1 P27     -0.041500
      4 C4B         2.0440   -1.1950   -1.6490 c1        1 P27     -0.043500
      5 C5A         3.8080   -0.6800    0.4520 c1        1 P27     -0.275000
      6 C5B         3.4320   -1.2390   -1.8650 c1        1 P27     -0.272000
      7 C36         4.3090   -0.9820   -0.8130 c1        1 P27      0.076500
      8 C37         5.8510   -0.9830   -1.0600 c3        1 P27     -0.125000
      9 F38         6.4390   -0.0330   -0.2630 f         1 P27     -0.153750
     10 F39         6.1040   -0.6970   -2.3770 f         1 P27     -0.153750
     11 P40         6.5420   -2.6510   -0.6430 p5        1 P27      1.461500
     12 O41         6.1720   -3.6380   -1.7250 o         1 P27     -0.824667
     13 O42         5.9680   -3.1210    0.6870 o         1 P27     -0.824667
     14 O43         8.0220   -2.5630   -0.5390 o         1 P27     -0.824667
     15 C1         -0.5590    0.5270   -0.4640 c3        1 P27      0.127000
     16 C12        -2.0700    0.4220   -0.6720 c3        1 P27     -0.055000
     17 C13        -2.6540   -0.6350    0.3000 c2        1 P27     -0.327000
     18 C1A        -3.1080   -0.2460    1.5660 c2        1 P27     -0.041500
     19 C1B        -2.7690   -1.9520   -0.1030 c1        1 P27     -0.043500
     20 C2A        -3.6770   -1.1860    2.4190 c1        1 P27     -0.275000
     21 C2B        -3.3400   -2.8980    0.7540 c1        1 P27     -0.272000
     22 C16        -3.7930   -2.5150    2.0130 c1        1 P27      0.076500
     23 C17        -4.3110   -3.5950    3.0200 c3        1 P27     -0.125000
     24 F18        -3.5770   -4.7000    2.8980 f         1 P27     -0.153750
     25 F19        -4.2090   -3.1280    4.2620 f         1 P27     -0.153750
     26 P20        -6.0320   -3.9730    2.6640 p5        1 P27      1.461500
     27 O21        -6.7890   -2.6910    2.4230 o         1 P27     -0.824667
     28 O22        -6.1140   -4.8390    1.4360 o         1 P27     -0.824667
     29 O23        -6.6450   -4.7070    3.8440 o         1 P27     -0.824667
     30 C51         0.1220    1.0790   -1.7930 c2        1 P27     -0.018000
     31 C6A         1.0950    2.0560   -1.7150 c2        1 P27     -0.107000
     32 C6B        -0.2800    0.5930   -3.0390 c1        1 P27     -0.112000
     33 C55         1.2750    2.0710   -4.1250 c1        1 P27      0.024000
     34 C53         1.6760    2.5570   -2.8820 c1        1 P27      0.058000
     35 C54         0.2990    1.0920   -4.2020 c1        1 P27     -0.155000
     36 F56         2.6230    3.5210   -2.8090 f         1 P27     -0.110000
     37 F57         1.9530    2.4480   -5.2530 f         1 P27     -0.124000
     38 N61        -0.2850    1.4360    0.6380 n3        1 P27     -0.130000
     39 N62         0.3540    0.9110    1.7170 n2        1 P27      0.091000
     40 N63         0.5730    1.9230    2.6140 n2        1 P27     -0.122000
     41 C7A         0.0630    3.0810    2.0820 c1        1 P27     -0.127000
     42 C7B        -0.4660    2.7860    0.8640 c1        1 P27     -0.011000
     43 C8A         0.0160    4.4030    2.5690 c1        1 P27     -0.061000
     44 C8B        -1.0630    3.8050    0.0880 c1        1 P27     -0.101000
     45 C9A        -0.5720    5.4060    1.8040 c1        1 P27     -0.152500
     46 C9B        -1.1090    5.1070    0.5690 c1        1 P27     -0.152500
     47 H321       -0.4050   -1.5480   -0.6900 hc        1 P27      0.069500
     48 H322       -0.1550   -1.0900    0.8040 hc        1 P27      0.069500
     49 H4A         2.0860   -0.4300    1.5290 ha        1 P27      0.084500
     50 H4B         1.4300   -1.4660   -2.3620 ha        1 P27      0.077500
     51 H5A         4.4070   -0.5040    1.1710 ha        1 P27      0.104500
     52 H5B         3.7810   -1.4500   -2.7490 ha        1 P27      0.104500
     53 H121       -2.4880    1.2940   -0.4940 hc        1 P27      0.069500
     54 H122       -2.2520    0.1570   -1.5870 hc        1 P27      0.069500
     55 H1A        -3.0820    0.6810    1.8220 ha        1 P27      0.084500
     56 H1B        -2.4630   -2.2180   -0.9850 ha        1 P27      0.077500
     57 H2A        -3.9160   -0.9300    3.3500 ha        1 P27      0.104500
     58 H2B        -3.4110   -3.8420    0.4700 ha        1 P27      0.104500
     59 H6A         1.3820    2.4040   -0.8240 ha        1 P27      0.169000
     60 H6B        -0.9630   -0.0920   -3.0950 ha        1 P27      0.146000
     61 H54         0.0050    0.7370   -5.1080 ha        1 P27      0.128000
     62 H8A         0.4150    4.6220    3.4520 ha        1 P27      0.127000
     63 H8B        -1.4630    3.5930   -0.7530 ha        1 P27      0.144000
     64 H9A        -0.6050    6.3090    2.1370 ha        1 P27      0.107000
     65 H9B        -1.6080    5.8110    0.0590 ha        1 P27      0.107000
@<TRIPOS>BOND
     1    1    2 1   
     2    1   15 1   
     3    1   47 1   
     4    1   48 1   
     5    2    3 1   
     6    2    4 1   
     7    3    5 1   
     8    3   49 1   
     9    4   50 1   
    10    5   51 1   
    11    6    7 1   
    12    6   52 1   
    13    7    8 1   
    14    8    9 1   
    15    8   10 1   
    16    8   11 1   
    17   11   12 1   
    18   11   13 1   
    19   11   14 1   
    20   15   16 1   
    21   15   30 1   
    22   15   38 1   
    23   16   17 1   
    24   16   53 1   
    25   16   54 1   
    26   17   18 1   
    27   17   19 1   
    28   18   20 1   
    29   18   55 1   
    30   19   56 1   
    31   20   57 1   
    32   21   22 1   
    33   21   58 1   
    34   22   23 1   
    35   23   24 1   
    36   23   25 1   
    37   23   26 1   
    38   26   27 1   
    39   26   28 1   
    40   26   29 1   
    41   30   31 1   
    42   30   32 1   
    43   31   34 1   
    44   31   59 1   
    45   32   60 1   
    46   33   35 1   
    47   33   37 1   
    48   34   36 1   
    49   35   61 1   
    50   38   39 1   
    51   38   42 1   
    52   39   40 1   
    53   40   41 1   
    54   41   43 1   
    55   42   44 1   
    56   43   62 1   
    57   44   63 1   
    58   45   46 1   
    59   45   64 1   
    60   46   65 1   
@<TRIPOS>SUBSTRUCTURE
     1 P27         1 TEMP              0 ****  ****    0 ROOT
