@<TRIPOS>MOLECULE
P27
   65    67     1     0     0
SMALL
bcc


@<TRIPOS>ATOM
      1 C32        -0.4940   -0.7060    0.3860 c3        1 P27     -0.059000
      2 C33        -0.8450   -0.5080    1.8080 ca        1 P27     -0.326000
      3 C4A        -1.5160    0.6430    2.2670 ca        1 P27     -0.045000
      4 C4B        -0.6130   -1.5330    2.7500 ca        1 P27     -0.045000
      5 C5A        -1.8800    0.7990    3.5830 ca        1 P27     -0.274750
      6 C5B        -0.9730   -1.4110    4.0710 ca        1 P27     -0.274750
      7 C36        -1.6110   -0.2210    4.5580 ca        1 P27      0.074000
      8 C37        -1.9450   -0.0720    5.8810 c2        1 P27     -0.124000
      9 F38        -2.5490    0.9690    6.5110 f         1 P27     -0.153000
     10 F39        -1.7650   -0.9380    6.9140 f         1 P27     -0.153000
     11 P40        -2.7370    0.2420    9.0610 p3        1 P27      2.419500
     12 O41        -2.5670   -1.1600    9.5020 o         1 P27     -1.143833
     13 O42        -4.1120    0.7350    8.8330 o         1 P27     -1.143833
     14 O43        -1.6460    1.2050    9.3190 o         1 P27     -1.143833
     15 C1          0.9060   -0.2030   -0.0930 c3        1 P27      0.133000
     16 C12         1.3020   -0.9940   -1.3830 c3        1 P27     -0.059000
     17 C13         0.5940   -0.7400   -2.6520 ca        1 P27     -0.326000
     18 C1A         1.1840    0.0650   -3.6480 ca        1 P27     -0.045000
     19 C1B        -0.5790   -1.4390   -2.9990 ca        1 P27     -0.045000
     20 C2A         0.6990    0.1100   -4.9320 ca        1 P27     -0.274750
     21 C2B        -1.0890   -1.4170   -4.2750 ca        1 P27     -0.274750
     22 C16        -0.4350   -0.6820   -5.3230 ca        1 P27      0.074000
     23 C17        -0.8470   -0.7470   -6.6300 c2        1 P27     -0.124000
     24 F18        -1.8650   -1.4500   -7.1880 f         1 P27     -0.153000
     25 F19        -0.3190   -0.1330   -7.7240 f         1 P27     -0.153000
     26 P20        -1.6670   -1.0080   -9.8090 p3        1 P27      2.419500
     27 O21        -0.7610    0.0030  -10.3960 o         1 P27     -1.143833
     28 O22        -1.2690   -2.4300   -9.8750 o         1 P27     -1.143833
     29 O23        -3.0890   -0.6490   -9.6260 o         1 P27     -1.143833
     30 C51         1.9330   -0.4840    1.0080 ca        1 P27     -0.054000
     31 C6A         2.9320   -1.4470    0.8640 ca        1 P27     -0.142000
     32 C6B         1.8560    0.2370    2.2140 ca        1 P27     -0.057000
     33 C55         3.7940   -0.9200    3.0900 ca        1 P27      0.036000
     34 C53         3.8670   -1.6680    1.8910 ca        1 P27      0.010000
     35 C54         2.7670    0.0260    3.2420 ca        1 P27     -0.143000
     36 F56         4.8430   -2.5990    1.7290 f         1 P27     -0.128000
     37 F57         4.7040   -1.1210    4.0750 f         1 P27     -0.123000
     38 N61         0.9450    1.2540   -0.3810 na        1 P27     -0.131000
     39 N62        -0.1150    2.0880   -0.4700 n2        1 P27      0.094000
     40 N63         0.2160    3.2640   -0.8110 n2        1 P27     -0.123000
     41 C7A         1.6230    3.3090   -1.0100 ca        1 P27     -0.127000
     42 C7B         2.1070    1.9670   -0.7340 ca        1 P27     -0.018000
     43 C8A         2.5140    4.3190   -1.3840 ca        1 P27     -0.062000
     44 C8B         3.4730    1.6680   -0.8370 ca        1 P27     -0.103000
     45 C9A         3.8580    3.9960   -1.4760 ca        1 P27     -0.180000
     46 C9B         4.3260    2.6940   -1.2070 ca        1 P27     -0.132000
     47 H321       -0.4920   -1.8110    0.1690 hc        1 P27      0.074000
     48 H322       -1.2760   -0.2530   -0.2800 hc        1 P27      0.074000
     49 H4A        -1.7610    1.4370    1.5440 ha        1 P27      0.084000
     50 H4B        -0.1280   -2.4610    2.4090 ha        1 P27      0.084000
     51 H5A        -2.3980    1.7050    3.9220 ha        1 P27      0.104750
     52 H5B        -0.7830   -2.2210    4.7860 ha        1 P27      0.104750
     53 H121        2.3980   -0.8010   -1.5610 hc        1 P27      0.074000
     54 H122        1.1820   -2.0800   -1.1140 hc        1 P27      0.074000
     55 H1A         2.0700    0.6640   -3.3840 ha        1 P27      0.084000
     56 H1B        -1.0900   -2.0260   -2.2180 ha        1 P27      0.084000
     57 H2A         1.1690    0.7430   -5.6940 ha        1 P27      0.104750
     58 H2B        -2.0040   -1.9650   -4.5290 ha        1 P27      0.104750
     59 H6A         3.0200   -2.0710   -0.0390 ha        1 P27      0.153000
     60 H6B         1.0280    0.9550    2.3700 ha        1 P27      0.192000
     61 H54         2.6740    0.5780    4.1890 ha        1 P27      0.157000
     62 H8A         2.1490    5.3320   -1.6010 ha        1 P27      0.127000
     63 H8B         3.8410    0.6520   -0.6320 ha        1 P27      0.146000
     64 H9A         4.5820    4.7670   -1.7730 ha        1 P27      0.103000
     65 H9B         5.4020    2.4890   -1.3020 ha        1 P27      0.109000
@<TRIPOS>BOND
     1    1    2 1   
     2    1   15 1   
     3    1   47 1   
     4    1   48 1   
     5    2    3 1   
     6    2    4 1   
     7    3    5 1   
     8    3   49 1   
     9    4    6 1   
    10    4   50 1   
    11    5    7 1   
    12    5   51 1   
    13    6    7 1   
    14    6   52 1   
    15    7    8 1   
    16    8    9 1   
    17    8   10 1   
    18   11   12 1   
    19   11   13 1   
    20   11   14 1   
    21   15   16 1   
    22   15   30 1   
    23   15   38 1   
    24   16   17 1   
    25   16   53 1   
    26   16   54 1   
    27   17   18 1   
    28   17   19 1   
    29   18   20 1   
    30   18   55 1   
    31   19   21 1   
    32   19   56 1   
    33   20   22 1   
    34   20   57 1   
    35   21   22 1   
    36   21   58 1   
    37   22   23 1   
    38   23   24 1   
    39   23   25 1   
    40   26   27 1   
    41   26   28 1   
    42   26   29 1   
    43   30   31 1   
    44   30   32 1   
    45   31   34 1   
    46   31   59 1   
    47   32   35 1   
    48   32   60 1   
    49   33   34 1   
    50   33   35 1   
    51   33   37 1   
    52   34   36 1   
    53   35   61 1   
    54   38   39 1   
    55   38   42 1   
    56   39   40 1   
    57   40   41 1   
    58   41   42 1   
    59   41   43 1   
    60   42   44 1   
    61   43   45 1   
    62   43   62 1   
    63   44   46 1   
    64   44   63 1   
    65   45   46 1   
    66   45   64 1   
    67   46   65 1   
@<TRIPOS>SUBSTRUCTURE
     1 P27         1 TEMP              0 ****  ****    0 ROOT
