@<TRIPOS>MOLECULE
P27
   65    67     1     0     0
SMALL
bcc


@<TRIPOS>ATOM
      1 C32         0.5460    0.0300    0.4280 c3        1 P27     -0.073000
      2 C33         1.9980   -0.0320    0.1160 ca        1 P27     -0.264000
      3 C4A         2.9800    0.2490    1.0760 ca        1 P27     -0.077500
      4 C4B         2.4290   -0.4530   -1.1550 ca        1 P27     -0.077500
      5 C5A         4.3310    0.2080    0.7540 ca        1 P27     -0.225500
      6 C5B         3.7750   -0.4990   -1.4820 ca        1 P27     -0.225500
      7 C36         4.7640   -0.1250   -0.5470 ca        1 P27      0.058000
      8 C37         6.1900   -0.1880   -0.8960 c2        1 P27     -0.186000
      9 F38         7.0240    0.6280   -0.1730 f         1 P27     -0.176750
     10 F39         6.4970    0.1170   -2.2000 f         1 P27     -0.176750
     11 P40         7.8210   -1.7680   -0.9370 p3        1 P27      2.464500
     12 O41         7.2310   -2.7440   -1.8940 o         1 P27     -1.168000
     13 O42         7.8730   -2.1630    0.4970 o         1 P27     -1.168000
     14 O43         8.9410   -0.9250   -1.4430 o         1 P27     -1.168000
     15 C1         -0.1720    1.3910    0.1790 c3        1 P27      0.141000
     16 C12        -1.7010    1.1170   -0.0130 c3        1 P27     -0.073000
     17 C13        -2.5410    0.7800    1.1490 ca        1 P27     -0.264000
     18 C1A        -3.3320    1.7720    1.7660 ca        1 P27     -0.077500
     19 C1B        -2.7470   -0.5540    1.5550 ca        1 P27     -0.077500
     20 C2A        -4.3240    1.4610    2.6600 ca        1 P27     -0.225500
     21 C2B        -3.7330   -0.8980    2.4460 ca        1 P27     -0.225500
     22 C16        -4.6150    0.0940    2.9990 ca        1 P27      0.058000
     23 C17        -5.6900   -0.2340    3.7840 c2        1 P27     -0.186000
     24 F18        -6.1370   -1.4510    4.1850 f         1 P27     -0.176750
     25 F19        -6.6140    0.5870    4.3510 f         1 P27     -0.176750
     26 P20        -8.3990   -0.9600    5.5100 p3        1 P27      2.464500
     27 O21        -8.8490    0.4020    5.8730 o         1 P27     -1.168000
     28 O22        -9.0430   -1.6280    4.3590 o         1 P27     -1.168000
     29 O23        -7.7060   -1.7640    6.5370 o         1 P27     -1.168000
     30 C51         0.3920    2.0180   -1.1010 ca        1 P27     -0.057000
     31 C6A        -0.3450    2.0640   -2.2860 ca        1 P27     -0.139000
     32 C6B         1.6930    2.5530   -1.0930 ca        1 P27     -0.067000
     33 C55         1.4840    3.2400   -3.4050 ca        1 P27      0.040000
     34 C53         0.1860    2.6760   -3.4360 ca        1 P27      0.018000
     35 C54         2.2360    3.1560   -2.2210 ca        1 P27     -0.139000
     36 F56        -0.5500    2.7290   -4.5760 f         1 P27     -0.124000
     37 F57         1.9900    3.8480   -4.5060 f         1 P27     -0.120000
     38 N61         0.0200    2.3670    1.2800 na        1 P27     -0.139000
     39 N62         0.5680    2.1180    2.4920 n2        1 P27      0.089000
     40 N63         0.5270    3.1230    3.2620 n2        1 P27     -0.115000
     41 C7A        -0.1150    4.1980    2.5870 ca        1 P27     -0.126000
     42 C7B        -0.4630    3.6910    1.2700 ca        1 P27     -0.013000
     43 C8A        -0.4270    5.5120    2.9430 ca        1 P27     -0.060000
     44 C8B        -1.1160    4.5110    0.3400 ca        1 P27     -0.105000
     45 C9A        -1.0700    6.3030    2.0030 ca        1 P27     -0.178000
     46 C9B        -1.4070    5.8090    0.7280 ca        1 P27     -0.128000
     47 H321        0.3600   -0.2900    1.4880 hc        1 P27      0.080500
     48 H322        0.0120   -0.7150   -0.2260 hc        1 P27      0.080500
     49 H4A         2.6780    0.5080    2.1010 ha        1 P27      0.091250
     50 H4B         1.6790   -0.7410   -1.9070 ha        1 P27      0.091250
     51 H5A         5.0930    0.4320    1.5150 ha        1 P27      0.120750
     52 H5B         4.1010   -0.8330   -2.4780 ha        1 P27      0.120750
     53 H121       -2.1360    2.0430   -0.4880 hc        1 P27      0.080500
     54 H122       -1.7640    0.2820   -0.7640 hc        1 P27      0.080500
     55 H1A        -3.1470    2.8270    1.5060 ha        1 P27      0.091250
     56 H1B        -2.0980   -1.3370    1.1310 ha        1 P27      0.091250
     57 H2A        -4.9290    2.2450    3.1330 ha        1 P27      0.120750
     58 H2B        -3.8810   -1.9410    2.7540 ha        1 P27      0.120750
     59 H6A        -1.3480    1.6190   -2.3700 ha        1 P27      0.156000
     60 H6B         2.3180    2.4560   -0.1860 ha        1 P27      0.183000
     61 H54         3.2650    3.5440   -2.2050 ha        1 P27      0.157000
     62 H8A        -0.1750    5.8950    3.9410 ha        1 P27      0.129000
     63 H8B        -1.3880    4.1280   -0.6530 ha        1 P27      0.145000
     64 H9A        -1.3350    7.3390    2.2560 ha        1 P27      0.106000
     65 H9B        -1.9250    6.4760    0.0230 ha        1 P27      0.110000
@<TRIPOS>BOND
     1    1    2 1   
     2    1   15 1   
     3    1   47 1   
     4    1   48 1   
     5    2    3 1   
     6    2    4 1   
     7    3    5 1   
     8    3   49 1   
     9    4    6 1   
    10    4   50 1   
    11    5    7 1   
    12    5   51 1   
    13    6    7 1   
    14    6   52 1   
    15    7    8 1   
    16    8    9 1   
    17    8   10 1   
    18   11   12 1   
    19   11   13 1   
    20   11   14 1   
    21   15   16 1   
    22   15   30 1   
    23   15   38 1   
    24   16   17 1   
    25   16   53 1   
    26   16   54 1   
    27   17   18 1   
    28   17   19 1   
    29   18   20 1   
    30   18   55 1   
    31   19   21 1   
    32   19   56 1   
    33   20   22 1   
    34   20   57 1   
    35   21   22 1   
    36   21   58 1   
    37   22   23 1   
    38   23   24 1   
    39   23   25 1   
    40   26   27 1   
    41   26   28 1   
    42   26   29 1   
    43   30   31 1   
    44   30   32 1   
    45   31   34 1   
    46   31   59 1   
    47   32   35 1   
    48   32   60 1   
    49   33   34 1   
    50   33   35 1   
    51   33   37 1   
    52   34   36 1   
    53   35   61 1   
    54   38   39 1   
    55   38   42 1   
    56   39   40 1   
    57   40   41 1   
    58   41   42 1   
    59   41   43 1   
    60   42   44 1   
    61   43   45 1   
    62   43   62 1   
    63   44   46 1   
    64   44   63 1   
    65   45   46 1   
    66   45   64 1   
    67   46   65 1   
@<TRIPOS>SUBSTRUCTURE
     1 P27         1 TEMP              0 ****  ****    0 ROOT
