@<TRIPOS>MOLECULE
P27
   65    67     1     0     0
SMALL
bcc


@<TRIPOS>ATOM
      1 C32         0.5510    0.0340    0.4210 c3        1 P27     -0.073000
      2 C33         2.0020   -0.0200    0.0990 ca        1 P27     -0.264000
      3 C4A         2.9890    0.2660    1.0520 ca        1 P27     -0.077500
      4 C4B         2.4250   -0.4360   -1.1760 ca        1 P27     -0.077500
      5 C5A         4.3380    0.2330    0.7200 ca        1 P27     -0.225500
      6 C5B         3.7700   -0.4740   -1.5130 ca        1 P27     -0.225500
      7 C36         4.7630   -0.0960   -0.5840 ca        1 P27      0.058000
      8 C37         6.1870   -0.1510   -0.9440 c2        1 P27     -0.186000
      9 F38         7.0220    0.6690   -0.2250 f         1 P27     -0.176750
     10 F39         6.4830    0.1590   -2.2500 f         1 P27     -0.176750
     11 P40         7.8270   -1.7210   -1.0000 p3        1 P27      2.464500
     12 O41         7.2350   -2.6990   -1.9540 o         1 P27     -1.168000
     13 O42         7.8910   -2.1190    0.4330 o         1 P27     -1.168000
     14 O43         8.9380   -0.8720   -1.5120 o         1 P27     -1.168000
     15 C1         -0.1750    1.3910    0.1800 c3        1 P27      0.141000
     16 C12        -1.7050    1.1090   -0.0020 c3        1 P27     -0.073000
     17 C13        -2.5340    0.7650    1.1660 ca        1 P27     -0.264000
     18 C1A        -3.3260    1.7520    1.7900 ca        1 P27     -0.077500
     19 C1B        -2.7300   -0.5710    1.5720 ca        1 P27     -0.077500
     20 C2A        -4.3100    1.4350    2.6920 ca        1 P27     -0.225500
     21 C2B        -3.7080   -0.9210    2.4700 ca        1 P27     -0.225500
     22 C16        -4.5900    0.0660    3.0300 ca        1 P27      0.058000
     23 C17        -5.6580   -0.2690    3.8220 c2        1 P27     -0.186000
     24 F18        -6.0960   -1.4900    4.2250 f         1 P27     -0.176750
     25 F19        -6.5820    0.5460    4.3980 f         1 P27     -0.176750
     26 P20        -8.3500   -1.0120    5.5680 p3        1 P27      2.464500
     27 O21        -8.8000    0.3460    5.9430 o         1 P27     -1.168000
     28 O22        -9.0020   -1.6750    4.4180 o         1 P27     -1.168000
     29 O23        -7.6460   -1.8220    6.5840 o         1 P27     -1.168000
     30 C51         0.3750    2.0230   -1.1040 ca        1 P27     -0.057000
     31 C6A        -0.3700    2.0670   -2.2830 ca        1 P27     -0.139000
     32 C6B         1.6730    2.5650   -1.1050 ca        1 P27     -0.067000
     33 C55         1.4430    3.2550   -3.4130 ca        1 P27      0.040000
     34 C53         0.1490    2.6830   -3.4360 ca        1 P27      0.018000
     35 C54         2.2040    3.1730   -2.2350 ca        1 P27     -0.139000
     36 F56        -0.5960    2.7330   -4.5700 f         1 P27     -0.124000
     37 F57         1.9380    3.8670   -4.5170 f         1 P27     -0.120000
     38 N61         0.0190    2.3660    1.2800 na        1 P27     -0.139000
     39 N62         0.5770    2.1180    2.4890 n2        1 P27      0.089000
     40 N63         0.5360    3.1220    3.2600 n2        1 P27     -0.115000
     41 C7A        -0.1170    4.1940    2.5910 ca        1 P27     -0.126000
     42 C7B        -0.4720    3.6870    1.2770 ca        1 P27     -0.013000
     43 C8A        -0.4340    5.5060    2.9520 ca        1 P27     -0.060000
     44 C8B        -1.1360    4.5060    0.3530 ca        1 P27     -0.105000
     45 C9A        -1.0880    6.2950    2.0180 ca        1 P27     -0.178000
     46 C9B        -1.4310    5.8010    0.7450 ca        1 P27     -0.128000
     47 H321        0.3750   -0.2890    1.4820 hc        1 P27      0.080500
     48 H322        0.0170   -0.7130   -0.2300 hc        1 P27      0.080500
     49 H4A         2.6930    0.5210    2.0800 ha        1 P27      0.091250
     50 H4B         1.6720   -0.7270   -1.9230 ha        1 P27      0.091250
     51 H5A         5.1040    0.4590    1.4760 ha        1 P27      0.120750
     52 H5B         4.0900   -0.8040   -2.5120 ha        1 P27      0.120750
     53 H121       -2.1480    2.0320   -0.4720 hc        1 P27      0.080500
     54 H122       -1.7680    0.2740   -0.7530 hc        1 P27      0.080500
     55 H1A        -3.1490    2.8090    1.5300 ha        1 P27      0.091250
     56 H1B        -2.0800   -1.3490    1.1410 ha        1 P27      0.091250
     57 H2A        -4.9150    2.2150    3.1700 ha        1 P27      0.120750
     58 H2B        -3.8480   -1.9650    2.7770 ha        1 P27      0.120750
     59 H6A        -1.3720    1.6170   -2.3600 ha        1 P27      0.156000
     60 H6B         2.3060    2.4700   -0.2020 ha        1 P27      0.183000
     61 H54         3.2320    3.5670   -2.2260 ha        1 P27      0.157000
     62 H8A        -0.1760    5.8890    3.9490 ha        1 P27      0.129000
     63 H8B        -1.4130    4.1220   -0.6390 ha        1 P27      0.145000
     64 H9A        -1.3570    7.3290    2.2750 ha        1 P27      0.106000
     65 H9B        -1.9580    6.4660    0.0440 ha        1 P27      0.110000
@<TRIPOS>BOND
     1    1    2 1   
     2    1   15 1   
     3    1   47 1   
     4    1   48 1   
     5    2    3 1   
     6    2    4 1   
     7    3    5 1   
     8    3   49 1   
     9    4    6 1   
    10    4   50 1   
    11    5    7 1   
    12    5   51 1   
    13    6    7 1   
    14    6   52 1   
    15    7    8 1   
    16    8    9 1   
    17    8   10 1   
    18   11   12 1   
    19   11   13 1   
    20   11   14 1   
    21   15   16 1   
    22   15   30 1   
    23   15   38 1   
    24   16   17 1   
    25   16   53 1   
    26   16   54 1   
    27   17   18 1   
    28   17   19 1   
    29   18   20 1   
    30   18   55 1   
    31   19   21 1   
    32   19   56 1   
    33   20   22 1   
    34   20   57 1   
    35   21   22 1   
    36   21   58 1   
    37   22   23 1   
    38   23   24 1   
    39   23   25 1   
    40   26   27 1   
    41   26   28 1   
    42   26   29 1   
    43   30   31 1   
    44   30   32 1   
    45   31   34 1   
    46   31   59 1   
    47   32   35 1   
    48   32   60 1   
    49   33   34 1   
    50   33   35 1   
    51   33   37 1   
    52   34   36 1   
    53   35   61 1   
    54   38   39 1   
    55   38   42 1   
    56   39   40 1   
    57   40   41 1   
    58   41   42 1   
    59   41   43 1   
    60   42   44 1   
    61   43   45 1   
    62   43   62 1   
    63   44   46 1   
    64   44   63 1   
    65   45   46 1   
    66   45   64 1   
    67   46   65 1   
@<TRIPOS>SUBSTRUCTURE
     1 P27         1 TEMP              0 ****  ****    0 ROOT
