@<TRIPOS>MOLECULE
P28
   44    45     1     0     0
SMALL
bcc


@<TRIPOS>ATOM
      1 C1         -0.1710    0.1880    0.1810 ca        1 P28     -0.121300
      2 C2          1.2220    0.3430    0.1730 ca        1 P28     -0.108500
      3 C3          1.9380    0.4060    1.3640 ca        1 P28     -0.145000
      4 C4          1.2420    0.2960    2.5770 ca        1 P28      0.090100
      5 C5         -0.1440    0.1180    2.6070 ca        1 P28     -0.145000
      6 C6         -0.8440    0.0680    1.4030 ca        1 P28     -0.108500
      7 C7         -0.9250    0.1400   -1.1000 c3        1 P28     -0.051100
      8 C8         -1.0640    1.5080   -1.7520 c3        1 P28     -0.054500
      9 C9         -1.8550    1.3220   -3.1350 c         1 P28      0.931600
     10 O9         -2.9910    1.8660   -3.1730 o         1 P28     -0.759800
     11 O10        -1.2450    0.6760   -4.0000 o         1 P28     -0.759800
     12 N8         -1.7980    2.4850   -0.8750 n4        1 P28     -0.666800
     13 C81        -1.2960    3.8820   -1.0670 c         1 P28      0.564100
     14 C82        -1.8110    4.6170   -2.2580 c3        1 P28     -0.194100
     15 O81        -0.5170    4.3000   -0.2150 o         1 P28     -0.470100
     16 O41         2.0380    0.2850    3.7240 os        1 P28     -0.231200
     17 C1'         1.4840    0.8550    4.8640 ca        1 P28      0.051100
     18 C2'         0.6900    2.0050    4.8270 ca        1 P28     -0.024500
     19 C3'         0.2480    2.5730    6.0260 ca        1 P28     -0.244700
     20 N3         -0.6100    3.7870    5.9540 no        1 P28      0.328700
     21 O31        -0.7730    4.4560    6.9320 o         1 P28     -0.194250
     22 O32        -1.1120    4.0550    4.8920 o         1 P28     -0.194250
     23 C4'         0.6100    2.0090    7.2860 ca        1 P28      0.263100
     24 O4'         0.1050    2.6370    8.3710 oh        1 P28     -0.449100
     25 C5'         1.4260    0.8480    7.2830 ca        1 P28     -0.244700
     26 N5          1.8560    0.1930    8.5420 no        1 P28      0.328700
     27 O51         1.5030    0.6590    9.5960 o         1 P28     -0.194250
     28 O52         2.5450   -0.7860    8.4800 o         1 P28     -0.194250
     29 C6'         1.8560    0.2690    6.0760 ca        1 P28     -0.024500
     30 H2          1.7550    0.4150   -0.7890 ha        1 P28      0.146500
     31 H3          3.0320    0.5260    1.3670 ha        1 P28      0.154500
     32 H5         -0.6730    0.0130    3.5660 ha        1 P28      0.154500
     33 H6         -1.9330   -0.0930    1.4190 ha        1 P28      0.146500
     34 H71        -1.9390   -0.3180   -0.9450 hc        1 P28      0.095200
     35 H72        -0.3870   -0.5050   -1.8530 hc        1 P28      0.095200
     36 H8         -0.0470    1.9310   -1.9770 hx        1 P28      0.090700
     37 HN8        -1.7180    2.2050    0.1060 hn        1 P28      0.460800
     38 H821       -2.1170    3.9210   -3.0890 hc        1 P28      0.114033
     39 H822       -1.0160    5.3130   -2.6230 hc        1 P28      0.114033
     40 H823       -2.7060    5.2150   -1.9480 hc        1 P28      0.114033
     41 H2'         0.4070    2.4540    3.8560 ha        1 P28      0.197500
     42 HO4         0.4240    2.2550    9.2100 ho        1 P28      0.481000
     43 H6'         2.4920   -0.6370    6.0770 ha        1 P28      0.197500
     44 H82        -2.7910    2.4430   -1.1920 hn        1 P28      0.460800
@<TRIPOS>BOND
     1    1    2 ar  
     2    1    6 ar  
     3    1    7 1   
     4    2    3 ar  
     5    2   30 1   
     6    3    4 ar  
     7    3   31 1   
     8    4    5 ar  
     9    4   16 1   
    10    5    6 ar  
    11    5   32 1   
    12    6   33 1   
    13    7    8 1   
    14    7   34 1   
    15    7   35 1   
    16    8    9 1   
    17    8   12 1   
    18    8   36 1   
    19    9   10 1   
    20    9   11 1   
    21   12   13 1   
    22   12   37 1   
    23   12   44 1   
    24   13   14 1   
    25   13   15 2   
    26   14   38 1   
    27   14   39 1   
    28   14   40 1   
    29   16   17 1   
    30   17   18 ar  
    31   17   29 ar  
    32   18   19 ar  
    33   18   41 1   
    34   19   20 1   
    35   19   23 ar  
    36   20   21 1   
    37   20   22 1   
    38   23   24 1   
    39   23   25 ar  
    40   24   42 1   
    41   25   26 1   
    42   25   29 ar  
    43   26   27 1   
    44   26   28 1   
    45   29   43 1   
@<TRIPOS>SUBSTRUCTURE
     1 P28         1 TEMP              0 ****  ****    0 ROOT
