@<TRIPOS>MOLECULE
P28
   43    39     1     0     0
SMALL
bcc


@<TRIPOS>ATOM
      1 C1         -0.3790    2.0730   -1.3510 c1        1 P28     -0.025000
      2 C2          1.0050    1.9910   -1.3590 c1        1 P28     -0.138000
      3 C3          1.7030    1.9460   -0.1630 c1        1 P28     -0.138000
      4 C4          1.0180    1.9830    1.0410 c1        1 P28     -0.026000
      5 C5         -0.3650    2.0640    1.0490 c1        1 P28     -0.126000
      6 C6         -1.0640    2.1090   -0.1470 c1        1 P28     -0.115000
      7 C7         -1.1450    2.0520   -2.6560 c3        1 P28     -0.122000
      8 C8         -2.1140    0.8920   -2.6520 c3        1 P28     -0.072000
      9 C9         -3.5220    1.4100   -2.8480 c2        1 P28      0.330000
     10 O9         -3.7260    2.4150   -3.5790 o         1 P28     -0.561500
     11 O10        -4.4910    0.8210   -2.3020 o         1 P28     -0.561500
     12 N8         -1.7880   -0.0010   -3.7070 n         1 P28     -0.334000
     13 C81        -2.6750   -1.0560   -4.0440 c2        1 P28      0.284000
     14 C82        -2.1290   -2.3630   -4.5740 c3        1 P28     -0.244000
     15 O81        -3.8730   -0.9070   -3.9120 o         1 P28     -0.406000
     16 O41         1.7260    1.9420    2.2540 os        1 P28     -0.152000
     17 C1'         1.7980    0.6150    2.7110 c2        1 P28      0.046000
     18 C2'         2.7380   -0.2520    2.1750 c2        1 P28     -0.046000
     19 C3'         2.8350   -1.5490    2.6520 c1        1 P28     -0.182500
     20 N3          3.7580   -2.4530    2.0650 n2        1 P28      0.472400
     21 O31         3.9490   -3.5480    2.5750 o         1 P28     -0.298200
     22 O32         4.4040   -2.1150    0.9110 o         1 P28     -0.298200
     23 C4'         1.9920   -1.9800    3.6640 c2        1 P28      0.185000
     24 O4'         2.0730   -3.3050    4.1300 oh        1 P28     -0.223000
     25 C5'         1.0530   -1.1130    4.2000 c1        1 P28     -0.182500
     26 N5          0.2110   -1.5450    5.2570 n2        1 P28      0.472400
     27 O51         0.3760   -2.6480    5.7580 o         1 P28     -0.298200
     28 O52        -0.7740   -0.7230    5.7250 o         1 P28     -0.298200
     29 C6'         0.9560    0.1840    3.7230 c2        1 P28     -0.046000
     30 H2          1.4880    1.9910   -2.2070 ha        1 P28      0.131500
     31 H3          2.6770    1.8890   -0.1690 ha        1 P28      0.131500
     32 H5         -0.8460    2.1120    1.8970 ha        1 P28      0.140000
     33 H6         -2.0380    2.1670   -0.1410 ha        1 P28      0.220000
     34 H71        -0.5180    1.9510   -3.4000 hc        1 P28      0.093500
     35 H72        -1.6390    2.8900   -2.7570 hc        1 P28      0.093500
     36 H8         -2.0570    0.4210   -1.7970 h1        1 P28      0.109000
     37 HN8        -1.0180    0.1160   -4.1810 hn        1 P28      0.238000
     38 H821       -1.6340   -2.8230   -3.8640 hc        1 P28      0.091333
     39 H822       -2.8700   -2.9290   -4.8740 hc        1 P28      0.091333
     40 H823       -1.5280   -2.1840   -5.3280 hc        1 P28      0.091333
     41 H2'         3.3490    0.0600    1.4800 ha        1 P28      0.201000
     42 HO4         2.7920   -3.3950    4.6460 ho        1 P28      0.271000
     43 H6'         0.2940    0.7950    4.1000 ha        1 P28      0.201000
@<TRIPOS>BOND
     1    1    6 1   
     2    1    7 1   
     3    2    3 1   
     4    2   30 1   
     5    3   31 1   
     6    4    5 1   
     7    4   16 1   
     8    5   32 1   
     9    6   33 1   
    10    7    8 1   
    11    7   34 1   
    12    7   35 1   
    13    8    9 1   
    14    8   12 1   
    15    8   36 1   
    16    9   10 1   
    17    9   11 1   
    18   12   13 1   
    19   12   37 1   
    20   13   14 1   
    21   13   15 1   
    22   14   38 1   
    23   14   39 1   
    24   14   40 1   
    25   16   17 1   
    26   17   18 1   
    27   17   29 1   
    28   18   19 1   
    29   18   41 1   
    30   19   23 1   
    31   20   21 2   
    32   20   22 2   
    33   23   24 1   
    34   23   25 1   
    35   24   42 1   
    36   25   29 1   
    37   26   27 2   
    38   26   28 2   
    39   29   43 1   
@<TRIPOS>SUBSTRUCTURE
     1 P28         1 TEMP              0 ****  ****    0 ROOT
