@<TRIPOS>MOLECULE
P28
   43    44     1     0     0
SMALL
bcc


@<TRIPOS>ATOM
      1 C1         -0.1090    0.0010   -0.0040 ca        1 P28     -0.017300
      2 C2          1.2110    0.4030    0.2590 ca        1 P28     -0.118000
      3 C3          1.7400    0.3110    1.5420 ca        1 P28     -0.128000
      4 C4          0.9340   -0.1940    2.5690 ca        1 P28      0.022100
      5 C5         -0.3800   -0.6090    2.3310 ca        1 P28     -0.128000
      6 C6         -0.8900   -0.5130    1.0390 ca        1 P28     -0.118000
      7 C7         -0.6590    0.1300   -1.3770 c3        1 P28     -0.049100
      8 C8         -0.9550    1.5890   -1.7640 c3        1 P28     -0.053300
      9 C9         -1.0630    1.6270   -3.3400 c         1 P28      0.911600
     10 O9         -0.0190    1.3150   -3.9680 o         1 P28     -0.823800
     11 O10        -2.1650    1.9580   -3.8570 o         1 P28     -0.823800
     12 N8         -2.1400    2.1180   -1.1240 n         1 P28     -0.515900
     13 C81        -2.0860    3.0820   -0.1420 c         1 P28      0.639100
     14 C82        -3.3740    3.8180    0.1680 c3        1 P28     -0.177100
     15 O81        -1.0570    3.3180    0.5330 o         1 P28     -0.649100
     16 O41         1.4880   -0.4030    3.8420 os        1 P28     -0.247200
     17 C1'         1.3450    0.6550    4.7280 ca        1 P28      0.077100
     18 C2'         1.4060    1.9950    4.3410 ca        1 P28     -0.033000
     19 C3'         1.3510    3.0000    5.3220 ca        1 P28     -0.236700
     20 N3          1.4780    4.4080    4.8740 no        1 P28      0.326700
     21 O31         1.1510    5.2920    5.6300 o         1 P28     -0.202000
     22 O32         1.9170    4.6370    3.7850 o         1 P28     -0.202000
     23 C4'         1.2000    2.6740    6.6940 ca        1 P28      0.239100
     24 O4'         1.1520    3.5580    7.7220 oh        1 P28     -0.462100
     25 C5'         1.1450    1.2970    7.0510 ca        1 P28     -0.236700
     26 N5          1.0000    0.8890    8.4720 no        1 P28      0.326700
     27 O51         0.8800    1.7240    9.3230 o         1 P28     -0.202000
     28 O52         1.0040   -0.2880    8.7290 o         1 P28     -0.202000
     29 C6'         1.2170    0.2950    6.0760 ca        1 P28     -0.033000
     30 H2          1.8200    0.8130   -0.5620 ha        1 P28      0.146500
     31 H3          2.7730    0.6240    1.7520 ha        1 P28      0.133500
     32 H5         -0.9910   -1.0060    3.1530 ha        1 P28      0.133500
     33 H6         -1.9250   -0.8280    0.8370 ha        1 P28      0.146500
     34 H71        -1.5860   -0.4920   -1.4870 hc        1 P28      0.067700
     35 H72         0.0970   -0.2450   -2.1230 hc        1 P28      0.067700
     36 H8         -0.0630    2.2170   -1.4740 h1        1 P28      0.066700
     37 HN8        -2.9240    2.1580   -1.7490 hn        1 P28      0.319500
     38 H821       -3.2020    4.5000    1.0350 hc        1 P28      0.052367
     39 H822       -4.1880    3.1000    0.4240 hc        1 P28      0.052367
     40 H823       -3.6890    4.4240   -0.7160 hc        1 P28      0.052367
     41 H2'         1.4920    2.2570    3.2660 ha        1 P28      0.202500
     42 HO4         0.9750    4.4640    7.4120 ho        1 P28      0.471000
     43 H6'         1.1780   -0.7730    6.3570 ha        1 P28      0.202500
@<TRIPOS>BOND
     1    1    2 ar  
     2    1    6 ar  
     3    1    7 1   
     4    2    3 ar  
     5    2   30 1   
     6    3    4 ar  
     7    3   31 1   
     8    4    5 ar  
     9    4   16 1   
    10    5    6 ar  
    11    5   32 1   
    12    6   33 1   
    13    7    8 1   
    14    7   34 1   
    15    7   35 1   
    16    8    9 1   
    17    8   12 1   
    18    8   36 1   
    19    9   10 1   
    20    9   11 1   
    21   12   13 1   
    22   12   37 1   
    23   13   14 1   
    24   13   15 2   
    25   14   38 1   
    26   14   39 1   
    27   14   40 1   
    28   16   17 1   
    29   17   18 ar  
    30   17   29 ar  
    31   18   19 ar  
    32   18   41 1   
    33   19   20 1   
    34   19   23 ar  
    35   20   21 1   
    36   20   22 1   
    37   23   24 1   
    38   23   25 ar  
    39   24   42 1   
    40   25   26 1   
    41   25   29 ar  
    42   26   27 1   
    43   26   28 1   
    44   29   43 1   
@<TRIPOS>SUBSTRUCTURE
     1 P28         1 TEMP              0 ****  ****    0 ROOT
