@<TRIPOS>MOLECULE
P28
   43    44     1     0     0
SMALL
bcc


@<TRIPOS>ATOM
      1 C1          2.9040   -1.0150    2.2460 ca        1 P28     -0.017300
      2 C2          3.5290   -1.9410    3.0960 ca        1 P28     -0.118000
      3 C3          4.8910   -1.8520    3.3670 ca        1 P28     -0.128000
      4 C4          5.6280   -0.8190    2.7770 ca        1 P28      0.022100
      5 C5          5.0270    0.1210    1.9340 ca        1 P28     -0.128000
      6 C6          3.6620    0.0180    1.6790 ca        1 P28     -0.118000
      7 C7          1.4530   -1.1430    1.9540 c3        1 P28     -0.049100
      8 C8          1.1370   -2.3210    1.0170 c3        1 P28     -0.053300
      9 C9         -0.4040   -2.6280    1.1770 c         1 P28      0.911600
     10 O9         -0.7710   -2.9990    2.3220 o         1 P28     -0.823800
     11 O10        -1.1520   -2.4840    0.1720 o         1 P28     -0.823800
     12 N8          1.5000   -2.0640   -0.3610 n         1 P28     -0.515900
     13 C81         2.5470   -2.7050   -0.9850 c         1 P28      0.639100
     14 C82         2.5840   -2.6420   -2.4980 c3        1 P28     -0.177100
     15 O81         3.4800   -3.2630   -0.3620 o         1 P28     -0.649100
     16 O41         6.9760   -0.6450    3.1300 os        1 P28     -0.247200
     17 C1'         7.8890   -1.2900    2.3090 ca        1 P28      0.077100
     18 C2'         7.6530   -2.5390    1.7300 ca        1 P28     -0.033000
     19 C3'         8.6750   -3.1620    0.9950 ca        1 P28     -0.236700
     20 N3          8.4040   -4.5130    0.4460 no        1 P28      0.326700
     21 O31         9.1280   -4.9490   -0.4170 o         1 P28     -0.202000
     22 O32         7.4880   -5.1470    0.8820 o         1 P28     -0.202000
     23 C4'         9.9280   -2.5270    0.8010 ca        1 P28      0.239100
     24 O4'        10.9860   -3.0410    0.1250 oh        1 P28     -0.462100
     25 C5'        10.1340   -1.2560    1.4090 ca        1 P28     -0.236700
     26 N5         11.4270   -0.5430    1.2550 no        1 P28      0.326700
     27 O51        12.2920   -1.0180    0.5740 o         1 P28     -0.202000
     28 O52        11.5690    0.5090    1.8260 o         1 P28     -0.202000
     29 C6'         9.1210   -0.6420    2.1570 ca        1 P28     -0.033000
     30 H2          2.9300   -2.7550    3.5350 ha        1 P28      0.146500
     31 H3          5.3830   -2.5740    4.0330 ha        1 P28      0.133500
     32 H5          5.6270    0.9250    1.4860 ha        1 P28      0.133500
     33 H6          3.1760    0.7450    1.0110 ha        1 P28      0.146500
     34 H71         1.0550   -0.1890    1.5210 hc        1 P28      0.067700
     35 H72         0.8930   -1.3460    2.9110 hc        1 P28      0.067700
     36 H8          1.7000   -3.2260    1.3870 h1        1 P28      0.066700
     37 HN8         0.7030   -1.8470   -0.9300 hn        1 P28      0.319500
     38 H821        3.5240   -3.1240   -2.8580 hc        1 P28      0.052367
     39 H822        1.7080   -3.1880   -2.9240 hc        1 P28      0.052367
     40 H823        2.5590   -1.5840   -2.8510 hc        1 P28      0.052367
     41 H2'         6.6630   -3.0260    1.8510 ha        1 P28      0.202500
     42 HO4        10.7250   -3.7890   -0.4400 ho        1 P28      0.471000
     43 H6'         9.2850    0.3440    2.6310 ha        1 P28      0.202500
@<TRIPOS>BOND
     1    1    2 ar  
     2    1    6 ar  
     3    1    7 1   
     4    2    3 ar  
     5    2   30 1   
     6    3    4 ar  
     7    3   31 1   
     8    4    5 ar  
     9    4   16 1   
    10    5    6 ar  
    11    5   32 1   
    12    6   33 1   
    13    7    8 1   
    14    7   34 1   
    15    7   35 1   
    16    8    9 1   
    17    8   12 1   
    18    8   36 1   
    19    9   10 1   
    20    9   11 1   
    21   12   13 1   
    22   12   37 1   
    23   13   14 1   
    24   13   15 2   
    25   14   38 1   
    26   14   39 1   
    27   14   40 1   
    28   16   17 1   
    29   17   18 ar  
    30   17   29 ar  
    31   18   19 ar  
    32   18   41 1   
    33   19   20 1   
    34   19   23 ar  
    35   20   21 1   
    36   20   22 1   
    37   23   24 1   
    38   23   25 ar  
    39   24   42 1   
    40   25   26 1   
    41   25   29 ar  
    42   26   27 1   
    43   26   28 1   
    44   29   43 1   
@<TRIPOS>SUBSTRUCTURE
     1 P28         1 TEMP              0 ****  ****    0 ROOT
