@<TRIPOS>MOLECULE
P28
   44    45     1     0     0
SMALL
bcc


@<TRIPOS>ATOM
      1 C1         -0.1020   -0.2190   -0.0310 ca        1 P28     -0.097300
      2 C2          1.2660    0.0140    0.1630 ca        1 P28     -0.125500
      3 C3          1.8260   -0.0700    1.4360 ca        1 P28     -0.124000
      4 C4          0.9990   -0.4090    2.5130 ca        1 P28      0.055100
      5 C5         -0.3500   -0.7360    2.3260 ca        1 P28     -0.124000
      6 C6         -0.8930   -0.6360    1.0480 ca        1 P28     -0.125500
      7 C7         -0.7270    0.0240   -1.3580 c3        1 P28     -0.052100
      8 C8         -0.8810    1.5110   -1.6630 c3        1 P28     -0.063500
      9 C9         -1.7130    1.6480   -3.0320 c         1 P28      0.936600
     10 O9         -2.8260    2.2280   -2.9170 o         1 P28     -0.755800
     11 O10        -1.1550    1.1670   -4.0290 o         1 P28     -0.755800
     12 N8         -1.5910    2.2630   -0.5770 ny        1 P28     -0.667800
     13 C81        -0.9040    3.5080   -0.1140 c         1 P28      0.560100
     14 C82        -1.7970    4.6350    0.2910 c3        1 P28     -0.193100
     15 O81         0.3210    3.5130   -0.0680 o         1 P28     -0.455100
     16 O41         1.5650   -0.4740    3.7940 os        1 P28     -0.230200
     17 C1'         1.2060    0.5850    4.6240 ca        1 P28      0.069100
     18 C2'         0.4610    1.6830    4.1910 ca        1 P28     -0.036500
     19 C3'         0.1400    2.7050    5.0910 ca        1 P28     -0.236200
     20 N3         -0.6720    3.8430    4.5880 no        1 P28      0.330700
     21 O31        -0.8530    4.8020    5.2770 o         1 P28     -0.201250
     22 O32        -1.1320    3.7570    3.4730 o         1 P28     -0.201250
     23 C4'         0.5780    2.6520    6.4460 ca        1 P28      0.256100
     24 O4'         0.1990    3.6930    7.2220 oh        1 P28     -0.451100
     25 C5'         1.3440    1.5260    6.8490 ca        1 P28     -0.236200
     26 N5          1.8470    1.3840    8.2380 no        1 P28      0.330700
     27 O51         1.5970    2.2460    9.0420 o         1 P28     -0.201250
     28 O52         2.4890    0.4140    8.5250 o         1 P28     -0.201250
     29 C6'         1.6550    0.4960    5.9460 ca        1 P28     -0.036500
     30 H2          1.8980    0.2910   -0.6970 ha        1 P28      0.152500
     31 H3          2.8950    0.1310    1.6000 ha        1 P28      0.157000
     32 H5         -0.9650   -1.0570    3.1800 ha        1 P28      0.157000
     33 H6         -1.9510   -0.8960    0.8850 ha        1 P28      0.152500
     34 H71        -0.0940   -0.3980   -2.1890 hc        1 P28      0.095200
     35 H72        -1.7270   -0.4830   -1.4220 hc        1 P28      0.095200
     36 H8          0.1300    1.9770   -1.8220 hx        1 P28      0.106700
     37 HN8        -2.5220    2.5250   -0.9950 hn        1 P28      0.463800
     38 H821       -2.0610    4.5120    1.3760 hc        1 P28      0.105700
     39 H822       -1.2330    5.5960    0.1730 hc        1 P28      0.105700
     40 H823       -2.7300    4.6880   -0.3210 hc        1 P28      0.105700
     41 H2'         0.1210    1.7480    3.1410 ha        1 P28      0.194500
     42 HO4         0.5440    3.6290    8.1320 ho        1 P28      0.482000
     43 H6'         2.2500   -0.3810    6.2660 ha        1 P28      0.194500
     44 H82        -1.7440    1.6530    0.2300 hn        1 P28      0.463800
@<TRIPOS>BOND
     1    1    2 ar  
     2    1    6 ar  
     3    1    7 1   
     4    2    3 ar  
     5    2   30 1   
     6    3    4 ar  
     7    3   31 1   
     8    4    5 ar  
     9    4   16 1   
    10    5    6 ar  
    11    5   32 1   
    12    6   33 1   
    13    7    8 1   
    14    7   34 1   
    15    7   35 1   
    16    8    9 1   
    17    8   12 1   
    18    8   36 1   
    19    9   10 1   
    20    9   11 1   
    21   12   13 1   
    22   12   37 1   
    23   12   44 1   
    24   13   14 1   
    25   13   15 2   
    26   14   38 1   
    27   14   39 1   
    28   14   40 1   
    29   16   17 1   
    30   17   18 ar  
    31   17   29 ar  
    32   18   19 ar  
    33   18   41 1   
    34   19   20 1   
    35   19   23 ar  
    36   20   21 1   
    37   20   22 1   
    38   23   24 1   
    39   23   25 ar  
    40   24   42 1   
    41   25   26 1   
    42   25   29 ar  
    43   26   27 1   
    44   26   28 1   
    45   29   43 1   
@<TRIPOS>SUBSTRUCTURE
     1 P28         1 TEMP              0 ****  ****    0 ROOT
