@<TRIPOS>MOLECULE
P29
   41    44     1     0     0
SMALL
bcc


@<TRIPOS>ATOM
      1 N01        -0.1470   -0.0980   -0.1540 nc        1 P29     -0.576100
      2 C02         1.2010   -0.1560   -0.2130 cd        1 P29      0.443500
      3 C03         1.7980   -0.2340    1.1050 cd        1 P29     -0.225300
      4 C04         0.7040   -0.2210    2.0130 cc        1 P29      0.492500
      5 N05        -0.4670   -0.1420    1.1610 na        1 P29     -0.178600
      6 N06         0.6310   -0.2730    3.3750 nc        1 P29     -0.752000
      7 C07        -0.6360   -0.2440    3.8960 cd        1 P29      0.936900
      8 N08        -1.8310   -0.1300    3.1470 nd        1 P29     -0.844000
      9 C09        -1.7370   -0.0720    1.7940 cc        1 P29      0.859400
     10 N10        -2.8640    0.1030    1.0070 nh        1 P29     -0.858900
     11 C11        -4.1870    0.0000    1.5770 c3        1 P29      0.216800
     12 C12        -5.2860    0.1510    0.5180 c3        1 P29     -0.018100
     13 C13        -6.6170    0.0460    1.1420 cc        1 P29     -0.232900
     14 N14        -7.1740    0.9970    2.0090 na        1 P29     -0.314900
     15 C15        -8.4460    0.5310    2.3540 cc        1 P29      0.397400
     16 N16        -8.7190   -0.6510    1.7570 nd        1 P29     -0.664000
     17 C17        -7.5940   -0.9640    1.0020 cd        1 P29      0.313200
     18 N18        -0.8290   -0.3910    5.2740 nh        1 P29     -0.704300
     19 C19         0.2110   -0.2070    6.2190 ca        1 P29      0.121600
     20 C20         0.0230    0.7090    7.2790 ca        1 P29     -0.129500
     21 C21         0.9990    0.8500    8.2600 ca        1 P29     -0.117000
     22 C22         2.1720    0.1000    8.2030 ca        1 P29     -0.132000
     23 C23         2.3640   -0.8040    7.1600 ca        1 P29     -0.117000
     24 C24         1.3940   -0.9700    6.1730 ca        1 P29     -0.129500
     25 C25         3.1560   -0.3080    1.4100 ch        1 P29      0.253500
     26 N26         4.2920   -0.3710    1.6610 n1        1 P29     -0.385800
     27 H02         1.7360   -0.1440   -1.1670 h4        1 P29      0.064800
     28 HN10       -2.7760    0.0030    0.0190 hn        1 P29      0.463800
     29 H111       -4.3020    0.8100    2.3540 h1        1 P29      0.063700
     30 H112       -4.3110   -0.9930    2.0990 h1        1 P29      0.063700
     31 H121       -5.1960   -0.6600   -0.2540 hc        1 P29      0.065700
     32 H122       -5.1800    1.1370   -0.0110 hc        1 P29      0.065700
     33 HN14       -6.7430    1.8300    2.3060 hn        1 P29      0.301700
     34 H15        -9.1140    1.0790    3.0270 h5        1 P29      0.064100
     35 H17        -7.5380   -1.8750    0.4080 h4        1 P29      0.045100
     36 HN18       -1.7450   -0.1680    5.6090 hn        1 P29      0.447800
     37 H20        -0.8950    1.3140    7.3400 ha        1 P29      0.145000
     38 H21         0.8420    1.5650    9.0820 ha        1 P29      0.137000
     39 H22         2.9440    0.2230    8.9770 ha        1 P29      0.136000
     40 H23         3.2890   -1.3980    7.1090 ha        1 P29      0.137000
     41 H24         1.5680   -1.6950    5.3630 ha        1 P29      0.145000
@<TRIPOS>BOND
     1    1    2 2   
     2    1    5 1   
     3    2    3 1   
     4    2   27 1   
     5    3    4 2   
     6    3   25 1   
     7    4    5 1   
     8    4    6 1   
     9    5    9 1   
    10    6    7 2   
    11    7    8 1   
    12    7   18 1   
    13    8    9 2   
    14    9   10 1   
    15   10   11 1   
    16   10   28 1   
    17   11   12 1   
    18   11   29 1   
    19   11   30 1   
    20   12   13 1   
    21   12   31 1   
    22   12   32 1   
    23   13   14 1   
    24   13   17 2   
    25   14   15 1   
    26   14   33 1   
    27   15   16 2   
    28   15   34 1   
    29   16   17 1   
    30   17   35 1   
    31   18   19 1   
    32   18   36 1   
    33   19   20 ar  
    34   19   24 ar  
    35   20   21 ar  
    36   20   37 1   
    37   21   22 ar  
    38   21   38 1   
    39   22   23 ar  
    40   22   39 1   
    41   23   24 ar  
    42   23   40 1   
    43   24   41 1   
    44   25   26 3   
@<TRIPOS>SUBSTRUCTURE
     1 P29         1 TEMP              0 ****  ****    0 ROOT
