@<TRIPOS>MOLECULE
P29
   41    44     1     0     0
SMALL
bcc


@<TRIPOS>ATOM
      1 N01        -0.1360    0.1400   -0.1770 nc        1 P29     -0.576100
      2 C02         1.2130    0.1240   -0.2310 cd        1 P29      0.443500
      3 C03         1.8050   -0.0190    1.0830 cd        1 P29     -0.225300
      4 C04         0.7070   -0.0950    1.9830 cc        1 P29      0.492500
      5 N05        -0.4610    0.0040    1.1300 na        1 P29     -0.178600
      6 N06         0.6290   -0.2340    3.3380 nc        1 P29     -0.752000
      7 C07        -0.6410   -0.2750    3.8510 cd        1 P29      0.936900
      8 N08        -1.8350   -0.1470    3.1030 nd        1 P29     -0.844000
      9 C09        -1.7360   -0.0020    1.7570 cc        1 P29      0.859400
     10 N10        -2.8640    0.1900    0.9750 nu        1 P29     -0.858900
     11 C11        -4.1860    0.0140    1.5290 c3        1 P29      0.216800
     12 C12        -5.2840    0.2000    0.4740 c3        1 P29     -0.018100
     13 C13        -6.6140    0.0190    1.0810 cc        1 P29     -0.232900
     14 N14        -7.2020    0.8980    2.0010 na        1 P29     -0.314900
     15 C15        -8.4620    0.3770    2.3080 cc        1 P29      0.397400
     16 N16        -8.6990   -0.7730    1.6380 nd        1 P29     -0.664000
     17 C17        -7.5610   -1.0080    0.8730 cd        1 P29      0.313200
     18 N18        -0.8360   -0.5130    5.2170 nu        1 P29     -0.704300
     19 C19         0.1930   -0.3600    6.1780 ca        1 P29      0.121600
     20 C20        -0.0260    0.4810    7.2930 ca        1 P29     -0.129500
     21 C21         0.9400    0.5880    8.2870 ca        1 P29     -0.117000
     22 C22         2.1350   -0.1240    8.1910 ca        1 P29     -0.132000
     23 C23         2.3570   -0.9550    7.0950 ca        1 P29     -0.117000
     24 C24         1.3980   -1.0850    6.0920 ca        1 P29     -0.129500
     25 C25         3.1640   -0.0740    1.3920 ch        1 P29      0.253500
     26 N26         4.2990   -0.1200    1.6470 n1        1 P29     -0.385800
     27 H02         1.7520    0.2110   -1.1790 h4        1 P29      0.064800
     28 HN10       -2.7680    0.1540   -0.0170 hn        1 P29      0.463800
     29 H111       -4.3280    0.7700    2.3540 h1        1 P29      0.063700
     30 H112       -4.2840   -1.0130    1.9870 h1        1 P29      0.063700
     31 H121       -5.2030    1.2200    0.0070 hc        1 P29      0.065700
     32 H122       -5.1670   -0.5590   -0.3460 hc        1 P29      0.065700
     33 HN14       -6.7960    1.7240    2.3520 hn        1 P29      0.301700
     34 H15        -9.1490    0.8630    3.0090 h5        1 P29      0.064100
     35 H17        -7.4770   -1.8790    0.2250 h4        1 P29      0.045100
     36 HN18       -1.7600   -0.3370    5.5590 hn        1 P29      0.447800
     37 H20        -0.9610    1.0560    7.3850 ha        1 P29      0.145000
     38 H21         0.7590    1.2450    9.1510 ha        1 P29      0.137000
     39 H22         2.8990   -0.0290    8.9760 ha        1 P29      0.136000
     40 H23         3.2990   -1.5180    7.0130 ha        1 P29      0.137000
     41 H24         1.5960   -1.7530    5.2390 ha        1 P29      0.145000
@<TRIPOS>BOND
     1    1    2 2   
     2    1    5 1   
     3    2    3 1   
     4    2   27 1   
     5    3    4 2   
     6    3   25 1   
     7    4    5 1   
     8    4    6 1   
     9    5    9 1   
    10    6    7 2   
    11    7    8 1   
    12    7   18 1   
    13    8    9 2   
    14    9   10 1   
    15   10   11 1   
    16   10   28 1   
    17   11   12 1   
    18   11   29 1   
    19   11   30 1   
    20   12   13 1   
    21   12   31 1   
    22   12   32 1   
    23   13   14 1   
    24   13   17 2   
    25   14   15 1   
    26   14   33 1   
    27   15   16 2   
    28   15   34 1   
    29   16   17 1   
    30   17   35 1   
    31   18   19 1   
    32   18   36 1   
    33   19   20 ar  
    34   19   24 ar  
    35   20   21 ar  
    36   20   37 1   
    37   21   22 ar  
    38   21   38 1   
    39   22   23 ar  
    40   22   39 1   
    41   23   24 ar  
    42   23   40 1   
    43   24   41 1   
    44   25   26 3   
@<TRIPOS>SUBSTRUCTURE
     1 P29         1 TEMP              0 ****  ****    0 ROOT
