@<TRIPOS>MOLECULE
P29
   43    46     1     0     0
SMALL
bcc


@<TRIPOS>ATOM
      1 N01         0.1500    0.2540   -0.1830 nc        1 P29     -0.515100
      2 C02         1.4840    0.0660   -0.3320 cd        1 P29      0.481500
      3 C03         2.0820   -0.5270    0.8560 cd        1 P29      0.003700
      4 C04         1.0170   -0.6990    1.7680 cc        1 P29      0.372500
      5 N05        -0.1640   -0.1820    1.0470 na        1 P29     -0.147600
      6 N06         0.9130   -1.2000    3.0400 nc        1 P29     -0.531000
      7 C07        -0.3200   -1.1930    3.5700 cd        1 P29      0.728900
      8 N08        -1.5100   -0.7240    2.9570 nd        1 P29     -0.684000
      9 C09        -1.3940   -0.2410    1.7160 cc        1 P29      0.711400
     10 N10        -2.5900    0.2570    0.9750 n4        1 P29     -0.759700
     11 C11        -3.8720    0.2610    1.7670 c3        1 P29      0.111800
     12 C12        -5.0590    0.7290    0.9080 c3        1 P29     -0.002100
     13 C13        -6.2690    0.5640    1.7270 cc        1 P29     -0.316900
     14 N14        -7.0880    1.6040    2.1970 na        1 P29     -0.299900
     15 C15        -8.1280    1.0020    2.9050 cc        1 P29      0.453400
     16 N16        -7.9960   -0.3480    2.9340 nd        1 P29     -0.641000
     17 C17        -6.8570   -0.6340    2.2010 cd        1 P29      0.347200
     18 N18        -0.4790   -1.7180    4.9620 n4        1 P29     -0.593100
     19 C19        -0.0300   -0.7450    5.9680 ca        1 P29     -0.088400
     20 C20        -0.9850    0.0310    6.6510 ca        1 P29     -0.092500
     21 C21        -0.5530    0.8990    7.6500 ca        1 P29     -0.099500
     22 C22         0.8060    1.0020    7.9620 ca        1 P29     -0.048000
     23 C23         1.7450    0.2340    7.2710 ca        1 P29     -0.099500
     24 C24         1.3410   -0.6440    6.2670 ca        1 P29     -0.092500
     25 C25         3.4280   -0.8550    1.0510 ch        1 P29      0.156500
     26 N26         4.5480   -1.1260    1.2110 n1        1 P29     -0.195800
     27 H02         2.0090    0.3450   -1.2620 h4        1 P29      0.126800
     28 HN10       -2.3920    1.2210    0.6530 hn        1 P29      0.490800
     29 H111       -3.7350    0.9460    2.6510 hx        1 P29      0.122700
     30 H112       -4.0690   -0.7870    2.1340 hx        1 P29      0.122700
     31 H121       -5.1520    0.0920   -0.0150 hc        1 P29      0.081200
     32 H122       -4.9150    1.7940    0.5830 hc        1 P29      0.081200
     33 HN14       -7.0130    2.5570    1.9500 hn        1 P29      0.315700
     34 H15        -8.9410    1.5740    3.3760 h5        1 P29      0.094100
     35 H17        -6.5330   -1.6620    2.0360 h4        1 P29      0.045100
     36 HN18        0.0900   -2.5790    5.0530 hn        1 P29      0.492300
     37 H20        -2.0610   -0.0450    6.4260 ha        1 P29      0.162500
     38 H21        -1.2940    1.5020    8.2030 ha        1 P29      0.184500
     39 H22         1.1370    1.6900    8.7610 ha        1 P29      0.187000
     40 H23         2.8180    0.3130    7.5220 ha        1 P29      0.184500
     41 H24         2.0970   -1.2450    5.7340 ha        1 P29      0.162500
     42 H102       -2.7150   -0.3400    0.1380 hn        1 P29      0.490800
     43 H182       -1.4720   -1.9500    5.1300 hn        1 P29      0.492300
@<TRIPOS>BOND
     1    1    2 2   
     2    1    5 1   
     3    2    3 1   
     4    2   27 1   
     5    3    4 2   
     6    3   25 1   
     7    4    5 1   
     8    4    6 1   
     9    5    9 1   
    10    6    7 2   
    11    7    8 1   
    12    7   18 1   
    13    8    9 2   
    14    9   10 1   
    15   10   11 1   
    16   10   28 1   
    17   10   42 1   
    18   11   12 1   
    19   11   29 1   
    20   11   30 1   
    21   12   13 1   
    22   12   31 1   
    23   12   32 1   
    24   13   14 1   
    25   13   17 2   
    26   14   15 1   
    27   14   33 1   
    28   15   16 2   
    29   15   34 1   
    30   16   17 1   
    31   17   35 1   
    32   18   19 1   
    33   18   36 1   
    34   18   43 1   
    35   19   20 ar  
    36   19   24 ar  
    37   20   21 ar  
    38   20   37 1   
    39   21   22 ar  
    40   21   38 1   
    41   22   23 ar  
    42   22   39 1   
    43   23   24 ar  
    44   23   40 1   
    45   24   41 1   
    46   25   26 3   
@<TRIPOS>SUBSTRUCTURE
     1 P29         1 TEMP              0 ****  ****    0 ROOT
