@<TRIPOS>MOLECULE
P29
   41    44     1     0     0
SMALL
bcc


@<TRIPOS>ATOM
      1 N01        -0.0670   -3.4960    0.0620 nc        1 P29     -0.576100
      2 C02        -1.2930   -4.0610    0.0450 cd        1 P29      0.443500
      3 C03        -2.3450   -3.0690   -0.0400 cd        1 P29     -0.225300
      4 C04        -1.6750   -1.8150   -0.0760 cc        1 P29      0.492500
      5 N05        -0.2680   -2.1590   -0.0150 na        1 P29     -0.178600
      6 N06        -2.1240   -0.5290   -0.1550 nc        1 P29     -0.752000
      7 C07        -1.1470    0.4330   -0.1740 cd        1 P29      0.936900
      8 N08         0.2430    0.1940   -0.0800 nd        1 P29     -0.844000
      9 C09         0.6690   -1.0920    0.0050 cc        1 P29      0.859400
     10 N10         2.0140   -1.3900    0.1620 nh        1 P29     -0.858900
     11 C11         3.0200   -0.3650    0.0090 c3        1 P29      0.216800
     12 C12         4.4410   -0.9260    0.1490 c3        1 P29     -0.018100
     13 C13         5.4350    0.1510   -0.0070 cc        1 P29     -0.232900
     14 N14         5.6410    1.1920    0.9090 na        1 P29     -0.314900
     15 C15         6.6790    1.9770    0.4000 cc        1 P29      0.397400
     16 N16         7.1350    1.4930   -0.7770 nd        1 P29     -0.664000
     17 C17         6.3720    0.3600   -1.0430 cd        1 P29      0.313200
     18 N18        -1.4940    1.7770   -0.3520 nh        1 P29     -0.704300
     19 C19        -2.8090    2.2640   -0.1550 ca        1 P29      0.121600
     20 C20        -3.0180    3.3430    0.7350 ca        1 P29     -0.129500
     21 C21        -4.2900    3.8860    0.8860 ca        1 P29     -0.117000
     22 C22        -5.3700    3.3680    0.1720 ca        1 P29     -0.132000
     23 C23        -5.1700    2.3060   -0.7070 ca        1 P29     -0.117000
     24 C24        -3.9020    1.7540   -0.8830 ca        1 P29     -0.129500
     25 C25        -3.7190   -3.3010   -0.0800 ch        1 P29      0.253500
     26 N26        -4.8660   -3.4990   -0.1140 n1        1 P29     -0.385800
     27 H02        -1.4260   -5.1460    0.0900 h4        1 P29      0.064800
     28 HN10        2.3040   -2.3400    0.0820 hn        1 P29      0.463800
     29 H111        2.9180    0.1360   -0.9970 h1        1 P29      0.063700
     30 H112        2.8490    0.4200    0.8000 h1        1 P29      0.063700
     31 H121        4.5630   -1.4270    1.1480 hc        1 P29      0.065700
     32 H122        4.6330   -1.6990   -0.6440 hc        1 P29      0.065700
     33 HN14        5.1450    1.3280    1.7480 hn        1 P29      0.301700
     34 H15         7.0530    2.8690    0.9140 h5        1 P29      0.064100
     35 H17         6.5280   -0.2380   -1.9400 h4        1 P29      0.045100
     36 HN18       -0.7680    2.4400   -0.1610 hn        1 P29      0.447800
     37 H20        -2.1800    3.7630    1.3120 ha        1 P29      0.145000
     38 H21        -4.4410    4.7260    1.5810 ha        1 P29      0.137000
     39 H22        -6.3740    3.7970    0.3020 ha        1 P29      0.136000
     40 H23        -6.0190    1.8930   -1.2730 ha        1 P29      0.137000
     41 H24        -3.7720    0.9180   -1.5870 ha        1 P29      0.145000
@<TRIPOS>BOND
     1    1    2 2   
     2    1    5 1   
     3    2    3 1   
     4    2   27 1   
     5    3    4 2   
     6    3   25 1   
     7    4    5 1   
     8    4    6 1   
     9    5    9 1   
    10    6    7 2   
    11    7    8 1   
    12    7   18 1   
    13    8    9 2   
    14    9   10 1   
    15   10   11 1   
    16   10   28 1   
    17   11   12 1   
    18   11   29 1   
    19   11   30 1   
    20   12   13 1   
    21   12   31 1   
    22   12   32 1   
    23   13   14 1   
    24   13   17 2   
    25   14   15 1   
    26   14   33 1   
    27   15   16 2   
    28   15   34 1   
    29   16   17 1   
    30   17   35 1   
    31   18   19 1   
    32   18   36 1   
    33   19   20 ar  
    34   19   24 ar  
    35   20   21 ar  
    36   20   37 1   
    37   21   22 ar  
    38   21   38 1   
    39   22   23 ar  
    40   22   39 1   
    41   23   24 ar  
    42   23   40 1   
    43   24   41 1   
    44   25   26 3   
@<TRIPOS>SUBSTRUCTURE
     1 P29         1 TEMP              0 ****  ****    0 ROOT
