@<TRIPOS>MOLECULE
P29
   41    34     1     0     0
SMALL
bcc


@<TRIPOS>ATOM
      1 N01         1.9990    0.4120   -3.1670 n2        1 P29     -0.111000
      2 C02         3.3510    0.5150   -3.1650 c1        1 P29     -0.058000
      3 C03         3.7690    0.5440   -1.8620 c1        1 P29     -0.174000
      4 C04         2.6450    0.4570   -1.0460 c1        1 P29      0.145000
      5 N05         1.5660    0.3760   -1.8310 n2        1 P29     -0.181000
      6 N06         2.5170    0.3270    0.3100 n1        1 P29     -0.244000
      7 C07         1.3180    0.1180    0.8520 c1        1 P29      0.220000
      8 N08         0.2190    0.0350    0.0610 n1        1 P29     -0.300000
      9 C09         0.3340    0.1620   -1.2710 c1        1 P29      0.312000
     10 N10        -0.7670    0.0510   -2.1740 n3        1 P29     -0.303000
     11 C11        -1.9380    0.9960   -2.0670 c3        1 P29     -0.019000
     12 C12        -3.1360    0.4060   -2.8360 c3        1 P29     -0.105000
     13 C13        -4.4650    0.8970   -2.2000 c2        1 P29     -0.135000
     14 N14        -5.1230    0.3050   -1.1790 n2        1 P29     -0.201000
     15 C15        -6.1850    1.0800   -0.8600 c1        1 P29     -0.092000
     16 N16        -6.1830    2.1640   -1.6920 n2        1 P29     -0.138000
     17 C17        -5.1300    2.0540   -2.5140 c1        1 P29     -0.152000
     18 N18         1.2840    0.2980    2.2430 n3        1 P29     -0.228000
     19 C19         1.7590   -0.7230    3.0990 c2        1 P29      0.045000
     20 C20         0.9160   -1.7720    3.4660 c2        1 P29     -0.107000
     21 C21         1.3640   -2.7540    4.3730 c1        1 P29     -0.124000
     22 C22         2.6550   -2.6790    4.9080 c1        1 P29     -0.123000
     23 C23         3.5040   -1.6280    4.5420 c1        1 P29     -0.123000
     24 C24         3.0540   -0.6440    3.6330 c1        1 P29     -0.155000
     25 C25         5.1790    0.8120   -1.4750 c1        1 P29     -0.040000
     26 N26         6.2400    1.0120   -1.1830 n1        1 P29     -0.060000
     27 H02         3.9330    0.6520   -3.9730 DU        1 P29      0.207250
     28 HN10       -0.7780   -0.6260   -2.8080 hn        1 P29      0.259000
     29 H111       -2.1780    1.1160   -1.1250 h1        1 P29      0.104500
     30 H112       -1.6820    1.9150   -2.4790 h1        1 P29      0.104500
     31 H121       -3.0970   -0.5860   -2.7970 hc        1 P29      0.105000
     32 H122       -3.0970    0.6890   -3.7520 hc        1 P29      0.105000
     33 HN14       -4.9030   -0.4460   -0.7930 DU        1 P29      0.207250
     34 H15        -6.8350    0.8980   -0.1590 DU        1 P29      0.207250
     35 H17        -4.8730    2.7100   -3.2400 DU        1 P29      0.207250
     36 HN18        0.9520    1.0480    2.5850 hn        1 P29      0.251000
     37 H20        -0.0050   -1.8270    3.0860 ha        1 P29      0.148000
     38 H21         0.7710   -3.4880    4.6290 ha        1 P29      0.133000
     39 H22         2.9780   -3.3890    5.5630 ha        1 P29      0.137000
     40 H23         4.4250   -1.5740    4.9220 ha        1 P29      0.137000
     41 H24         3.6430    0.0900    3.3760 ha        1 P29      0.137000
@<TRIPOS>BOND
     1    1    2 1   
     2    1    5 1   
     3    2    3 1   
     4    3    4 1   
     5    4    6 1   
     6    5    9 1   
     7    7    8 1   
     8    7   18 1   
     9    9   10 1   
    10   10   11 1   
    11   10   28 1   
    12   11   12 1   
    13   11   29 1   
    14   11   30 1   
    15   12   13 1   
    16   12   31 1   
    17   12   32 1   
    18   13   14 1   
    19   13   17 1   
    20   14   15 1   
    21   15   16 1   
    22   16   17 1   
    23   18   19 1   
    24   18   36 1   
    25   19   20 1   
    26   19   24 1   
    27   20   21 1   
    28   20   37 1   
    29   21   38 1   
    30   22   23 1   
    31   22   39 1   
    32   23   40 1   
    33   24   41 1   
    34   25   26 1   
@<TRIPOS>SUBSTRUCTURE
     1 P29         1 TEMP              0 ****  ****    0 ROOT
