@<TRIPOS>MOLECULE
P2A
   27    26     1     0     0
SMALL
bcc


@<TRIPOS>ATOM
      1 O1          0.6160   -0.4940   -0.5810 o         1 P2A     -0.915833
      2 O2          1.6200   -0.5370   -2.9090 o         1 P2A     -0.915833
      3 P1          1.8640   -0.5620   -1.4140 p5        1 P2A      1.320900
      4 O3          2.9770   -1.4390   -0.9320 o         1 P2A     -0.915833
      5 O4          2.5130    1.0420   -1.1900 os        1 P2A     -0.557200
      6 C1          1.5860    2.0430   -1.2180 c3        1 P2A      0.234400
      7 C2          1.8430    2.9690   -2.4450 c3        1 P2A      0.077100
      8 C3          1.4290    2.2650   -3.7240 c3        1 P2A      0.040400
      9 O5          2.2730    2.6670   -4.8180 os        1 P2A     -0.402900
     10 C4          1.8610    3.6130   -5.6810 c         1 P2A      0.626100
     11 O6          0.7300    4.1160   -5.6150 o         1 P2A     -0.606000
     12 C5          2.9000    3.9480   -6.7070 c3        1 P2A     -0.154100
     13 O7          0.9790    4.1250   -2.2490 os        1 P2A     -0.427900
     14 C6          1.4660    5.3670   -2.4160 c         1 P2A      0.639100
     15 O8          2.6550    5.5800   -2.6890 o         1 P2A     -0.601000
     16 C7          0.4150    6.4200   -2.2370 c3        1 P2A     -0.154100
     17 H2          0.5350    1.6420   -1.2670 h1        1 P2A      0.006700
     18 H3          1.6880    2.7010   -0.3050 h1        1 P2A      0.006700
     19 H4          2.9160    3.2850   -2.4810 h1        1 P2A      0.076700
     20 H5          1.6550    1.1240   -3.5900 h1        1 P2A      0.150200
     21 H6          0.3550    2.4380   -3.9700 h1        1 P2A      0.150200
     22 H7          3.6240    4.6700   -6.2560 hc        1 P2A      0.053700
     23 H8          2.4160    4.4120   -7.5970 hc        1 P2A      0.053700
     24 H9          3.4520    3.0270   -7.0090 hc        1 P2A      0.053700
     25 H10        -0.2430    6.1620   -1.3730 hc        1 P2A      0.054367
     26 H11         0.9000    7.4080   -2.0640 hc        1 P2A      0.054367
     27 H12        -0.2060    6.4630   -3.1640 hc        1 P2A      0.054367
@<TRIPOS>BOND
     1    1    3 1   
     2    2    3 1   
     3    3    4 1   
     4    3    5 1   
     5    5    6 1   
     6    6    7 1   
     7    6   17 1   
     8    6   18 1   
     9    7    8 1   
    10    7   13 1   
    11    7   19 1   
    12    8    9 1   
    13    8   20 1   
    14    8   21 1   
    15    9   10 1   
    16   10   11 2   
    17   10   12 1   
    18   12   22 1   
    19   12   23 1   
    20   12   24 1   
    21   13   14 1   
    22   14   15 2   
    23   14   16 1   
    24   16   25 1   
    25   16   26 1   
    26   16   27 1   
@<TRIPOS>SUBSTRUCTURE
     1 P2A         1 TEMP              0 ****  ****    0 ROOT
