@<TRIPOS>MOLECULE
P2A
   27    26     1     0     0
SMALL
bcc


@<TRIPOS>ATOM
      1 O1         -3.2460    1.2280    0.7610 o         1 P2A     -0.915833
      2 O2         -1.3750    2.5550   -0.3180 o         1 P2A     -0.915833
      3 P1         -2.5670    1.6420   -0.5130 p5        1 P2A      1.320900
      4 O3         -3.4300    1.9130   -1.7070 o         1 P2A     -0.915833
      5 O4         -1.7460    0.1680   -0.9590 os        1 P2A     -0.557200
      6 C1         -1.1610   -0.4960    0.0800 c3        1 P2A      0.234400
      7 C2          0.3860   -0.5120   -0.1060 c3        1 P2A      0.077100
      8 C3          0.9590    0.8640    0.1780 c3        1 P2A      0.040400
      9 O5          2.1110    1.1130   -0.6480 os        1 P2A     -0.402900
     10 C4          3.3500    0.9370   -0.1550 c         1 P2A      0.626100
     11 O6          3.5500    0.6310    1.0300 o         1 P2A     -0.606000
     12 C5          4.4160    1.1750   -1.1810 c3        1 P2A     -0.154100
     13 O7          0.8890   -1.4420    0.8950 os        1 P2A     -0.427900
     14 C6          1.7950   -2.3750    0.5550 c         1 P2A      0.639100
     15 O8          2.1960   -2.5150   -0.6090 o         1 P2A     -0.601000
     16 C7          2.2400   -3.1930    1.7300 c3        1 P2A     -0.154100
     17 H2         -1.4850   -1.5800    0.0870 h1        1 P2A      0.006700
     18 H3         -1.4130   -0.0300    1.0730 h1        1 P2A      0.006700
     19 H4          0.6550   -0.8640   -1.1340 h1        1 P2A      0.076700
     20 H5          1.2100    1.0000    1.2570 h1        1 P2A      0.150200
     21 H6          0.1730    1.6560   -0.1780 h1        1 P2A      0.150200
     22 H7          5.3820    1.4050   -0.6740 hc        1 P2A      0.053700
     23 H8          4.5280    0.2500   -1.7970 hc        1 P2A      0.053700
     24 H9          4.1250    2.0200   -1.8480 hc        1 P2A      0.053700
     25 H10         2.9750   -2.5940    2.3210 hc        1 P2A      0.054367
     26 H11         1.3670   -3.4370    2.3800 hc        1 P2A      0.054367
     27 H12         2.7230   -4.1320    1.3720 hc        1 P2A      0.054367
@<TRIPOS>BOND
     1    1    3 1   
     2    2    3 1   
     3    3    4 1   
     4    3    5 1   
     5    5    6 1   
     6    6    7 1   
     7    6   17 1   
     8    6   18 1   
     9    7    8 1   
    10    7   13 1   
    11    7   19 1   
    12    8    9 1   
    13    8   20 1   
    14    8   21 1   
    15    9   10 1   
    16   10   11 2   
    17   10   12 1   
    18   12   22 1   
    19   12   23 1   
    20   12   24 1   
    21   13   14 1   
    22   14   15 2   
    23   14   16 1   
    24   16   25 1   
    25   16   26 1   
    26   16   27 1   
@<TRIPOS>SUBSTRUCTURE
     1 P2A         1 TEMP              0 ****  ****    0 ROOT
