@<TRIPOS>MOLECULE
P2A
   27    26     1     0     0
SMALL
bcc


@<TRIPOS>ATOM
      1 O1          0.5330   -0.4850   -0.6030 o         1 P2A     -0.915833
      2 O2          1.4230   -0.5340   -2.9770 o         1 P2A     -0.915833
      3 P1          1.7350   -0.6050   -1.4960 p5        1 P2A      1.320900
      4 O3          2.8180   -1.5530   -1.0850 o         1 P2A     -0.915833
      5 O4          2.4850    0.9550   -1.2730 os        1 P2A     -0.557200
      6 C1          1.6160    2.0070   -1.2380 c3        1 P2A      0.234400
      7 C2          1.8670    2.9430   -2.4580 c3        1 P2A      0.077100
      8 C3          1.3550    2.2910   -3.7290 c3        1 P2A      0.040400
      9 O5          2.1690    2.6680   -4.8540 os        1 P2A     -0.402900
     10 C4          1.7710    3.6550   -5.6790 c         1 P2A      0.626100
     11 O6          0.6750    4.2200   -5.5490 o         1 P2A     -0.606000
     12 C5          2.7790    3.9530   -6.7460 c3        1 P2A     -0.154100
     13 O7          1.0820    4.1410   -2.1990 os        1 P2A     -0.427900
     14 C6          1.6300    5.3570   -2.3650 c         1 P2A      0.639100
     15 O8          2.8160    5.5090   -2.6910 o         1 P2A     -0.601000
     16 C7          0.6510    6.4630   -2.1150 c3        1 P2A     -0.154100
     17 H2          0.5430    1.6660   -1.2440 h1        1 P2A      0.006700
     18 H3          1.7980    2.6390   -0.3180 h1        1 P2A      0.006700
     19 H4          2.9540    3.1990   -2.5390 h1        1 P2A      0.076700
     20 H5          1.5210    1.1370   -3.6280 h1        1 P2A      0.150200
     21 H6          0.2820    2.5300   -3.9200 h1        1 P2A      0.150200
     22 H7          3.5620    4.6240   -6.3180 hc        1 P2A      0.053700
     23 H8          2.2800    4.4610   -7.6040 hc        1 P2A      0.053700
     24 H9          3.2630    3.0090   -7.0920 hc        1 P2A      0.053700
     25 H10         0.0200    6.2240   -1.2260 hc        1 P2A      0.054367
     26 H11         1.1990    7.4190   -1.9470 hc        1 P2A      0.054367
     27 H12        -0.0100    6.5610   -3.0110 hc        1 P2A      0.054367
@<TRIPOS>BOND
     1    1    3 1   
     2    2    3 1   
     3    3    4 1   
     4    3    5 1   
     5    5    6 1   
     6    6    7 1   
     7    6   17 1   
     8    6   18 1   
     9    7    8 1   
    10    7   13 1   
    11    7   19 1   
    12    8    9 1   
    13    8   20 1   
    14    8   21 1   
    15    9   10 1   
    16   10   11 2   
    17   10   12 1   
    18   12   22 1   
    19   12   23 1   
    20   12   24 1   
    21   13   14 1   
    22   14   15 2   
    23   14   16 1   
    24   16   25 1   
    25   16   26 1   
    26   16   27 1   
@<TRIPOS>SUBSTRUCTURE
     1 P2A         1 TEMP              0 ****  ****    0 ROOT
