@<TRIPOS>MOLECULE
P2A
   27    26     1     0     0
SMALL
bcc


@<TRIPOS>ATOM
      1 O1         -2.0750   -2.1990    4.3180 o         1 P2A     -0.915833
      2 O2         -2.9170   -3.0830    2.1860 o         1 P2A     -0.915833
      3 P1         -1.6970   -2.5990    2.9110 p5        1 P2A      1.320900
      4 O3         -0.6740   -3.6970    2.9610 o         1 P2A     -0.915833
      5 O4         -1.0840   -1.3330    2.1370 os        1 P2A     -0.557200
      6 C1         -0.7930   -1.4650    0.7380 c3        1 P2A      0.234400
      7 C2         -0.2560   -0.1460    0.2030 c3        1 P2A      0.077100
      8 C3          0.2940   -0.3510   -1.2010 c3        1 P2A      0.040400
      9 O5          1.6380    0.1370   -1.2640 os        1 P2A     -0.402900
     10 C4          2.2390    0.0050   -2.5420 c         1 P2A      0.626100
     11 O6          1.5960   -0.4870   -3.4830 o         1 P2A     -0.606000
     12 C5          3.6760    0.4030   -2.7420 c3        1 P2A     -0.154100
     13 O7         -1.2760    0.7810    0.1660 os        1 P2A     -0.427900
     14 C6         -1.0040    1.9600    0.8980 c         1 P2A      0.639100
     15 O8         -0.0520    2.0050    1.6300 o         1 P2A     -0.601000
     16 C7         -1.9380    3.1730    0.7800 c3        1 P2A     -0.154100
     17 H2         -1.6270   -1.7050    0.2470 h1        1 P2A      0.006700
     18 H3         -0.1130   -2.1780    0.6060 h1        1 P2A      0.006700
     19 H4          0.4770    0.1870    0.8050 h1        1 P2A      0.076700
     20 H5          0.2820   -1.2890   -1.4170 h1        1 P2A      0.150200
     21 H6         -0.2610    0.1390   -1.8430 h1        1 P2A      0.150200
     22 H7          4.2210    0.0730   -1.9800 hc        1 P2A      0.053700
     23 H8          4.0170    0.0040   -3.5940 hc        1 P2A      0.053700
     24 H9          3.7400    1.3770   -2.7900 hc        1 P2A      0.053700
     25 H10        -2.0840    3.3810   -0.1570 hc        1 P2A      0.054367
     26 H11        -1.5330    3.9390    1.2220 hc        1 P2A      0.054367
     27 H12        -2.7950    2.9670    1.2050 hc        1 P2A      0.054367
@<TRIPOS>BOND
     1    1    3 1   
     2    2    3 1   
     3    3    4 1   
     4    3    5 1   
     5    5    6 1   
     6    6    7 1   
     7    6   17 1   
     8    6   18 1   
     9    7    8 1   
    10    7   13 1   
    11    7   19 1   
    12    8    9 1   
    13    8   20 1   
    14    8   21 1   
    15    9   10 1   
    16   10   11 2   
    17   10   12 1   
    18   12   22 1   
    19   12   23 1   
    20   12   24 1   
    21   13   14 1   
    22   14   15 2   
    23   14   16 1   
    24   16   25 1   
    25   16   26 1   
    26   16   27 1   
@<TRIPOS>SUBSTRUCTURE
     1 P2A         1 TEMP              0 ****  ****    0 ROOT
