@<TRIPOS>MOLECULE
P2B
   45    39     1     0     0
SMALL
bcc


@<TRIPOS>ATOM
      1 C1         -0.4410   -0.2930   -0.7790 c1        1 P2B      0.175000
      2 N2         -1.0890   -0.3150   -2.0420 n2        1 P2B     -0.243000
      3 C4         -1.5530    0.8940   -2.6220 c2        1 P2B      0.011000
      4 N5          0.8990   -0.2730   -0.7130 n1        1 P2B     -0.275000
      5 C6          1.5230   -0.3230    0.4970 c1        1 P2B      0.176000
      6 N7          2.9400   -0.3090    0.5650 n3        1 P2B     -0.209000
      7 N8          0.7870   -0.3940    1.6420 n1        1 P2B     -0.230000
      8 C9         -0.5530   -0.4140    1.5780 c1        1 P2B      0.107000
      9 C10        -1.3010   -0.4500    2.7440 c1        1 P2B     -0.010000
     10 C11        -1.1790   -0.3640    0.3670 c2        1 P2B     -0.298000
     11 C13        -2.4990    1.7650   -2.1650 c1        1 P2B     -0.141000
     12 C15        -2.8900    2.8160   -2.9430 c1        1 P2B     -0.123750
     13 C17        -2.3270    2.9980   -4.1960 c1        1 P2B     -0.123750
     14 N19        -1.3830    2.1270   -4.6510 n1        1 P2B     -0.115000
     15 C20        -0.9910    1.0780   -3.8760 c2        1 P2B     -0.097000
     16 C22         3.4180    0.9580    0.1610 c3        1 P2B     -0.075000
     17 C25         4.9280    1.0000    0.0650 c3        1 P2B     -0.032000
     18 O28         5.4470   -0.0540   -0.7200 os        1 P2B     -0.267000
     19 C29         4.9690   -1.3200   -0.3160 c3        1 P2B     -0.032000
     20 C32         3.4600   -1.3630   -0.2200 c3        1 P2B     -0.075000
     21 C35        -2.3470    0.4360    2.5390 c1        1 P2B     -0.145000
     22 C37        -3.6580   -0.0030    2.6410 c1        1 P2B     -0.123750
     23 C39        -3.9230   -1.3280    2.9480 c1        1 P2B     -0.123750
     24 C41        -2.8770   -2.2140    3.1530 c1        1 P2B      0.072000
     25 O42        -3.1460   -3.5520    3.4960 oh        1 P2B     -0.251000
     26 C44        -1.5660   -1.7750    3.0510 c1        1 P2B     -0.171000
     27 HN2        -1.2280   -1.1090   -2.4690 hn        1 P2B      0.236000
     28 H11        -2.1540   -0.3790    0.3200 ha        1 P2B      0.167000
     29 H13        -2.8950    1.6360   -1.2820 ha        1 P2B      0.149000
     30 H15        -3.5670    3.4390   -2.6160 ha        1 P2B      0.149750
     31 H17        -2.6070    3.7490   -4.7520 ha        1 P2B      0.149750
     32 H20        -0.3140    0.4550   -4.2030 h4        1 P2B      0.166000
     33 H22         3.0390    1.1750   -0.7160 h1        1 P2B      0.102000
     34 H22A        3.1230    1.6310    0.8090 h1        1 P2B      0.102000
     35 H25         5.3040    0.9390    0.9670 h1        1 P2B      0.097250
     36 H25A        5.1960    1.8540   -0.3330 h1        1 P2B      0.097250
     37 H29         5.2650   -1.9920   -0.9640 h1        1 P2B      0.097250
     38 H29A        5.3480   -1.5370    0.5610 h1        1 P2B      0.097250
     39 H32         3.0840   -1.3020   -1.1220 h1        1 P2B      0.102000
     40 H32A        3.1920   -2.2180    0.1780 h1        1 P2B      0.102000
     41 H35        -2.1600    1.3700    2.3230 ha        1 P2B      0.136000
     42 H37        -4.3940    0.6220    2.4970 ha        1 P2B      0.149750
     43 H39        -4.8460   -1.6370    3.0200 ha        1 P2B      0.149750
     44 HO42       -3.2050   -3.6250    4.3810 ho        1 P2B      0.220000
     45 H44        -0.8300   -2.3990    3.1950 ha        1 P2B      0.151000
@<TRIPOS>BOND
     1    1    4 1   
     2    1   10 1   
     3    2    3 1   
     4    2   27 1   
     5    3   11 1   
     6    3   15 1   
     7    5    6 1   
     8    5    7 1   
     9    6   16 1   
    10    6   20 1   
    11    8   10 1   
    12    9   21 1   
    13   10   28 1   
    14   11   29 1   
    15   12   13 1   
    16   12   30 1   
    17   13   31 1   
    18   14   15 1   
    19   15   32 1   
    20   16   17 1   
    21   16   33 1   
    22   16   34 1   
    23   17   18 1   
    24   17   35 1   
    25   17   36 1   
    26   18   19 1   
    27   19   20 1   
    28   19   37 1   
    29   19   38 1   
    30   20   39 1   
    31   20   40 1   
    32   21   41 1   
    33   22   23 1   
    34   22   42 1   
    35   23   43 1   
    36   24   25 1   
    37   24   26 1   
    38   25   44 1   
    39   26   45 1   
@<TRIPOS>SUBSTRUCTURE
     1 P2B         1 TEMP              0 ****  ****    0 ROOT
