@<TRIPOS>MOLECULE
P2B
   45    48     1     0     0
SMALL
bcc


@<TRIPOS>ATOM
      1 C1          0.0520   -0.1210   -0.0330 ca        1 P2B      0.703200
      2 N2         -0.7070   -0.0880   -1.2160 nh        1 P2B     -0.719300
      3 C4         -0.1380    0.0270   -2.4980 ca        1 P2B      0.022300
      4 N5          1.4070   -0.2700   -0.0790 nb        1 P2B     -0.794000
      5 C6          2.0720   -0.3460    1.1350 ca        1 P2B      0.897900
      6 N7          3.4950   -0.3680    1.1060 nh        1 P2B     -0.719300
      7 N8          1.4550   -0.3200    2.3780 nb        1 P2B     -0.761000
      8 C9          0.1110   -0.1680    2.3860 cp        1 P2B      0.549800
      9 C10        -0.5900   -0.1260    3.6860 cp        1 P2B     -0.118500
     10 C11        -0.6500   -0.0510    1.2100 ca        1 P2B     -0.450600
     11 C13         0.8550   -0.8580   -2.9710 ca        1 P2B     -0.084000
     12 C15         1.3060   -0.7240   -4.2830 ca        1 P2B     -0.232300
     13 C17         0.7580    0.2800   -5.0980 ca        1 P2B      0.375200
     14 N19        -0.1980    1.1300   -4.6760 nb        1 P2B     -0.648000
     15 C20        -0.6290    1.0090   -3.4110 ca        1 P2B      0.355200
     16 C22         4.1610   -0.9210    2.2780 c3        1 P2B      0.161800
     17 C25         5.6870   -0.7770    2.2170 c3        1 P2B      0.118400
     18 O28         6.2200   -1.2540    0.9890 os        1 P2B     -0.411600
     19 C29         5.6500   -0.5790   -0.1240 c3        1 P2B      0.118400
     20 C32         4.1230   -0.7180   -0.1610 c3        1 P2B      0.161800
     21 C35        -1.7990   -0.8150    3.8420 ca        1 P2B     -0.145000
     22 C37        -2.4770   -0.7700    5.0610 ca        1 P2B     -0.104000
     23 C39        -1.9680   -0.0430    6.1320 ca        1 P2B     -0.144000
     24 C41        -0.7520    0.6430    5.9680 ca        1 P2B      0.116100
     25 O42        -0.2940    1.3460    7.0600 oh        1 P2B     -0.497100
     26 C44        -0.0570    0.6050    4.7520 ca        1 P2B     -0.172000
     27 HN2        -1.5840    0.3800   -1.1100 hn        1 P2B      0.430800
     28 H11        -1.7370    0.0830    1.2550 ha        1 P2B      0.157000
     29 H13         1.2710   -1.6430   -2.3230 ha        1 P2B      0.158000
     30 H15         2.0790   -1.3980   -4.6770 ha        1 P2B      0.144000
     31 H17         1.0930    0.4140   -6.1420 h4        1 P2B      0.024100
     32 H20        -1.4130    1.7270   -3.1090 h4        1 P2B      0.019100
     33 H22         3.8080   -0.3730    3.1960 h1        1 P2B      0.062700
     34 H22A        3.9050   -2.0130    2.3970 h1        1 P2B      0.062700
     35 H25         5.9900    0.2920    2.3690 h1        1 P2B      0.058200
     36 H25A        6.1580   -1.4270    3.0020 h1        1 P2B      0.058200
     37 H29         5.9500    0.5020   -0.1030 h1        1 P2B      0.058200
     38 H29A        6.0960   -1.0850   -1.0200 h1        1 P2B      0.058200
     39 H32         3.7410   -0.0250   -0.9630 h1        1 P2B      0.062700
     40 H32A        3.8630   -1.7760   -0.4530 h1        1 P2B      0.062700
     41 H35        -2.2090   -1.4010    3.0070 ha        1 P2B      0.140000
     42 H37        -3.4240   -1.3170    5.1770 ha        1 P2B      0.138000
     43 H39        -2.4920    0.0030    7.0960 ha        1 P2B      0.153000
     44 HO42        0.5530    1.7490    6.8210 ho        1 P2B      0.421000
     45 H44         0.8980    1.1400    4.6420 ha        1 P2B      0.150000
@<TRIPOS>BOND
     1    1    2 1   
     2    1    4 ar  
     3    1   10 ar  
     4    2    3 1   
     5    2   27 1   
     6    3   11 ar  
     7    3   15 ar  
     8    4    5 ar  
     9    5    6 1   
    10    5    7 ar  
    11    6   16 1   
    12    6   20 1   
    13    7    8 ar  
    14    8    9 1   
    15    8   10 ar  
    16    9   21 ar  
    17    9   26 ar  
    18   10   28 1   
    19   11   12 ar  
    20   11   29 1   
    21   12   13 ar  
    22   12   30 1   
    23   13   14 ar  
    24   13   31 1   
    25   14   15 ar  
    26   15   32 1   
    27   16   17 1   
    28   16   33 1   
    29   16   34 1   
    30   17   18 1   
    31   17   35 1   
    32   17   36 1   
    33   18   19 1   
    34   19   20 1   
    35   19   37 1   
    36   19   38 1   
    37   20   39 1   
    38   20   40 1   
    39   21   22 ar  
    40   21   41 1   
    41   22   23 ar  
    42   22   42 1   
    43   23   24 ar  
    44   23   43 1   
    45   24   25 1   
    46   24   26 ar  
    47   25   44 1   
    48   26   45 1   
@<TRIPOS>SUBSTRUCTURE
     1 P2B         1 TEMP              0 ****  ****    0 ROOT
