@<TRIPOS>MOLECULE
P2B
   46    49     1     0     0
SMALL
bcc


@<TRIPOS>ATOM
      1 C1          0.4570    0.6460   -0.1550 ca        1 P2B      0.558200
      2 N2         -0.1810    1.0540   -1.4420 n4        1 P2B     -0.613100
      3 C4         -0.2040   -0.0310   -2.4210 ca        1 P2B     -0.185700
      4 N5          1.8110    0.6180   -0.1460 nb        1 P2B     -0.790000
      5 C6          2.4030    0.2700    1.0690 ca        1 P2B      0.933900
      6 N7          3.7910    0.3310    1.1690 nh        1 P2B     -0.711300
      7 N8          1.6660   -0.0810    2.2110 nb        1 P2B     -0.710000
      8 C9          0.3310   -0.0440    2.1330 cp        1 P2B      0.591800
      9 C10        -0.4830   -0.4000    3.3100 cp        1 P2B     -0.156500
     10 C11        -0.3600    0.3300    0.9340 ca        1 P2B     -0.407600
     11 C13        -1.4020   -0.7180   -2.7020 ca        1 P2B     -0.063000
     12 C15        -1.3690   -1.7320   -3.6550 ca        1 P2B     -0.222300
     13 C17        -0.1440   -2.0330   -4.2890 ca        1 P2B      0.457200
     14 N19         1.0050   -1.3830   -4.0210 nb        1 P2B     -0.629000
     15 C20         0.9830   -0.4030   -3.1040 ca        1 P2B      0.459200
     16 C22         4.4380   -0.3050    2.3110 c3        1 P2B      0.166800
     17 C25         5.9210    0.0640    2.4510 c3        1 P2B      0.114400
     18 O28         6.6140   -0.0690    1.2190 os        1 P2B     -0.390600
     19 C29         6.0610    0.7760    0.2230 c3        1 P2B      0.114400
     20 C32         4.5850    0.4490   -0.0460 c3        1 P2B      0.166800
     21 C35        -1.6360   -1.1750    3.1400 ca        1 P2B     -0.142000
     22 C37        -2.4180   -1.5110    4.2470 ca        1 P2B     -0.096000
     23 C39        -2.0670   -1.0810    5.5210 ca        1 P2B     -0.118000
     24 C41        -0.9040   -0.3060    5.6840 ca        1 P2B      0.131100
     25 O42        -0.6130    0.0880    6.9660 oh        1 P2B     -0.480100
     26 C44        -0.1030    0.0350    4.5850 ca        1 P2B     -0.166000
     27 HN2        -1.1430    1.3530   -1.2360 hn        1 P2B      0.467800
     28 H11        -1.4560    0.3590    0.9180 ha        1 P2B      0.176000
     29 H13        -2.3480   -0.4700   -2.1930 ha        1 P2B      0.159000
     30 H15        -2.2800   -2.2940   -3.9110 ha        1 P2B      0.181000
     31 H17        -0.0770   -2.8350   -5.0510 h4        1 P2B      0.063100
     32 H20         1.9540    0.0970   -2.9100 h4        1 P2B      0.060100
     33 H22         4.3460   -1.4250    2.2110 h1        1 P2B      0.071200
     34 H22A        3.9220    0.0120    3.2620 h1        1 P2B      0.071200
     35 H25         6.0350    1.1090    2.8440 h1        1 P2B      0.072950
     36 H25A        6.4230   -0.6670    3.1400 h1        1 P2B      0.072950
     37 H29         6.6650    0.5630   -0.7000 h1        1 P2B      0.072950
     38 H29A        6.1790    1.8510    0.5220 h1        1 P2B      0.072950
     39 H32         4.1720    1.2780   -0.6870 h1        1 P2B      0.071200
     40 H32A        4.5250   -0.5180   -0.6240 h1        1 P2B      0.071200
     41 H35        -1.9210   -1.5390    2.1430 ha        1 P2B      0.131000
     42 H37        -3.3200   -2.1270    4.1100 ha        1 P2B      0.151000
     43 H39        -2.6750   -1.3370    6.4030 ha        1 P2B      0.170000
     44 HO42        0.2210    0.5820    6.9540 ho        1 P2B      0.429000
     45 H44         0.8080    0.6320    4.7300 ha        1 P2B      0.152000
     46 H221        0.3410    1.8470   -1.8460 hn        1 P2B      0.467800
@<TRIPOS>BOND
     1    1    2 1   
     2    1    4 ar  
     3    1   10 ar  
     4    2    3 1   
     5    2   27 1   
     6    2   46 1   
     7    3   11 ar  
     8    3   15 ar  
     9    4    5 ar  
    10    5    6 1   
    11    5    7 ar  
    12    6   16 1   
    13    6   20 1   
    14    7    8 ar  
    15    8    9 1   
    16    8   10 ar  
    17    9   21 ar  
    18    9   26 ar  
    19   10   28 1   
    20   11   12 ar  
    21   11   29 1   
    22   12   13 ar  
    23   12   30 1   
    24   13   14 ar  
    25   13   31 1   
    26   14   15 ar  
    27   15   32 1   
    28   16   17 1   
    29   16   33 1   
    30   16   34 1   
    31   17   18 1   
    32   17   35 1   
    33   17   36 1   
    34   18   19 1   
    35   19   20 1   
    36   19   37 1   
    37   19   38 1   
    38   20   39 1   
    39   20   40 1   
    40   21   22 ar  
    41   21   41 1   
    42   22   23 ar  
    43   22   42 1   
    44   23   24 ar  
    45   23   43 1   
    46   24   25 1   
    47   24   26 ar  
    48   25   44 1   
    49   26   45 1   
@<TRIPOS>SUBSTRUCTURE
     1 P2B         1 TEMP              0 ****  ****    0 ROOT
