@<TRIPOS>MOLECULE
P2B
   45    48     1     0     0
SMALL
bcc


@<TRIPOS>ATOM
      1 C1          0.6690    1.3650   -0.0700 ca        1 P2B      0.703200
      2 N2          1.5730    2.4410   -0.1010 nh        1 P2B     -0.719300
      3 C4          2.9600    2.2950    0.0920 ca        1 P2B      0.022300
      4 N5          1.1200    0.0780   -0.0750 nb        1 P2B     -0.794000
      5 C6          0.1610   -0.9230   -0.0960 ca        1 P2B      0.897900
      6 N7          0.6100   -2.2680    0.0330 nh        1 P2B     -0.719300
      7 N8         -1.2080   -0.7060   -0.1530 nb        1 P2B     -0.761000
      8 C9         -1.6190    0.5830   -0.1440 cp        1 P2B      0.549800
      9 C10        -3.0690    0.8650   -0.1940 cp        1 P2B     -0.118500
     10 C11        -0.7270    1.6680   -0.0920 ca        1 P2B     -0.450600
     11 C13         3.7440    1.4080   -0.6760 ca        1 P2B     -0.084000
     12 C15         5.1230    1.3830   -0.4760 ca        1 P2B     -0.232300
     13 C17         5.6940    2.2450    0.4760 ca        1 P2B      0.375200
     14 N19         4.9700    3.1080    1.2140 nb        1 P2B     -0.648000
     15 C20         3.6420    3.1280    1.0290 ca        1 P2B      0.355200
     16 C22        -0.2870   -3.3040   -0.4610 c3        1 P2B      0.161800
     17 C25         0.2140   -4.7210   -0.1550 c3        1 P2B      0.118400
     18 O28         1.5650   -4.9070   -0.5580 os        1 P2B     -0.411600
     19 C29         2.4300   -3.9680    0.0670 c3        1 P2B      0.118400
     20 C32         2.0200   -2.5210   -0.2320 c3        1 P2B      0.161800
     21 C35        -3.5440    1.8990   -1.0100 ca        1 P2B     -0.145000
     22 C37        -4.9090    2.1840   -1.0530 ca        1 P2B     -0.104000
     23 C39        -5.8140    1.4520   -0.2900 ca        1 P2B     -0.144000
     24 C41        -5.3300    0.4140    0.5220 ca        1 P2B      0.116100
     25 O42        -6.2670   -0.2780    1.2550 oh        1 P2B     -0.497100
     26 C44        -3.9620    0.1120    0.5750 ca        1 P2B     -0.172000
     27 HN2         1.1920    3.2880    0.2690 hn        1 P2B      0.430800
     28 H11        -1.0970    2.6990   -0.0750 ha        1 P2B      0.157000
     29 H13         3.2840    0.7430   -1.4220 ha        1 P2B      0.158000
     30 H15         5.7580    0.7020   -1.0580 ha        1 P2B      0.144000
     31 H17         6.7830    2.2500    0.6600 h4        1 P2B      0.024100
     32 H20         3.0890    3.8530    1.6550 h4        1 P2B      0.019100
     33 H22        -1.2920   -3.1890    0.0350 h1        1 P2B      0.062700
     34 H22A       -0.4300   -3.2030   -1.5750 h1        1 P2B      0.062700
     35 H25         0.1130   -4.9490    0.9390 h1        1 P2B      0.058200
     36 H25A       -0.3670   -5.4650   -0.7610 h1        1 P2B      0.058200
     37 H29         2.4510   -4.1540    1.1730 h1        1 P2B      0.058200
     38 H29A        3.4390   -4.1730   -0.3780 h1        1 P2B      0.058200
     39 H32         2.2680   -2.2900   -1.3080 h1        1 P2B      0.062700
     40 H32A        2.6420   -1.8520    0.4260 h1        1 P2B      0.062700
     41 H35        -2.8420    2.4810   -1.6240 ha        1 P2B      0.140000
     42 H37        -5.2760    2.9970   -1.6990 ha        1 P2B      0.138000
     43 H39        -6.8910    1.6670   -0.3140 ha        1 P2B      0.153000
     44 HO42       -5.8070   -0.9730    1.7480 ho        1 P2B      0.421000
     45 H44        -3.5990   -0.7100    1.2090 ha        1 P2B      0.150000
@<TRIPOS>BOND
     1    1    2 1   
     2    1    4 ar  
     3    1   10 ar  
     4    2    3 1   
     5    2   27 1   
     6    3   11 ar  
     7    3   15 ar  
     8    4    5 ar  
     9    5    6 1   
    10    5    7 ar  
    11    6   16 1   
    12    6   20 1   
    13    7    8 ar  
    14    8    9 1   
    15    8   10 ar  
    16    9   21 ar  
    17    9   26 ar  
    18   10   28 1   
    19   11   12 ar  
    20   11   29 1   
    21   12   13 ar  
    22   12   30 1   
    23   13   14 ar  
    24   13   31 1   
    25   14   15 ar  
    26   15   32 1   
    27   16   17 1   
    28   16   33 1   
    29   16   34 1   
    30   17   18 1   
    31   17   35 1   
    32   17   36 1   
    33   18   19 1   
    34   19   20 1   
    35   19   37 1   
    36   19   38 1   
    37   20   39 1   
    38   20   40 1   
    39   21   22 ar  
    40   21   41 1   
    41   22   23 ar  
    42   22   42 1   
    43   23   24 ar  
    44   23   43 1   
    45   24   25 1   
    46   24   26 ar  
    47   25   44 1   
    48   26   45 1   
@<TRIPOS>SUBSTRUCTURE
     1 P2B         1 TEMP              0 ****  ****    0 ROOT
