@<TRIPOS>MOLECULE
P2B
   45    48     1     0     0
SMALL
bcc


@<TRIPOS>ATOM
      1 C1          0.0520   -0.1220   -0.0330 ca        1 P2B      0.703200
      2 N2         -0.7070   -0.0890   -1.2160 nu        1 P2B     -0.719300
      3 C4         -0.1390    0.0320   -2.4980 ca        1 P2B      0.022300
      4 N5          1.4070   -0.2680   -0.0790 nb        1 P2B     -0.794000
      5 C6          2.0720   -0.3440    1.1350 ca        1 P2B      0.897900
      6 N7          3.4950   -0.3620    1.1060 nh        1 P2B     -0.719300
      7 N8          1.4550   -0.3240    2.3780 nb        1 P2B     -0.761000
      8 C9          0.1110   -0.1760    2.3860 cp        1 P2B      0.549800
      9 C10        -0.5910   -0.1390    3.6860 cp        1 P2B     -0.118500
     10 C11        -0.6510   -0.0580    1.2100 ca        1 P2B     -0.450600
     11 C13         0.8570   -0.8480   -2.9730 ca        1 P2B     -0.084000
     12 C15         1.3080   -0.7090   -4.2850 ca        1 P2B     -0.232300
     13 C17         0.7560    0.2960   -5.0970 ca        1 P2B      0.375200
     14 N19        -0.2020    1.1420   -4.6710 nb        1 P2B     -0.648000
     15 C20        -0.6320    1.0150   -3.4080 ca        1 P2B      0.355200
     16 C22         4.1630   -0.9140    2.2770 c3        1 P2B      0.161800
     17 C25         5.6890   -0.7650    2.2170 c3        1 P2B      0.118400
     18 O28         6.2240   -1.2400    0.9880 os        1 P2B     -0.411600
     19 C29         5.6510   -0.5650   -0.1250 c3        1 P2B      0.118400
     20 C32         4.1250   -0.7090   -0.1610 c3        1 P2B      0.161800
     21 C35        -1.7980   -0.8320    3.8400 ca        1 P2B     -0.145000
     22 C37        -2.4760   -0.7920    5.0580 ca        1 P2B     -0.104000
     23 C39        -1.9690   -0.0660    6.1310 ca        1 P2B     -0.144000
     24 C41        -0.7560    0.6240    5.9700 ca        1 P2B      0.116100
     25 O42        -0.3000    1.3250    7.0640 oh        1 P2B     -0.497100
     26 C44        -0.0590    0.5910    4.7540 ca        1 P2B     -0.172000
     27 HN2        -1.5860    0.3750   -1.1090 hn        1 P2B      0.430800
     28 H11        -1.7380    0.0720    1.2560 ha        1 P2B      0.157000
     29 H13         1.2760   -1.6340   -2.3270 ha        1 P2B      0.158000
     30 H15         2.0830   -1.3790   -4.6810 ha        1 P2B      0.144000
     31 H17         1.0920    0.4350   -6.1400 h4        1 P2B      0.024100
     32 H20        -1.4190    1.7290   -3.1030 h4        1 P2B      0.019100
     33 H22         3.8090   -0.3680    3.1960 h1        1 P2B      0.062700
     34 H22A        3.9110   -2.0070    2.3950 h1        1 P2B      0.062700
     35 H25         5.9890    0.3050    2.3690 h1        1 P2B      0.058200
     36 H25A        6.1620   -1.4140    3.0000 h1        1 P2B      0.058200
     37 H29         6.0990   -1.0690   -1.0210 h1        1 P2B      0.058200
     38 H29A        5.9470    0.5170   -0.1030 h1        1 P2B      0.058200
     39 H32         3.8680   -1.7670   -0.4540 h1        1 P2B      0.062700
     40 H32A        3.7410   -0.0160   -0.9630 h1        1 P2B      0.062700
     41 H35        -2.2060   -1.4170    3.0030 ha        1 P2B      0.140000
     42 H37        -3.4220   -1.3420    5.1730 ha        1 P2B      0.138000
     43 H39        -2.4940   -0.0240    7.0960 ha        1 P2B      0.153000
     44 HO42        0.5460    1.7310    6.8260 ho        1 P2B      0.421000
     45 H44         0.8940    1.1280    4.6460 ha        1 P2B      0.150000
@<TRIPOS>BOND
     1    1    2 1   
     2    1    4 ar  
     3    1   10 ar  
     4    2    3 1   
     5    2   27 1   
     6    3   11 ar  
     7    3   15 ar  
     8    4    5 ar  
     9    5    6 1   
    10    5    7 ar  
    11    6   16 1   
    12    6   20 1   
    13    7    8 ar  
    14    8    9 1   
    15    8   10 ar  
    16    9   21 ar  
    17    9   26 ar  
    18   10   28 1   
    19   11   12 ar  
    20   11   29 1   
    21   12   13 ar  
    22   12   30 1   
    23   13   14 ar  
    24   13   31 1   
    25   14   15 ar  
    26   15   32 1   
    27   16   17 1   
    28   16   33 1   
    29   16   34 1   
    30   17   18 1   
    31   17   35 1   
    32   17   36 1   
    33   18   19 1   
    34   19   20 1   
    35   19   37 1   
    36   19   38 1   
    37   20   39 1   
    38   20   40 1   
    39   21   22 ar  
    40   21   41 1   
    41   22   23 ar  
    42   22   42 1   
    43   23   24 ar  
    44   23   43 1   
    45   24   25 1   
    46   24   26 ar  
    47   25   44 1   
    48   26   45 1   
@<TRIPOS>SUBSTRUCTURE
     1 P2B         1 TEMP              0 ****  ****    0 ROOT
