@<TRIPOS>MOLECULE
P2C
   29    30     1     0     0
SMALL
bcc


@<TRIPOS>ATOM
      1 Cl8        -0.1290   -0.6870   -0.2170 cl        1 P2C     -0.094400
      2 C1          1.5220   -0.3130   -0.0300 ca        1 P2C      0.085400
      3 C2          2.0050    0.2170    1.1790 ca        1 P2C     -0.060900
      4 O9          1.1190    0.5810    2.2100 os        1 P2C     -0.132100
      5 O10         0.7410   -0.4240    2.9460 os        1 P2C      0.006000
      6 O11         1.4230   -0.4430    4.0330 oh        1 P2C     -0.407000
      7 C3          3.3790    0.4810    1.2990 ca        1 P2C      0.085400
      8 Cl7         4.0290    1.0790    2.7580 cl        1 P2C     -0.094400
      9 C4          4.2470    0.2590    0.2380 ca        1 P2C     -0.215000
     10 C6          2.3750   -0.5460   -1.0980 ca        1 P2C     -0.215000
     11 C5          3.7650   -0.2380   -1.0020 ca        1 P2C      0.239600
     12 N18         4.5510   -0.3800   -2.1260 nu        1 P2C     -0.607000
     13 C14         5.9570   -0.2140   -2.1180 ca        1 P2C      0.127600
     14 C15         6.5260    1.0060   -1.6880 ca        1 P2C     -0.171000
     15 C16         7.9020    1.2010   -1.7470 ca        1 P2C     -0.140000
     16 C17         8.7340    0.1960   -2.2360 ca        1 P2C     -0.165000
     17 C12         8.1800   -1.0030   -2.6740 ca        1 P2C     -0.092000
     18 C13         6.8010   -1.2300   -2.6310 ca        1 P2C     -0.144600
     19 C19         6.2950   -2.5680   -3.1570 c         1 P2C      0.911200
     20 O21         5.1040   -2.6540   -3.5830 o         1 P2C     -0.822800
     21 O20         7.1060   -3.5330   -3.1610 o         1 P2C     -0.822800
     22 H11         2.2700   -0.9210    3.8700 ho        1 P2C      0.402000
     23 H4          5.3250    0.4490    0.3680 ha        1 P2C      0.165000
     24 H6          1.9790   -0.9810   -2.0300 ha        1 P2C      0.165000
     25 H18         4.2390   -1.0750   -2.8010 hn        1 P2C      0.493800
     26 H15         5.8810    1.8160   -1.3170 ha        1 P2C      0.124000
     27 H16         8.3280    2.1560   -1.4090 ha        1 P2C      0.111000
     28 H17         9.8210    0.3510   -2.2770 ha        1 P2C      0.113000
     29 H12         8.8190   -1.8180   -3.0550 ha        1 P2C      0.158000
@<TRIPOS>BOND
     1    1    2 1   
     2    2    3 ar  
     3    2   10 ar  
     4    3    4 1   
     5    3    7 ar  
     6    4    5 1   
     7    5    6 1   
     8    6   22 1   
     9    7    8 1   
    10    7    9 ar  
    11    9   11 ar  
    12    9   23 1   
    13   10   11 ar  
    14   10   24 1   
    15   11   12 1   
    16   12   13 1   
    17   12   25 1   
    18   13   14 ar  
    19   13   18 ar  
    20   14   15 ar  
    21   14   26 1   
    22   15   16 ar  
    23   15   27 1   
    24   16   17 ar  
    25   16   28 1   
    26   17   18 ar  
    27   17   29 1   
    28   18   19 1   
    29   19   20 1   
    30   19   21 1   
@<TRIPOS>SUBSTRUCTURE
     1 P2C         1 TEMP              0 ****  ****    0 ROOT
