@<TRIPOS>MOLECULE
P2C
   30    31     1     0     0
SMALL
bcc


@<TRIPOS>ATOM
      1 CL8        -0.0220    0.7530    0.0090 cl        1 P2C     -0.048900
      2 C1          1.6250    0.3570    0.0890 ca        1 P2C      0.066900
      3 C2          2.2370    0.0280    1.3090 ca        1 P2C      0.006100
      4 O9          1.5220    0.1480    2.5170 os        1 P2C     -0.130100
      5 O10         0.7630   -0.8780    2.7760 os        1 P2C      0.018000
      6 O11         1.3180   -1.6030    3.6720 oh        1 P2C     -0.389000
      7 C3          3.6010   -0.3040    1.3310 ca        1 P2C      0.066900
      8 CL7         4.3810   -0.7220    2.7770 cl        1 P2C     -0.048900
      9 C4          4.3500   -0.2920    0.1540 ca        1 P2C     -0.174500
     10 C6          2.3680    0.3720   -1.0910 ca        1 P2C     -0.174500
     11 C5          3.7420    0.0410   -1.0730 ca        1 P2C      0.157600
     12 N18         4.4410   -0.0200   -2.3000 nh        1 P2C     -0.616000
     13 C14         5.8550    0.1380   -2.3100 ca        1 P2C      0.123600
     14 C15         6.4420    1.3690   -2.6710 ca        1 P2C     -0.161000
     15 C16         7.8250    1.5020   -2.7440 ca        1 P2C     -0.090000
     16 C17         8.6530    0.4210   -2.4470 ca        1 P2C     -0.135000
     17 C12         8.0920   -0.8010   -2.0860 ca        1 P2C     -0.071000
     18 C13         6.7020   -0.9590   -2.0320 ca        1 P2C     -0.167600
     19 C19         6.1810   -2.2920   -1.6590 c         1 P2C      0.646700
     20 O21         6.4880   -2.9360   -0.6540 o         1 P2C     -0.489000
     21 O20         5.3160   -2.9440   -2.4860 oh        1 P2C     -0.565100
     22 H11         1.8950   -2.2720    3.2330 ho        1 P2C      0.404000
     23 H4          5.4190   -0.5670    0.1910 ha        1 P2C      0.163000
     24 H6          1.8680    0.6350   -2.0370 ha        1 P2C      0.163000
     25 H18         5.0720   -2.3780   -3.2320 ho        1 P2C      0.438000
     26 H15         5.8040    2.2390   -2.8970 ha        1 P2C      0.143000
     27 H16         8.2640    2.4700   -3.0300 ha        1 P2C      0.145000
     28 H17         9.7470    0.5320   -2.4920 ha        1 P2C      0.148000
     29 H12         8.7370   -1.6590   -1.8350 ha        1 P2C      0.159000
     30 H182        4.0040    0.5380   -3.0110 hn        1 P2C      0.409800
@<TRIPOS>BOND
     1    1    2 1   
     2    2    3 ar  
     3    2   10 ar  
     4    3    4 1   
     5    3    7 ar  
     6    4    5 1   
     7    5    6 1   
     8    6   22 1   
     9    7    8 1   
    10    7    9 ar  
    11    9   11 ar  
    12    9   23 1   
    13   10   11 ar  
    14   10   24 1   
    15   11   12 1   
    16   12   13 1   
    17   12   30 1   
    18   13   14 ar  
    19   13   18 ar  
    20   14   15 ar  
    21   14   26 1   
    22   15   16 ar  
    23   15   27 1   
    24   16   17 ar  
    25   16   28 1   
    26   17   18 ar  
    27   17   29 1   
    28   18   19 1   
    29   19   20 2   
    30   19   21 1   
    31   21   25 1   
@<TRIPOS>SUBSTRUCTURE
     1 P2C         1 TEMP              0 ****  ****    0 ROOT
