@<TRIPOS>MOLECULE
P2C
   29    30     1     0     0
SMALL
bcc


@<TRIPOS>ATOM
      1 CL8         3.3690    2.4500    0.8020 cl        1 P2C     -0.094400
      2 C1          2.1550    1.4320    0.1780 ca        1 P2C      0.085400
      3 C2          2.4870    0.3220   -0.6170 ca        1 P2C     -0.060900
      4 O9          3.8150    0.1050   -1.0300 os        1 P2C     -0.132100
      5 O10         4.5500   -0.4780   -0.1270 os        1 P2C      0.006000
      6 O11         4.6470   -1.7300   -0.3920 oh        1 P2C     -0.407000
      7 C3          1.4560   -0.5080   -1.0840 ca        1 P2C      0.085400
      8 CL7         1.8030   -1.8970   -2.0100 cl        1 P2C     -0.094400
      9 C4          0.1260   -0.2260   -0.8010 ca        1 P2C     -0.215000
     10 C6          0.8320    1.7260    0.4750 ca        1 P2C     -0.215000
     11 C5         -0.2270    0.9160   -0.0330 ca        1 P2C      0.239600
     12 N18        -1.5280    1.3130    0.1940 nh        1 P2C     -0.607000
     13 C14        -2.6530    0.5300   -0.1620 ca        1 P2C      0.127600
     14 C15        -2.8470    0.1350   -1.5050 ca        1 P2C     -0.171000
     15 C16        -3.9870   -0.5700   -1.8740 ca        1 P2C     -0.140000
     16 C17        -4.9540   -0.8900   -0.9230 ca        1 P2C     -0.165000
     17 C12        -4.7770   -0.4930    0.3990 ca        1 P2C     -0.092000
     18 C13        -3.6430    0.2200    0.8020 ca        1 P2C     -0.144600
     19 C19        -3.5580    0.6270    2.2680 c         1 P2C      0.911200
     20 O21        -2.8530    1.6310    2.5900 o         1 P2C     -0.822800
     21 O20        -4.2190   -0.0530    3.0980 o         1 P2C     -0.822800
     22 H11         3.8660   -2.1980   -0.0140 ho        1 P2C      0.402000
     23 H4         -0.6630   -0.9090   -1.1570 ha        1 P2C      0.165000
     24 H6          0.5940    2.5900    1.1160 ha        1 P2C      0.165000
     25 H18        -1.6820    1.8680    1.0330 hn        1 P2C      0.493800
     26 H15        -2.1020    0.3960   -2.2720 ha        1 P2C      0.124000
     27 H16        -4.1230   -0.8710   -2.9220 ha        1 P2C      0.111000
     28 H17        -5.8510   -1.4520   -1.2160 ha        1 P2C      0.113000
     29 H12        -5.5220   -0.7450    1.1730 ha        1 P2C      0.158000
@<TRIPOS>BOND
     1    1    2 1   
     2    2    3 ar  
     3    2   10 ar  
     4    3    4 1   
     5    3    7 ar  
     6    4    5 1   
     7    5    6 1   
     8    6   22 1   
     9    7    8 1   
    10    7    9 ar  
    11    9   11 ar  
    12    9   23 1   
    13   10   11 ar  
    14   10   24 1   
    15   11   12 1   
    16   12   13 1   
    17   12   25 1   
    18   13   14 ar  
    19   13   18 ar  
    20   14   15 ar  
    21   14   26 1   
    22   15   16 ar  
    23   15   27 1   
    24   16   17 ar  
    25   16   28 1   
    26   17   18 ar  
    27   17   29 1   
    28   18   19 1   
    29   19   20 1   
    30   19   21 1   
@<TRIPOS>SUBSTRUCTURE
     1 P2C         1 TEMP              0 ****  ****    0 ROOT
