@<TRIPOS>MOLECULE
P2C
   29    26     1     0     0
SMALL
bcc


@<TRIPOS>ATOM
      1 CL8        -0.7960    2.3560    3.1350 cl        1 P2C     -0.026000
      2 C1         -1.3300    1.2540    1.8090 c2        1 P2C      0.015000
      3 C2         -2.5200    0.5020    1.9530 c2        1 P2C     -0.083000
      4 O9         -3.3010    0.5940    3.2010 os        1 P2C     -0.106000
      5 O10        -2.7760   -0.4110    4.1140 os        1 P2C      0.010000
      6 O11        -3.2670   -0.1380    5.4940 oh        1 P2C     -0.205000
      7 C3         -2.9520   -0.3190    0.9190 c1        1 P2C      0.010000
      8 CL7        -4.4070   -1.1980    1.0760 cl        1 P2C     -0.015000
      9 C4         -2.2000   -0.4020   -0.2800 c2        1 P2C     -0.210000
     10 C6         -0.5800    1.1760    0.6220 c1        1 P2C     -0.221000
     11 C5         -1.0070    0.3550   -0.4190 c1        1 P2C      0.157000
     12 N18        -0.2620    0.3320   -1.6900 n3        1 P2C     -0.243000
     13 C14         1.1400    0.2580   -1.6790 c2        1 P2C      0.052000
     14 C15         1.9080    1.4310   -1.5130 c2        1 P2C     -0.175000
     15 C16         3.3020    1.3510   -1.4990 c1        1 P2C     -0.139000
     16 C17         3.9470    0.0920   -1.6520 c1        1 P2C     -0.129500
     17 C12         3.1910   -1.0670   -1.8160 c1        1 P2C     -0.129500
     18 C13         1.7850   -0.9960   -1.8310 c1        1 P2C     -0.126000
     19 C19         0.9650   -2.2420   -2.1060 c2        1 P2C      0.361000
     20 O21         0.4810   -2.4160   -3.1990 o         1 P2C     -0.558000
     21 O20         0.8520   -3.1300   -1.2210 o         1 P2C     -0.558000
     22 H11        -3.1290   -0.8860    6.0250 ho        1 P2C      0.197000
     23 H4         -2.5050   -0.9850   -1.0160 ha        1 P2C      0.162000
     24 H6          0.2980    1.6190    0.5720 ha        1 P2C      0.166000
     25 H18        -0.7280    0.2620   -2.5070 hn        1 P2C      0.290000
     26 H15         1.4400    2.3310   -1.2950 ha        1 P2C      0.124000
     27 H16         3.8550    2.1910   -1.4030 ha        1 P2C      0.110000
     28 H17         4.9270    0.0490   -1.7160 ha        1 P2C      0.134500
     29 H12         3.6700   -1.9640   -2.0750 ha        1 P2C      0.134500
@<TRIPOS>BOND
     1    1    2 1   
     2    2    3 1   
     3    2   10 1   
     4    3    4 1   
     5    3    7 1   
     6    4    5 1   
     7    5    6 1   
     8    6   22 1   
     9    7    9 1   
    10    9   11 1   
    11    9   23 1   
    12   10   24 1   
    13   11   12 1   
    14   12   13 1   
    15   12   25 1   
    16   13   14 1   
    17   13   18 1   
    18   14   15 1   
    19   14   26 1   
    20   15   27 1   
    21   16   17 1   
    22   16   28 1   
    23   17   29 1   
    24   18   19 1   
    25   19   20 1   
    26   19   21 1   
@<TRIPOS>SUBSTRUCTURE
     1 P2C         1 TEMP              0 ****  ****    0 ROOT
