@<TRIPOS>MOLECULE
P2C
   29    30     1     0     0
SMALL
bcc


@<TRIPOS>ATOM
      1 CL8        -0.1280   -0.6630   -0.1900 cl        1 P2C     -0.094400
      2 C1          1.5260   -0.3000   -0.0100 ca        1 P2C      0.085400
      3 C2          2.0200    0.2180    1.2000 ca        1 P2C     -0.060900
      4 O9          1.1430    0.5780    2.2400 os        1 P2C     -0.132100
      5 O10         0.7640   -0.4300    2.9700 os        1 P2C      0.006000
      6 O11         1.4530   -0.4630    4.0520 oh        1 P2C     -0.407000
      7 C3          3.3960    0.4740    1.3140 ca        1 P2C      0.085400
      8 CL7         4.0590    1.0550    2.7730 cl        1 P2C     -0.094400
      9 C4          4.2560    0.2550    0.2460 ca        1 P2C     -0.215000
     10 C6          2.3720   -0.5300   -1.0850 ca        1 P2C     -0.215000
     11 C5          3.7630   -0.2290   -0.9950 ca        1 P2C      0.239600
     12 N18         4.5420   -0.3670   -2.1260 nh        1 P2C     -0.607000
     13 C14         5.9490   -0.2100   -2.1250 ca        1 P2C      0.127600
     14 C15         6.5280    1.0040   -1.6900 ca        1 P2C     -0.171000
     15 C16         7.9040    1.1920   -1.7560 ca        1 P2C     -0.140000
     16 C17         8.7270    0.1850   -2.2570 ca        1 P2C     -0.165000
     17 C12         8.1640   -1.0080   -2.7000 ca        1 P2C     -0.092000
     18 C13         6.7840   -1.2260   -2.6500 ca        1 P2C     -0.144600
     19 C19         6.2670   -2.5580   -3.1820 c         1 P2C      0.911200
     20 O21         5.0730   -2.6340   -3.6020 o         1 P2C     -0.822800
     21 O20         7.0720   -3.5280   -3.1980 o         1 P2C     -0.822800
     22 H11         2.2960   -0.9440    3.8800 ho        1 P2C      0.403000
     23 H4          5.3360    0.4380    0.3700 ha        1 P2C      0.165000
     24 H6          1.9670   -0.9540   -2.0180 ha        1 P2C      0.165000
     25 H18         4.2220   -1.0560   -2.8040 hn        1 P2C      0.493800
     26 H15         5.8900    1.8150   -1.3080 ha        1 P2C      0.124000
     27 H16         8.3380    2.1410   -1.4130 ha        1 P2C      0.111000
     28 H17         9.8150    0.3340   -2.3030 ha        1 P2C      0.113000
     29 H12         8.7960   -1.8240   -3.0900 ha        1 P2C      0.158000
@<TRIPOS>BOND
     1    1    2 1   
     2    2    3 ar  
     3    2   10 ar  
     4    3    4 1   
     5    3    7 ar  
     6    4    5 1   
     7    5    6 1   
     8    6   22 1   
     9    7    8 1   
    10    7    9 ar  
    11    9   11 ar  
    12    9   23 1   
    13   10   11 ar  
    14   10   24 1   
    15   11   12 1   
    16   12   13 1   
    17   12   25 1   
    18   13   14 ar  
    19   13   18 ar  
    20   14   15 ar  
    21   14   26 1   
    22   15   16 ar  
    23   15   27 1   
    24   16   17 ar  
    25   16   28 1   
    26   17   18 ar  
    27   17   29 1   
    28   18   19 1   
    29   19   20 1   
    30   19   21 1   
@<TRIPOS>SUBSTRUCTURE
     1 P2C         1 TEMP              0 ****  ****    0 ROOT
