@<TRIPOS>MOLECULE
P2D
   15    14     1     0     0
SMALL
bcc


@<TRIPOS>ATOM
      1 C1          0.5950    0.1300   -0.3300 c3        1 P2D     -0.204600
      2 C2          1.4130   -0.8000    0.5000 c         1 P2D      0.579100
      3 C3          2.0700   -0.1860    1.7110 c3        1 P2D     -0.300400
      4 C4          3.2670    0.6460    1.3290 c         1 P2D      0.579100
      5 C5          4.5930    0.0850    1.7240 c3        1 P2D     -0.204600
      6 O2          1.5450   -2.0000    0.2430 o         1 P2D     -0.527600
      7 O4          3.1470    1.7260    0.7420 o         1 P2D     -0.527600
      8 H1         -0.3580    0.3630    0.2070 hc        1 P2D      0.072033
      9 H2          1.1550    1.0850   -0.4950 hc        1 P2D      0.072033
     10 H3          0.3470   -0.3320   -1.3170 hc        1 P2D      0.072033
     11 H4          2.3790   -0.9980    2.4210 hc        1 P2D      0.086700
     12 H5          1.3230    0.4720    2.2310 hc        1 P2D      0.086700
     13 H6          5.4240    0.7370    1.3610 hc        1 P2D      0.072033
     14 H7          4.6510    0.0090    2.8380 hc        1 P2D      0.072033
     15 H8          4.7130   -0.9380    1.2900 hc        1 P2D      0.072033
@<TRIPOS>BOND
     1    1    2 1   
     2    1    8 1   
     3    1    9 1   
     4    1   10 1   
     5    2    3 1   
     6    2    6 2   
     7    3    4 1   
     8    3   11 1   
     9    3   12 1   
    10    4    5 1   
    11    4    7 2   
    12    5   13 1   
    13    5   14 1   
    14    5   15 1   
@<TRIPOS>SUBSTRUCTURE
     1 P2D         1 TEMP              0 ****  ****    0 ROOT
