@<TRIPOS>MOLECULE
P2D
   15    14     1     0     0
SMALL
bcc


@<TRIPOS>ATOM
      1 C1          0.0430   -0.0000    0.1230 c3        1 P2D     -0.206100
      2 C2          1.5180   -0.0000   -0.1440 c         1 P2D      0.564100
      3 C3          2.3520    0.0000    1.1060 c3        1 P2D     -0.290400
      4 C4          3.8440    0.0000    0.9280 c         1 P2D      0.564100
      5 C5          4.6000    0.0000    2.2220 c3        1 P2D     -0.206100
      6 O2          1.9760   -0.0000   -1.2860 o         1 P2D     -0.487100
      7 O4          4.4140    0.0000   -0.1630 o         1 P2D     -0.487100
      8 H1         -0.2370   -0.9080    0.7100 hc        1 P2D      0.063033
      9 H2         -0.2370    0.9080    0.7100 hc        1 P2D      0.063033
     10 H3         -0.5290   -0.0000   -0.8370 hc        1 P2D      0.063033
     11 H4          2.0740   -0.9060    1.7110 hc        1 P2D      0.084700
     12 H5          2.0740    0.9060    1.7110 hc        1 P2D      0.084700
     13 H6          5.7020    0.0000    2.0320 hc        1 P2D      0.063033
     14 H7          4.3360    0.9080    2.8160 hc        1 P2D      0.063033
     15 H8          4.3360   -0.9080    2.8160 hc        1 P2D      0.063033
@<TRIPOS>BOND
     1    1    2 1   
     2    1    8 1   
     3    1    9 1   
     4    1   10 1   
     5    2    3 1   
     6    2    6 2   
     7    3    4 1   
     8    3   11 1   
     9    3   12 1   
    10    4    5 1   
    11    4    7 2   
    12    5   13 1   
    13    5   14 1   
    14    5   15 1   
@<TRIPOS>SUBSTRUCTURE
     1 P2D         1 TEMP              0 ****  ****    0 ROOT
