@<TRIPOS>MOLECULE
P2E
   56    56     1     0     0
SMALL
bcc


@<TRIPOS>ATOM
      1 C2          0.5330   -0.9780   -0.0010 c3        1 P2E     -0.196400
      2 C3          1.9400   -0.4490    0.1230 c3        1 P2E     -0.063400
      3 C4          2.0020    0.7550    1.0440 c3        1 P2E     -0.062200
      4 C5          3.3850    1.2510    1.2320 c2        1 P2E     -0.122200
      5 C6          3.8170    2.0100    2.2440 c2        1 P2E     -0.230200
      6 C7          2.9810    2.5070    3.3620 c3        1 P2E     -0.020200
      7 C8          3.5100    2.0310    4.7090 c3        1 P2E     -0.157700
      8 C9          4.6930    2.8370    5.1930 c         1 P2E      0.581100
      9 O3          5.7160    3.0760    4.5530 o         1 P2E     -0.526100
     10 C12         2.4360    2.1310    5.8050 c3        1 P2E     -0.033500
     11 C11         3.1270    2.7140    7.0590 c3        1 P2E      0.145100
     12 O4          2.2670    3.7150    7.5810 oh        1 P2E     -0.594800
     13 C10         4.4650    3.3030    6.6080 c3        1 P2E     -0.232400
     14 C13         1.8330    0.8050    6.0960 c2        1 P2E     -0.162200
     15 C14         0.5310    0.5130    6.0640 c2        1 P2E     -0.183200
     16 C15        -0.5720    1.4660    5.7310 c3        1 P2E      0.173300
     17 O5         -1.7630    0.7620    5.3900 oh        1 P2E     -0.603800
     18 C16        -0.9160    2.3790    6.9090 c3        1 P2E     -0.075400
     19 C17        -1.4290    1.6070    8.1040 c3        1 P2E     -0.075400
     20 C18        -1.7730    2.5360    9.2480 c3        1 P2E     -0.077400
     21 C19        -2.2780    1.7660   10.4500 c3        1 P2E     -0.080400
     22 C20        -2.6270    2.6850   11.5910 c3        1 P2E     -0.091100
     23 O1          1.0270   -1.9510   -2.1540 o         1 P2E     -0.850800
     24 C1          0.4540   -2.1140   -1.0380 c         1 P2E      0.908600
     25 O2         -0.1990   -3.1500   -0.7230 o         1 P2E     -0.850800
     26 H2         -0.1560   -0.1610   -0.3350 hc        1 P2E      0.017700
     27 H2A         0.1680   -1.3540    0.9870 hc        1 P2E      0.017700
     28 H3          2.6090   -1.2570    0.5180 hc        1 P2E      0.047200
     29 H3A         2.3160   -0.1780   -0.8990 hc        1 P2E      0.047200
     30 H4          1.3740    1.5840    0.6140 hc        1 P2E      0.037700
     31 H4A         1.5460    0.4800    2.0340 hc        1 P2E      0.037700
     32 H5          4.0960    0.9480    0.4420 ha        1 P2E      0.124000
     33 H6          4.8740    2.3220    2.3020 ha        1 P2E      0.127000
     34 H7          1.9180    2.1590    3.2530 hc        1 P2E      0.048700
     35 H7A         2.9660    3.6300    3.3430 hc        1 P2E      0.048700
     36 H8          3.8510    0.9620    4.6010 hc        1 P2E      0.094700
     37 H12         1.6420    2.8640    5.4840 hc        1 P2E      0.084700
     38 H11         3.2880    1.9160    7.8350 h1        1 P2E      0.042700
     39 HO4         2.6810    4.0420    8.3880 ho        1 P2E      0.397000
     40 H10         4.4330    4.4230    6.6300 hc        1 P2E      0.078200
     41 H10A        5.3040    2.9660    7.2660 hc        1 P2E      0.078200
     42 H13         2.5640    0.0150    6.3480 ha        1 P2E      0.120000
     43 H14         0.1870   -0.5110    6.2930 ha        1 P2E      0.135000
     44 H15        -0.2690    2.1070    4.8500 h1        1 P2E      0.041700
     45 HO5        -1.5560    0.2220    4.6170 ho        1 P2E      0.411000
     46 H16         0.0080    2.9540    7.1840 hc        1 P2E      0.055700
     47 H16A       -1.6980    3.1080    6.5720 hc        1 P2E      0.055700
     48 H17        -0.6510    0.8690    8.4350 hc        1 P2E      0.048200
     49 H17A       -2.3370    1.0190    7.8020 hc        1 P2E      0.048200
     50 H18        -2.5570    3.2680    8.9160 hc        1 P2E      0.036700
     51 H18A       -0.8670    3.1310    9.5360 hc        1 P2E      0.036700
     52 H19        -1.4940    1.0350   10.7810 hc        1 P2E      0.038700
     53 H19A       -3.1820    1.1690   10.1570 hc        1 P2E      0.038700
     54 H20        -1.7330    3.2720   11.9120 hc        1 P2E      0.028700
     55 H20A       -3.4260    3.4040   11.2880 hc        1 P2E      0.028700
     56 H20B       -2.9960    2.0970   12.4660 hc        1 P2E      0.028700
@<TRIPOS>BOND
     1    1    2 1   
     2    1   24 1   
     3    1   26 1   
     4    1   27 1   
     5    2    3 1   
     6    2   28 1   
     7    2   29 1   
     8    3    4 1   
     9    3   30 1   
    10    3   31 1   
    11    4    5 2   
    12    4   32 1   
    13    5    6 1   
    14    5   33 1   
    15    6    7 1   
    16    6   34 1   
    17    6   35 1   
    18    7    8 1   
    19    7   10 1   
    20    7   36 1   
    21    8    9 2   
    22    8   13 1   
    23   10   11 1   
    24   10   14 1   
    25   10   37 1   
    26   11   12 1   
    27   11   13 1   
    28   11   38 1   
    29   12   39 1   
    30   13   40 1   
    31   13   41 1   
    32   14   15 2   
    33   14   42 1   
    34   15   16 1   
    35   15   43 1   
    36   16   17 1   
    37   16   18 1   
    38   16   44 1   
    39   17   45 1   
    40   18   19 1   
    41   18   46 1   
    42   18   47 1   
    43   19   20 1   
    44   19   48 1   
    45   19   49 1   
    46   20   21 1   
    47   20   50 1   
    48   20   51 1   
    49   21   22 1   
    50   21   52 1   
    51   21   53 1   
    52   22   54 1   
    53   22   55 1   
    54   22   56 1   
    55   23   24 1   
    56   24   25 1   
@<TRIPOS>SUBSTRUCTURE
     1 P2E         1 TEMP              0 ****  ****    0 ROOT
