@<TRIPOS>MOLECULE
P2E
   56    56     1     0     0
SMALL
bcc


@<TRIPOS>ATOM
      1 C2          0.6660   -0.7860    1.7480 c3        1 P2E     -0.181400
      2 C3          1.8530   -0.0740    1.1410 c3        1 P2E     -0.054400
      3 C4          1.7010    1.4350    1.2350 c3        1 P2E     -0.059200
      4 C5          2.9220    2.1260    0.7610 c2        1 P2E     -0.153200
      5 C6          3.7000    2.9390    1.4820 c2        1 P2E     -0.183200
      6 C7          3.4810    3.3180    2.9000 c3        1 P2E     -0.022200
      7 C8          3.9580    2.2410    3.8600 c3        1 P2E     -0.167700
      8 C9          5.4590    2.1310    3.9530 c         1 P2E      0.589100
      9 O3          6.2630    2.2170    3.0230 o         1 P2E     -0.552100
     10 C12         3.4580    2.4960    5.2940 c3        1 P2E     -0.017500
     11 C11         4.6070    2.0730    6.2390 c3        1 P2E      0.141100
     12 O4          4.7900    3.1190    7.1840 oh        1 P2E     -0.599800
     13 C10         5.8660    1.8920    5.3860 c3        1 P2E     -0.228400
     14 C13         2.2290    1.7110    5.5780 c2        1 P2E     -0.186200
     15 C14         1.1380    2.2160    6.1590 c2        1 P2E     -0.186200
     16 C15        -0.1020    1.4000    6.3770 c3        1 P2E      0.183300
     17 O5          0.1990    0.0370    6.6220 oh        1 P2E     -0.639800
     18 C16        -0.8800    1.9180    7.5880 c3        1 P2E     -0.071400
     19 C17        -2.2430    1.2660    7.6720 c3        1 P2E     -0.080400
     20 C18        -2.9920    1.7050    8.9110 c3        1 P2E     -0.076400
     21 C19        -4.3590    1.0600    8.9860 c3        1 P2E     -0.081400
     22 C20        -5.1100    1.4880   10.2210 c3        1 P2E     -0.089100
     23 O1         -0.4240   -0.1900    3.8160 o         1 P2E     -0.860800
     24 C1          0.6320   -0.6280    3.2680 c         1 P2E      0.900600
     25 O2          1.6550   -0.9400    3.9530 o         1 P2E     -0.860800
     26 H2          0.7320   -1.8790    1.5160 hc        1 P2E      0.029200
     27 H2A        -0.2880   -0.3940    1.3150 hc        1 P2E      0.029200
     28 H3          2.7790   -0.3870    1.6940 hc        1 P2E      0.029700
     29 H3A         1.9740   -0.3710    0.0670 hc        1 P2E      0.029700
     30 H4          0.8270    1.7630    0.6090 hc        1 P2E      0.054200
     31 H4A         1.4630    1.6990    2.3010 hc        1 P2E      0.054200
     32 H5          3.1900    1.9100   -0.2880 ha        1 P2E      0.101000
     33 H6          4.6120    3.3680    1.0330 ha        1 P2E      0.114000
     34 H7          4.0180    4.2790    3.1190 hc        1 P2E      0.046200
     35 H7A         2.3860    3.4950    3.0890 hc        1 P2E      0.046200
     36 H8          3.5640    1.2410    3.5010 hc        1 P2E      0.130700
     37 H12         3.2730    3.5960    5.4410 hc        1 P2E      0.063700
     38 H11         4.3460    1.1170    6.7700 h1        1 P2E      0.059700
     39 HO4         5.3280    2.7540    7.8940 ho        1 P2E      0.388000
     40 H10         6.2780    0.8570    5.4870 hc        1 P2E      0.071200
     41 H10A        6.6620    2.6190    5.6860 hc        1 P2E      0.071200
     42 H13         2.2460    0.6490    5.2470 ha        1 P2E      0.197000
     43 H14         1.0780    3.2680    6.4780 ha        1 P2E      0.097000
     44 H15        -0.7400    1.4780    5.4440 h1        1 P2E      0.079700
     45 HO5         0.3540   -0.3760    5.7480 ho        1 P2E      0.471000
     46 H16        -0.9930    3.0300    7.5040 hc        1 P2E      0.029700
     47 H16A       -0.2970    1.6980    8.5190 hc        1 P2E      0.029700
     48 H17        -2.8400    1.5220    6.7580 hc        1 P2E      0.053700
     49 H17A       -2.1080    0.1510    7.6760 hc        1 P2E      0.053700
     50 H18        -2.4000    1.4350    9.8250 hc        1 P2E      0.029200
     51 H18A       -3.1040    2.8220    8.9090 hc        1 P2E      0.029200
     52 H19        -4.9500    1.3320    8.0720 hc        1 P2E      0.039700
     53 H19A       -4.2440   -0.0560    8.9830 hc        1 P2E      0.039700
     54 H20        -6.1150    1.0020   10.2550 hc        1 P2E      0.024367
     55 H20A       -5.2550    2.5960   10.2300 hc        1 P2E      0.024367
     56 H20B       -4.5480    1.2030   11.1430 hc        1 P2E      0.024367
@<TRIPOS>BOND
     1    1    2 1   
     2    1   24 1   
     3    1   26 1   
     4    1   27 1   
     5    2    3 1   
     6    2   28 1   
     7    2   29 1   
     8    3    4 1   
     9    3   30 1   
    10    3   31 1   
    11    4    5 2   
    12    4   32 1   
    13    5    6 1   
    14    5   33 1   
    15    6    7 1   
    16    6   34 1   
    17    6   35 1   
    18    7    8 1   
    19    7   10 1   
    20    7   36 1   
    21    8    9 2   
    22    8   13 1   
    23   10   11 1   
    24   10   14 1   
    25   10   37 1   
    26   11   12 1   
    27   11   13 1   
    28   11   38 1   
    29   12   39 1   
    30   13   40 1   
    31   13   41 1   
    32   14   15 2   
    33   14   42 1   
    34   15   16 1   
    35   15   43 1   
    36   16   17 1   
    37   16   18 1   
    38   16   44 1   
    39   17   45 1   
    40   18   19 1   
    41   18   46 1   
    42   18   47 1   
    43   19   20 1   
    44   19   48 1   
    45   19   49 1   
    46   20   21 1   
    47   20   50 1   
    48   20   51 1   
    49   21   22 1   
    50   21   52 1   
    51   21   53 1   
    52   22   54 1   
    53   22   55 1   
    54   22   56 1   
    55   23   24 1   
    56   24   25 1   
@<TRIPOS>SUBSTRUCTURE
     1 P2E         1 TEMP              0 ****  ****    0 ROOT
