@<TRIPOS>MOLECULE
P2F
  104   107     1     0     0
SMALL
bcc


@<TRIPOS>ATOM
      1 O3          0.9830   -1.7040   -1.4170 o         1 P2F     -0.430100
      2 C15         1.8690   -0.9660   -1.0070 c         1 P2F      0.576700
      3 C25         2.3550   -0.8390    0.3770 ca        1 P2F     -0.163600
      4 C24         3.6800   -0.5010    0.6790 ca        1 P2F     -0.078000
      5 C26         1.4310   -1.1410    1.3910 ca        1 P2F     -0.070000
      6 C27         1.7890   -0.9970    2.7530 ca        1 P2F      0.227600
      7 N2          1.0020   -1.4020    3.8200 nh        1 P2F     -0.639900
      8 C30        -0.4450   -1.4290    3.7230 c3        1 P2F      0.185800
      9 C31        -1.0410   -2.8020    4.0430 c3        1 P2F     -0.116400
     10 C32        -0.6310   -3.2820    5.4180 c3        1 P2F     -0.063400
     11 C29         0.8760   -3.3720    5.5570 c3        1 P2F     -0.329600
     12 S1          1.6810   -1.9150    5.2880 s6        1 P2F      1.437900
     13 O4          3.0640   -2.1350    5.0300 o         1 P2F     -0.646300
     14 O5          1.4230   -0.9610    6.2680 o         1 P2F     -0.646300
     15 C22         3.0770   -0.4600    3.0280 ca        1 P2F     -0.097000
     16 C23         4.0360   -0.3550    2.0240 ca        1 P2F     -0.136600
     17 C28         5.4510   -0.1030    2.3850 c         1 P2F      0.556700
     18 N3          5.9310   -0.7670    3.6530 n4        1 P2F     -0.590200
     19 C33         6.3890    0.2830    4.6290 c3        1 P2F      0.112800
     20 C34         6.7170   -0.2750    6.0090 c3        1 P2F     -0.102400
     21 C35         6.9990    0.8700    6.9520 c3        1 P2F     -0.104600
     22 C36         6.9840   -1.8010    3.3660 c3        1 P2F      0.112800
     23 C37         8.3570   -1.2680    2.9740 c3        1 P2F     -0.102400
     24 C38         9.2370   -2.4230    2.5630 c3        1 P2F     -0.104600
     25 O6          6.2380    0.5670    1.7290 o         1 P2F     -0.407100
     26 N1          2.5110   -0.0620   -2.0350 n4        1 P2F     -0.681800
     27 C11         1.6110    0.3020   -3.1930 c3        1 P2F      0.140500
     28 C14         2.0640    1.6380   -3.8090 c3        1 P2F     -0.053100
     29 C19         2.2950    2.6910   -2.7850 ca        1 P2F     -0.189300
     30 C20         3.6030    3.0470   -2.4260 ca        1 P2F     -0.131500
     31 C21         3.8230    4.0970   -1.5370 ca        1 P2F     -0.111000
     32 C16         2.7420    4.7990   -1.0000 ca        1 P2F     -0.084000
     33 C17         1.4370    4.4460   -1.3510 ca        1 P2F     -0.111000
     34 C18         1.2130    3.3970   -2.2430 ca        1 P2F     -0.131500
     35 C10         1.5690   -0.8400   -4.2520 c3        1 P2F      0.101100
     36 O2          2.9100   -1.1880   -4.5480 oh        1 P2F     -0.604800
     37 C9          0.8700   -0.3340   -5.5320 c3        1 P2F      0.073800
     38 N4          0.6510   -1.3990   -6.5380 n4        1 P2F     -0.776000
     39 C7         -0.0440   -0.9210   -7.8360 c3        1 P2F      0.231500
     40 C12        -1.4220   -0.3550   -7.4860 c3        1 P2F     -0.133100
     41 C13         0.8180    0.1570   -8.4980 c3        1 P2F     -0.133100
     42 C3         -0.2000   -2.1040   -8.7790 ca        1 P2F     -0.123300
     43 C2          0.2310   -3.4050   -8.4920 ca        1 P2F     -0.208000
     44 C1          0.0450   -4.4270   -9.4250 ca        1 P2F     -0.055000
     45 C6         -0.5670   -4.1820  -10.6500 ca        1 P2F     -0.169000
     46 C5         -1.0000   -2.8800  -10.9410 ca        1 P2F      0.176100
     47 C4         -0.8160   -1.8400  -10.0050 ca        1 P2F     -0.148000
     48 O1         -1.6150   -2.4950  -12.1010 os        1 P2F     -0.308900
     49 C8         -1.8230   -3.5080  -13.0900 c3        1 P2F      0.103700
     50 H1          3.3490   -0.5260   -2.4160 hn        1 P2F      0.482800
     51 H24         4.4480   -0.3670   -0.0980 ha        1 P2F      0.157000
     52 H26         0.4250   -1.5050    1.1100 ha        1 P2F      0.185000
     53 H22         3.3250   -0.1410    4.0600 ha        1 P2F      0.180000
     54 H301       -0.8450   -0.6700    4.4640 h1        1 P2F      0.077700
     55 H302       -0.7930   -1.1060    2.7040 h1        1 P2F      0.077700
     56 H311       -0.7410   -3.5510    3.2660 hc        1 P2F      0.079200
     57 H312       -2.1600   -2.7040    4.0050 hc        1 P2F      0.079200
     58 H321       -1.0390   -2.5910    6.2060 hc        1 P2F      0.092700
     59 H322       -1.0830   -4.2930    5.6080 hc        1 P2F      0.092700
     60 H291        1.2470   -4.1990    4.8900 h1        1 P2F      0.152200
     61 H292        1.0930   -3.7420    6.6040 h1        1 P2F      0.152200
     62 H331        5.5530    1.0360    4.7180 hx        1 P2F      0.103200
     63 H332        7.2910    0.7960    4.1880 hx        1 P2F      0.103200
     64 H361        6.5820   -2.4580    2.5430 hx        1 P2F      0.103200
     65 H362        7.0840   -2.4210    4.3060 hx        1 P2F      0.103200
     66 H341        7.6170   -0.9430    5.9510 hc        1 P2F      0.072950
     67 H342        5.8590   -0.8840    6.4030 hc        1 P2F      0.072950
     68 H351        7.2680    0.4640    7.9590 hc        1 P2F      0.064533
     69 H352        6.1030    1.5260    7.0680 hc        1 P2F      0.064533
     70 H353        7.8530    1.4910    6.5860 hc        1 P2F      0.064533
     71 H371        8.8260   -0.7360    3.8450 hc        1 P2F      0.072950
     72 H372        8.2730   -0.5330    2.1300 hc        1 P2F      0.072950
     73 H381       10.2560   -2.0390    2.3050 hc        1 P2F      0.064533
     74 H382        8.8220   -2.9470    1.6680 hc        1 P2F      0.064533
     75 H383        9.3430   -3.1630    3.3930 hc        1 P2F      0.064533
     76 H11         0.5670    0.4200   -2.7720 hx        1 P2F      0.120700
     77 H141        2.9930    1.4700   -4.4200 hc        1 P2F      0.093700
     78 H142        1.2470    1.9810   -4.5020 hc        1 P2F      0.093700
     79 H10         1.0060   -1.7150   -3.8120 h1        1 P2F      0.090700
     80 H20         4.4630    2.5380   -2.8890 ha        1 P2F      0.137500
     81 H18         0.1840    3.1490   -2.5430 ha        1 P2F      0.137500
     82 H21         4.8540    4.3930   -1.2800 ha        1 P2F      0.167500
     83 H16         2.9180    5.6460   -0.3160 ha        1 P2F      0.172000
     84 H17         0.5840    5.0130   -0.9440 ha        1 P2F      0.167500
     85 H2          2.9530   -2.1390   -4.7210 ho        1 P2F      0.444000
     86 H91C       -0.1280    0.1130   -5.2570 hx        1 P2F      0.128700
     87 H92C        1.5160    0.4580   -6.0160 hx        1 P2F      0.128700
     88 H4          1.5570   -1.7980   -6.8130 hn        1 P2F      0.453300
     89 H121       -1.3400    0.6010   -6.9140 hc        1 P2F      0.081700
     90 H122       -1.9660   -0.1330   -8.4410 hc        1 P2F      0.081700
     91 H123       -2.0400   -1.0890   -6.9140 hc        1 P2F      0.081700
     92 H131        1.8660   -0.1920   -8.6640 hc        1 P2F      0.081700
     93 H132        0.8210    1.1010   -7.9020 hc        1 P2F      0.081700
     94 H133        0.3790    0.3920   -9.5030 hc        1 P2F      0.081700
     95 HA          0.7230   -3.6870   -7.5520 ha        1 P2F      0.095000
     96 HB         -1.1730   -0.8350  -10.2800 ha        1 P2F      0.163000
     97 HC          0.3890   -5.4480   -9.1870 ha        1 P2F      0.159000
     98 H6         -0.7050   -5.0000  -11.3740 ha        1 P2F      0.175000
     99 H81C       -2.4890   -4.3110  -12.6910 h1        1 P2F      0.068033
    100 H82C       -0.8450   -3.9260  -13.4310 h1        1 P2F      0.068033
    101 H83C       -2.3270   -2.9450  -13.9180 h1        1 P2F      0.068033
    102 H31         5.1380   -1.2760    4.0900 hn        1 P2F      0.484800
    103 H12         2.8080    0.8200   -1.5750 hn        1 P2F      0.482800
    104 H42         0.0650   -2.1440   -6.1430 hn        1 P2F      0.453300
@<TRIPOS>BOND
     1    1    2 2   
     2    2    3 1   
     3    2   26 1   
     4    3    4 ar  
     5    3    5 ar  
     6    4   16 ar  
     7    4   51 1   
     8    5    6 ar  
     9    5   52 1   
    10    6    7 1   
    11    6   15 ar  
    12    7    8 1   
    13    7   12 1   
    14    8    9 1   
    15    8   54 1   
    16    8   55 1   
    17    9   10 1   
    18    9   56 1   
    19    9   57 1   
    20   10   11 1   
    21   10   58 1   
    22   10   59 1   
    23   11   12 1   
    24   11   60 1   
    25   11   61 1   
    26   12   13 2   
    27   12   14 2   
    28   15   16 ar  
    29   15   53 1   
    30   16   17 1   
    31   17   18 1   
    32   17   25 2   
    33   18   19 1   
    34   18   22 1   
    35   18  102 1   
    36   19   20 1   
    37   19   62 1   
    38   19   63 1   
    39   20   21 1   
    40   20   66 1   
    41   20   67 1   
    42   21   68 1   
    43   21   69 1   
    44   21   70 1   
    45   22   23 1   
    46   22   64 1   
    47   22   65 1   
    48   23   24 1   
    49   23   71 1   
    50   23   72 1   
    51   24   73 1   
    52   24   74 1   
    53   24   75 1   
    54   26   27 1   
    55   26   50 1   
    56   26  103 1   
    57   27   28 1   
    58   27   35 1   
    59   27   76 1   
    60   28   29 1   
    61   28   77 1   
    62   28   78 1   
    63   29   30 ar  
    64   29   34 ar  
    65   30   31 ar  
    66   30   80 1   
    67   31   32 ar  
    68   31   82 1   
    69   32   33 ar  
    70   32   83 1   
    71   33   34 ar  
    72   33   84 1   
    73   34   81 1   
    74   35   36 1   
    75   35   37 1   
    76   35   79 1   
    77   36   85 1   
    78   37   38 1   
    79   37   86 1   
    80   37   87 1   
    81   38   39 1   
    82   38   88 1   
    83   38  104 1   
    84   39   40 1   
    85   39   41 1   
    86   39   42 1   
    87   40   89 1   
    88   40   90 1   
    89   40   91 1   
    90   41   92 1   
    91   41   93 1   
    92   41   94 1   
    93   42   43 ar  
    94   42   47 ar  
    95   43   44 ar  
    96   43   95 1   
    97   44   45 ar  
    98   44   97 1   
    99   45   46 ar  
   100   45   98 1   
   101   46   47 ar  
   102   46   48 1   
   103   47   96 1   
   104   48   49 1   
   105   49   99 1   
   106   49  100 1   
   107   49  101 1   
@<TRIPOS>SUBSTRUCTURE
     1 P2F         1 TEMP              0 ****  ****    0 ROOT
