@<TRIPOS>MOLECULE
P2F
  104   107     1     0     0
SMALL
bcc


@<TRIPOS>ATOM
      1 O3          1.0100   -1.7380   -1.4230 o         1 P2F     -0.430100
      2 C15         1.8770   -0.9790   -1.0110 c         1 P2F      0.576700
      3 C25         2.3550   -0.8390    0.3750 ca        1 P2F     -0.163600
      4 C24         3.6700   -0.4680    0.6810 ca        1 P2F     -0.078000
      5 C26         1.4350   -1.1630    1.3850 ca        1 P2F     -0.070000
      6 C27         1.7840   -1.0100    2.7490 ca        1 P2F      0.227600
      7 N2          1.0040   -1.4340    3.8130 nh        1 P2F     -0.639900
      8 C30        -0.4420   -1.4960    3.7110 c3        1 P2F      0.185800
      9 C31        -1.0050   -2.8830    4.0290 c3        1 P2F     -0.115400
     10 C32        -0.5880   -3.3520    5.4060 c3        1 P2F     -0.063400
     11 C29         0.9200   -3.4050    5.5500 c3        1 P2F     -0.329600
     12 S1          1.6890   -1.9280    5.2830 s6        1 P2F      1.437900
     13 O4          3.0790   -2.1140    5.0310 o         1 P2F     -0.646300
     14 O5          1.4050   -0.9810    6.2630 o         1 P2F     -0.646300
     15 C22         3.0580   -0.4410    3.0280 ca        1 P2F     -0.097000
     16 C23         4.0180   -0.3130    2.0270 ca        1 P2F     -0.136600
     17 C28         5.4240   -0.0250    2.3940 c         1 P2F      0.556700
     18 N3          5.9160   -0.6760    3.6650 n4        1 P2F     -0.590200
     19 C33         6.3420    0.3870    4.6420 c3        1 P2F      0.112800
     20 C34         6.6770   -0.1620    6.0240 c3        1 P2F     -0.102400
     21 C35         6.9260    0.9910    6.9660 c3        1 P2F     -0.104600
     22 C36         6.9960   -1.6830    3.3830 c3        1 P2F      0.112800
     23 C37         8.3560   -1.1150    2.9980 c3        1 P2F     -0.102400
     24 C38         9.2680   -2.2470    2.5910 c3        1 P2F     -0.104600
     25 O6          6.1970    0.6630    1.7400 o         1 P2F     -0.407100
     26 N1          2.5020   -0.0610   -2.0380 n4        1 P2F     -0.681800
     27 C11         1.5970    0.2830   -3.1980 c3        1 P2F      0.140500
     28 C14         2.0220    1.6280   -3.8130 c3        1 P2F     -0.053100
     29 C19         2.2290    2.6860   -2.7900 ca        1 P2F     -0.189300
     30 C20         3.5280    3.0690   -2.4290 ca        1 P2F     -0.131500
     31 C21         3.7250    4.1240   -1.5400 ca        1 P2F     -0.111000
     32 C16         2.6290    4.8040   -1.0050 ca        1 P2F     -0.084000
     33 C17         1.3330    4.4230   -1.3590 ca        1 P2F     -0.111000
     34 C18         1.1320    3.3700   -2.2500 ca        1 P2F     -0.131500
     35 C10         1.5810   -0.8600   -4.2560 c3        1 P2F      0.101100
     36 O2          2.9300   -1.1790   -4.5510 oh        1 P2F     -0.604800
     37 C9          0.8730   -0.3700   -5.5380 c3        1 P2F      0.073800
     38 N4          0.6790   -1.4400   -6.5440 n4        1 P2F     -0.776000
     39 C7         -0.0290   -0.9790   -7.8400 c3        1 P2F      0.231500
     40 C12        -1.4230   -0.4550   -7.4890 c3        1 P2F     -0.133100
     41 C13         0.8000    0.1260   -8.4990 c3        1 P2F     -0.133100
     42 C3         -0.1510   -2.1630   -8.7870 ca        1 P2F     -0.123300
     43 C2          0.3150   -3.4530   -8.5020 ca        1 P2F     -0.208000
     44 C1          0.1590   -4.4780   -9.4380 ca        1 P2F     -0.055000
     45 C6         -0.4570   -4.2460  -10.6630 ca        1 P2F     -0.169000
     46 C5         -0.9260   -2.9560  -10.9510 ca        1 P2F      0.176100
     47 C4         -0.7720   -1.9140  -10.0130 ca        1 P2F     -0.148000
     48 O1         -1.5490   -2.5860  -12.1110 os        1 P2F     -0.308900
     49 C8         -1.7280   -3.6010  -13.1040 c3        1 P2F      0.103700
     50 H1          3.3500   -0.5070   -2.4170 hn        1 P2F      0.482800
     51 H24         4.4380   -0.3160   -0.0930 ha        1 P2F      0.157000
     52 H26         0.4400   -1.5520    1.1010 ha        1 P2F      0.185000
     53 H22         3.2940   -0.1150    4.0600 ha        1 P2F      0.180000
     54 H301       -0.8640   -0.7470    4.4500 h1        1 P2F      0.077700
     55 H302       -0.7940   -1.1830    2.6900 h1        1 P2F      0.077700
     56 H311       -0.6830   -3.6260    3.2540 hc        1 P2F      0.079200
     57 H312       -2.1260   -2.8130    3.9870 hc        1 P2F      0.079200
     58 H321       -1.0160   -2.6710    6.1920 hc        1 P2F      0.092700
     59 H322       -1.0150   -4.3740    5.5950 hc        1 P2F      0.092700
     60 H291        1.1430   -3.7690    6.5980 h1        1 P2F      0.152200
     61 H292        1.3150   -4.2230    4.8850 h1        1 P2F      0.152200
     62 H331        7.2330    0.9220    4.2040 hx        1 P2F      0.103200
     63 H332        5.4860    1.1180    4.7260 hx        1 P2F      0.103200
     64 H361        6.6140   -2.3510    2.5590 hx        1 P2F      0.103200
     65 H362        7.1070   -2.3000    4.3240 hx        1 P2F      0.103200
     66 H341        7.5940   -0.8070    5.9710 hc        1 P2F      0.072950
     67 H342        5.8340   -0.7920    6.4140 hc        1 P2F      0.072950
     68 H351        7.7650    1.6330    6.6040 hc        1 P2F      0.064533
     69 H352        7.2000    0.5920    7.9750 hc        1 P2F      0.064533
     70 H353        6.0120    1.6240    7.0780 hc        1 P2F      0.064533
     71 H371        8.2580   -0.3830    2.1520 hc        1 P2F      0.072950
     72 H372        8.8080   -0.5710    3.8710 hc        1 P2F      0.072950
     73 H381        8.8710   -2.7820    1.6950 hc        1 P2F      0.064533
     74 H382        9.3890   -2.9840    3.4230 hc        1 P2F      0.064533
     75 H383       10.2780   -1.8380    2.3380 hc        1 P2F      0.064533
     76 H11         0.5500    0.3790   -2.7790 hx        1 P2F      0.120700
     77 H141        2.9550    1.4800   -4.4240 hc        1 P2F      0.093700
     78 H142        1.1990    1.9540   -4.5080 hc        1 P2F      0.093700
     79 H10         1.0370   -1.7470   -3.8170 h1        1 P2F      0.090700
     80 H20         4.3990    2.5780   -2.8900 ha        1 P2F      0.137500
     81 H18         0.1080    3.1000   -2.5520 ha        1 P2F      0.137500
     82 H21         4.7490    4.4420   -1.2810 ha        1 P2F      0.167500
     83 H16         2.7860    5.6550   -0.3210 ha        1 P2F      0.172000
     84 H17         0.4670    4.9730   -0.9530 ha        1 P2F      0.167500
     85 H2          2.9940   -2.1290   -4.7230 ho        1 P2F      0.444000
     86 H91C       -0.1350    0.0550   -5.2640 hx        1 P2F      0.128700
     87 H92C        1.5030    0.4360   -6.0200 hx        1 P2F      0.128700
     88 H4          0.1140   -2.2000   -6.1490 hn        1 P2F      0.453800
     89 H121       -1.3690    0.5010   -6.9150 hc        1 P2F      0.081700
     90 H122       -1.9730   -0.2460   -8.4440 hc        1 P2F      0.081700
     91 H123       -2.0190   -1.2080   -6.9190 hc        1 P2F      0.081700
     92 H131        0.3550    0.3510   -9.5040 hc        1 P2F      0.081700
     93 H132        1.8580   -0.1910   -8.6670 hc        1 P2F      0.081700
     94 H133        0.7760    1.0680   -7.9010 hc        1 P2F      0.081700
     95 HA          0.8120   -3.7240   -7.5610 ha        1 P2F      0.095000
     96 HB         -1.1560   -0.9180  -10.2860 ha        1 P2F      0.163000
     97 HC          0.5300   -5.4890   -9.2010 ha        1 P2F      0.159000
     98 H6         -0.5720   -5.0660  -11.3890 ha        1 P2F      0.175000
     99 H81C       -2.2460   -3.0500  -13.9320 h1        1 P2F      0.068033
    100 H82C       -2.3710   -4.4230  -12.7080 h1        1 P2F      0.068033
    101 H83C       -0.7380   -3.9910  -13.4440 h1        1 P2F      0.068033
    102 H31         5.1330   -1.2050    4.0990 hn        1 P2F      0.484800
    103 H12         2.7780    0.8270   -1.5770 hn        1 P2F      0.482800
    104 H42         1.5950   -1.8150   -6.8210 hn        1 P2F      0.453800
@<TRIPOS>BOND
     1    1    2 2   
     2    2    3 1   
     3    2   26 1   
     4    3    4 ar  
     5    3    5 ar  
     6    4   16 ar  
     7    4   51 1   
     8    5    6 ar  
     9    5   52 1   
    10    6    7 1   
    11    6   15 ar  
    12    7    8 1   
    13    7   12 1   
    14    8    9 1   
    15    8   54 1   
    16    8   55 1   
    17    9   10 1   
    18    9   56 1   
    19    9   57 1   
    20   10   11 1   
    21   10   58 1   
    22   10   59 1   
    23   11   12 1   
    24   11   60 1   
    25   11   61 1   
    26   12   13 2   
    27   12   14 2   
    28   15   16 ar  
    29   15   53 1   
    30   16   17 1   
    31   17   18 1   
    32   17   25 2   
    33   18   19 1   
    34   18   22 1   
    35   18  102 1   
    36   19   20 1   
    37   19   62 1   
    38   19   63 1   
    39   20   21 1   
    40   20   66 1   
    41   20   67 1   
    42   21   68 1   
    43   21   69 1   
    44   21   70 1   
    45   22   23 1   
    46   22   64 1   
    47   22   65 1   
    48   23   24 1   
    49   23   71 1   
    50   23   72 1   
    51   24   73 1   
    52   24   74 1   
    53   24   75 1   
    54   26   27 1   
    55   26   50 1   
    56   26  103 1   
    57   27   28 1   
    58   27   35 1   
    59   27   76 1   
    60   28   29 1   
    61   28   77 1   
    62   28   78 1   
    63   29   30 ar  
    64   29   34 ar  
    65   30   31 ar  
    66   30   80 1   
    67   31   32 ar  
    68   31   82 1   
    69   32   33 ar  
    70   32   83 1   
    71   33   34 ar  
    72   33   84 1   
    73   34   81 1   
    74   35   36 1   
    75   35   37 1   
    76   35   79 1   
    77   36   85 1   
    78   37   38 1   
    79   37   86 1   
    80   37   87 1   
    81   38   39 1   
    82   38   88 1   
    83   38  104 1   
    84   39   40 1   
    85   39   41 1   
    86   39   42 1   
    87   40   89 1   
    88   40   90 1   
    89   40   91 1   
    90   41   92 1   
    91   41   93 1   
    92   41   94 1   
    93   42   43 ar  
    94   42   47 ar  
    95   43   44 ar  
    96   43   95 1   
    97   44   45 ar  
    98   44   97 1   
    99   45   46 ar  
   100   45   98 1   
   101   46   47 ar  
   102   46   48 1   
   103   47   96 1   
   104   48   49 1   
   105   49   99 1   
   106   49  100 1   
   107   49  101 1   
@<TRIPOS>SUBSTRUCTURE
     1 P2F         1 TEMP              0 ****  ****    0 ROOT
