@<TRIPOS>MOLECULE
P2F
  104   107     1     0     0
SMALL
bcc


@<TRIPOS>ATOM
      1 O3          0.9980   -1.7240   -1.4110 o         1 P2F     -0.430100
      2 C15         1.8720   -0.9680   -1.0060 c         1 P2F      0.576700
      3 C25         2.3550   -0.8240    0.3780 ca        1 P2F     -0.163600
      4 C24         3.6750   -0.4640    0.6770 ca        1 P2F     -0.078000
      5 C26         1.4350   -1.1340    1.3930 ca        1 P2F     -0.070000
      6 C27         1.7910   -0.9750    2.7550 ca        1 P2F      0.227600
      7 N2          1.0100   -1.3850    3.8230 nh        1 P2F     -0.639900
      8 C30        -0.4370   -1.4340    3.7270 c3        1 P2F      0.185800
      9 C31        -1.0120   -2.8130    4.0560 c3        1 P2F     -0.115400
     10 C32        -0.5950   -3.2780    5.4340 c3        1 P2F     -0.063400
     11 C29         0.9130   -3.3450    5.5740 c3        1 P2F     -0.329600
     12 S1          1.6960   -1.8770    5.2950 s6        1 P2F      1.437900
     13 O4          3.0820   -2.0780    5.0390 o         1 P2F     -0.646300
     14 O5          1.4240   -0.9200    6.2690 o         1 P2F     -0.646300
     15 C22         3.0710   -0.4170    3.0260 ca        1 P2F     -0.097000
     16 C23         4.0290   -0.3050    2.0210 ca        1 P2F     -0.136600
     17 C28         5.4390   -0.0290    2.3810 c         1 P2F      0.556700
     18 N3          5.9290   -0.6770    3.6540 nx        1 P2F     -0.590200
     19 C33         6.3720    0.3860    4.6220 c3        1 P2F      0.112800
     20 C34         6.7080   -0.1590    6.0060 c3        1 P2F     -0.102400
     21 C35         6.9740    0.9970    6.9410 c3        1 P2F     -0.104600
     22 C36         6.9970   -1.6980    3.3730 c3        1 P2F      0.112800
     23 C37         8.3610   -1.1470    2.9780 c3        1 P2F     -0.102400
     24 C38         9.2580   -2.2920    2.5730 c3        1 P2F     -0.104600
     25 O6          6.2160    0.6490    1.7210 o         1 P2F     -0.407100
     26 N1          2.4990   -0.0610   -2.0390 ny        1 P2F     -0.681800
     27 C11         1.5940    0.2800   -3.2010 c3        1 P2F      0.140500
     28 C14         2.0250    1.6200   -3.8240 c3        1 P2F     -0.053100
     29 C19         2.2370    2.6840   -2.8070 ca        1 P2F     -0.189300
     30 C20         3.5380    3.0640   -2.4500 ca        1 P2F     -0.131500
     31 C21         3.7390    4.1240   -1.5670 ca        1 P2F     -0.111000
     32 C16         2.6460    4.8100   -1.0350 ca        1 P2F     -0.084000
     33 C17         1.3480    4.4320   -1.3850 ca        1 P2F     -0.111000
     34 C18         1.1430    3.3750   -2.2700 ca        1 P2F     -0.131500
     35 C10         1.5720   -0.8690   -4.2520 c3        1 P2F      0.101100
     36 O2          2.9190   -1.1960   -4.5450 oh        1 P2F     -0.604800
     37 C9          0.8660   -0.3830   -5.5360 c3        1 P2F      0.073800
     38 N4          0.6660   -1.4580   -6.5350 ny        1 P2F     -0.776000
     39 C7         -0.0370   -1.0010   -7.8360 c3        1 P2F      0.231500
     40 C12        -1.4260   -0.4600   -7.4890 c3        1 P2F     -0.133100
     41 C13         0.8030    0.0900   -8.5030 c3        1 P2F     -0.133100
     42 C3         -0.1700   -2.1910   -8.7730 ca        1 P2F     -0.123300
     43 C2          0.2860   -3.4830   -8.4780 ca        1 P2F     -0.208000
     44 C1          0.1200   -4.5130   -9.4060 ca        1 P2F     -0.055000
     45 C6         -0.4950   -4.2860  -10.6320 ca        1 P2F     -0.169000
     46 C5         -0.9530   -2.9940  -10.9310 ca        1 P2F      0.176100
     47 C4         -0.7900   -1.9460  -10.0000 ca        1 P2F     -0.148000
     48 O1         -1.5740   -2.6280  -12.0930 os        1 P2F     -0.308900
     49 C8         -1.7620   -3.6500  -13.0770 c3        1 P2F      0.103700
     50 H1          2.7810    0.8290   -1.5850 hn        1 P2F      0.483300
     51 H24         4.4410   -0.3240   -0.1010 ha        1 P2F      0.157000
     52 H26         0.4350   -1.5150    1.1140 ha        1 P2F      0.185000
     53 H22         3.3140   -0.0870    4.0560 ha        1 P2F      0.180000
     54 H301       -0.8490   -0.6760    4.4620 h1        1 P2F      0.077700
     55 H302       -0.7890   -1.1240    2.7050 h1        1 P2F      0.077700
     56 H311       -0.7000   -3.5640    3.2840 hc        1 P2F      0.079200
     57 H312       -2.1320   -2.7330    4.0170 hc        1 P2F      0.079200
     58 H321       -1.0140   -2.5870    6.2180 hc        1 P2F      0.092700
     59 H322       -1.0320   -4.2940    5.6310 hc        1 P2F      0.092700
     60 H291        1.1350   -3.7040    6.6240 h1        1 P2F      0.152200
     61 H292        1.2970   -4.1710    4.9140 h1        1 P2F      0.152200
     62 H331        7.2660    0.9090    4.1770 hx        1 P2F      0.103200
     63 H332        5.5250    1.1270    4.7060 hx        1 P2F      0.103200
     64 H361        7.1060   -2.3110    4.3170 hx        1 P2F      0.103200
     65 H362        6.6040   -2.3660    2.5540 hx        1 P2F      0.103200
     66 H341        7.6170   -0.8140    5.9520 hc        1 P2F      0.072950
     67 H342        5.8590   -0.7770    6.4040 hc        1 P2F      0.072950
     68 H351        7.8190    1.6270    6.5710 hc        1 P2F      0.064533
     69 H352        6.0680    1.6410    7.0530 hc        1 P2F      0.064533
     70 H353        7.2490    0.6010    7.9510 hc        1 P2F      0.064533
     71 H371        8.2670   -0.4190    2.1280 hc        1 P2F      0.072950
     72 H372        8.8230   -0.6030    3.8450 hc        1 P2F      0.072950
     73 H381        8.8510   -2.8270    1.6820 hc        1 P2F      0.064533
     74 H382       10.2720   -1.8950    2.3130 hc        1 P2F      0.064533
     75 H383        9.3750   -3.0250    3.4080 hc        1 P2F      0.064533
     76 H11         0.5480    0.3840   -2.7810 hx        1 P2F      0.120700
     77 H141        1.2030    1.9450   -4.5210 hc        1 P2F      0.093700
     78 H142        2.9570    1.4640   -4.4340 hc        1 P2F      0.093700
     79 H10         1.0240   -1.7500   -3.8060 h1        1 P2F      0.090700
     80 H20         4.4070    2.5670   -2.9090 ha        1 P2F      0.137500
     81 H18         0.1180    3.1060   -2.5690 ha        1 P2F      0.137500
     82 H21         4.7650    4.4390   -1.3120 ha        1 P2F      0.167500
     83 H16         2.8070    5.6650   -0.3560 ha        1 P2F      0.172000
     84 H17         0.4840    4.9870   -0.9820 ha        1 P2F      0.167500
     85 H2          2.9790   -2.1470   -4.7120 ho        1 P2F      0.444000
     86 H91C       -0.1400    0.0490   -5.2640 hx        1 P2F      0.128700
     87 H92C        1.4990    0.4170   -6.0240 hx        1 P2F      0.128700
     88 H4          1.5800   -1.8420   -6.8080 hn        1 P2F      0.453300
     89 H121       -1.3630    0.5000   -6.9230 hc        1 P2F      0.081700
     90 H122       -2.0300   -1.2030   -6.9130 hc        1 P2F      0.081700
     91 H123       -1.9730   -0.2530   -8.4460 hc        1 P2F      0.081700
     92 H131        1.8580   -0.2390   -8.6670 hc        1 P2F      0.081700
     93 H132        0.3610    0.3110   -9.5100 hc        1 P2F      0.081700
     94 H133        0.7880    1.0380   -7.9130 hc        1 P2F      0.081700
     95 HA          0.7820   -3.7500   -7.5360 ha        1 P2F      0.095000
     96 HB         -1.1650   -0.9500  -10.2810 ha        1 P2F      0.163000
     97 HC          0.4840   -5.5260   -9.1620 ha        1 P2F      0.159000
     98 H6         -0.6170   -5.1110  -11.3520 ha        1 P2F      0.175000
     99 H81C       -2.2760   -3.1010  -13.9090 h1        1 P2F      0.068033
    100 H82C       -2.4120   -4.4630  -12.6750 h1        1 P2F      0.068033
    101 H83C       -0.7760   -4.0510  -13.4150 h1        1 P2F      0.068033
    102 H31         5.1430   -1.1950    4.0940 hn        1 P2F      0.484800
    103 H12         3.3450   -0.5130   -2.4170 hn        1 P2F      0.483300
    104 H42         0.0950   -2.2120   -6.1360 hn        1 P2F      0.453300
@<TRIPOS>BOND
     1    1    2 2   
     2    2    3 1   
     3    2   26 1   
     4    3    4 ar  
     5    3    5 ar  
     6    4   16 ar  
     7    4   51 1   
     8    5    6 ar  
     9    5   52 1   
    10    6    7 1   
    11    6   15 ar  
    12    7    8 1   
    13    7   12 1   
    14    8    9 1   
    15    8   54 1   
    16    8   55 1   
    17    9   10 1   
    18    9   56 1   
    19    9   57 1   
    20   10   11 1   
    21   10   58 1   
    22   10   59 1   
    23   11   12 1   
    24   11   60 1   
    25   11   61 1   
    26   12   13 2   
    27   12   14 2   
    28   15   16 ar  
    29   15   53 1   
    30   16   17 1   
    31   17   18 1   
    32   17   25 2   
    33   18   19 1   
    34   18   22 1   
    35   18  102 1   
    36   19   20 1   
    37   19   62 1   
    38   19   63 1   
    39   20   21 1   
    40   20   66 1   
    41   20   67 1   
    42   21   68 1   
    43   21   69 1   
    44   21   70 1   
    45   22   23 1   
    46   22   64 1   
    47   22   65 1   
    48   23   24 1   
    49   23   71 1   
    50   23   72 1   
    51   24   73 1   
    52   24   74 1   
    53   24   75 1   
    54   26   27 1   
    55   26   50 1   
    56   26  103 1   
    57   27   28 1   
    58   27   35 1   
    59   27   76 1   
    60   28   29 1   
    61   28   77 1   
    62   28   78 1   
    63   29   30 ar  
    64   29   34 ar  
    65   30   31 ar  
    66   30   80 1   
    67   31   32 ar  
    68   31   82 1   
    69   32   33 ar  
    70   32   83 1   
    71   33   34 ar  
    72   33   84 1   
    73   34   81 1   
    74   35   36 1   
    75   35   37 1   
    76   35   79 1   
    77   36   85 1   
    78   37   38 1   
    79   37   86 1   
    80   37   87 1   
    81   38   39 1   
    82   38   88 1   
    83   38  104 1   
    84   39   40 1   
    85   39   41 1   
    86   39   42 1   
    87   40   89 1   
    88   40   90 1   
    89   40   91 1   
    90   41   92 1   
    91   41   93 1   
    92   41   94 1   
    93   42   43 ar  
    94   42   47 ar  
    95   43   44 ar  
    96   43   95 1   
    97   44   45 ar  
    98   44   97 1   
    99   45   46 ar  
   100   45   98 1   
   101   46   47 ar  
   102   46   48 1   
   103   47   96 1   
   104   48   49 1   
   105   49   99 1   
   106   49  100 1   
   107   49  101 1   
@<TRIPOS>SUBSTRUCTURE
     1 P2F         1 TEMP              0 ****  ****    0 ROOT
