@<TRIPOS>MOLECULE
P2G
   37    40     1     0     0
SMALL
bcc


@<TRIPOS>ATOM
      1 O6         -0.1800    0.1380   -0.6300 o         1 P2G     -0.652500
      2 C6          1.0620    0.1140   -0.5460 c         1 P2G      0.648000
      3 N1          1.6230   -0.0610    0.7430 n         1 P2G     -0.502400
      4 C2          3.0180   -0.0580    0.9740 cc        1 P2G      0.621800
      5 N2          3.4350   -0.1370    2.3450 nh        1 P2G     -0.868800
      6 N3          3.9470    0.0580    0.0110 nd        1 P2G     -0.595100
      7 C4          3.4450    0.1960   -1.2720 cd        1 P2G      0.093800
      8 C5          2.0370    0.2360   -1.6080 cc        1 P2G      0.171800
      9 N7          1.8800    0.3800   -2.9860 nc        1 P2G     -0.627000
     10 C8          3.1400    0.4140   -3.4740 cd        1 P2G      0.399400
     11 N9          4.1330    0.3090   -2.4780 na        1 P2G     -0.177900
     12 C1'         5.5850    0.2570   -2.6340 c3        1 P2G      0.203800
     13 O4'         5.9330    0.8440   -3.8910 os        1 P2G     -0.445600
     14 C2'         6.1880   -1.1820   -2.5790 c3        1 P2G      0.095100
     15 O2'         7.2840   -1.2340   -1.6870 os        1 P2G     -0.356600
     16 C1          8.4890   -1.0820   -2.4220 c3        1 P2G      0.226700
     17 P           9.7430   -2.2420   -1.6350 p5        1 P2G      1.187700
     18 O3         10.9190   -2.0310   -2.5490 o         1 P2G     -0.925833
     19 O4          9.8750   -1.6130   -0.2740 o         1 P2G     -0.925833
     20 O2          9.0880   -3.5930   -1.6840 o         1 P2G     -0.925833
     21 O3'         8.1960   -1.6020   -3.7080 os        1 P2G     -0.363600
     22 C3'         6.8150   -1.4110   -3.9780 c3        1 P2G      0.094100
     23 C4'         6.5420   -0.1230   -4.7700 c3        1 P2G      0.060100
     24 C5'         5.6060   -0.3610   -5.9510 c3        1 P2G      0.112400
     25 O5'         5.1590    0.8430   -6.5510 oh        1 P2G     -0.627800
     26 HN1         0.9970   -0.1200    1.5130 hn        1 P2G      0.324500
     27 HN21        3.1530   -1.0070    2.7540 hn        1 P2G      0.399800
     28 HN22        4.4290   -0.0150    2.4320 hn        1 P2G      0.399800
     29 H8          3.4170    0.5220   -4.5300 h5        1 P2G      0.072100
     30 H1'         6.0410    0.9130   -1.8340 h2        1 P2G      0.123700
     31 H2'         5.4540   -1.9540   -2.2510 h1        1 P2G      0.084700
     32 H1          8.7710   -0.0060   -2.4890 h2        1 P2G      0.003700
     33 H3'         6.4560   -2.3210   -4.5110 h1        1 P2G      0.074700
     34 H4'         7.5010    0.3560   -5.1070 h1        1 P2G      0.101700
     35 H5'1        4.7040   -0.9500   -5.6270 h1        1 P2G      0.042200
     36 H5'2        6.1450   -0.9200   -6.7600 h1        1 P2G      0.042200
     37 H5'         5.1000    1.5100   -5.8540 ho        1 P2G      0.411000
@<TRIPOS>BOND
     1    1    2 2   
     2    2    3 1   
     3    2    8 1   
     4    3    4 1   
     5    3   26 1   
     6    4    5 1   
     7    4    6 2   
     8    5   27 1   
     9    5   28 1   
    10    6    7 1   
    11    7    8 2   
    12    7   11 1   
    13    8    9 1   
    14    9   10 2   
    15   10   11 1   
    16   10   29 1   
    17   11   12 1   
    18   12   13 1   
    19   12   14 1   
    20   12   30 1   
    21   13   23 1   
    22   14   15 1   
    23   14   22 1   
    24   14   31 1   
    25   15   16 1   
    26   16   17 1   
    27   16   21 1   
    28   16   32 1   
    29   17   18 1   
    30   17   19 1   
    31   17   20 1   
    32   21   22 1   
    33   22   23 1   
    34   22   33 1   
    35   23   24 1   
    36   23   34 1   
    37   24   25 1   
    38   24   35 1   
    39   24   36 1   
    40   25   37 1   
@<TRIPOS>SUBSTRUCTURE
     1 P2G         1 TEMP              0 ****  ****    0 ROOT
