@<TRIPOS>MOLECULE
P2G
   37    40     1     0     0
SMALL
bcc


@<TRIPOS>ATOM
      1 O6         -5.8830   -0.5890    0.6250 o         1 P2G     -0.652500
      2 C6         -4.7710   -0.1530    0.2730 c         1 P2G      0.648000
      3 N1         -4.6720    1.2360    0.0080 n         1 P2G     -0.502400
      4 C2         -3.4770    1.8420   -0.4440 cc        1 P2G      0.621800
      5 N2         -3.5580    3.2360   -0.7730 nh        1 P2G     -0.868800
      6 N3         -2.3160    1.1920   -0.6210 nd        1 P2G     -0.595100
      7 C4         -2.3560   -0.1630   -0.3400 cd        1 P2G      0.093800
      8 C5         -3.5340   -0.8820    0.0970 cc        1 P2G      0.171800
      9 N7         -3.2270   -2.2280    0.2920 nc        1 P2G     -0.627000
     10 C8         -1.9110   -2.3260   -0.0020 cd        1 P2G      0.399400
     11 N9         -1.3290   -1.1030   -0.3960 na        1 P2G     -0.177900
     12 C1'         0.0640   -0.8190   -0.7330 c3        1 P2G      0.203800
     13 O4'         0.7000   -2.0390   -1.1220 os        1 P2G     -0.445600
     14 C2'         0.8900   -0.1810    0.4280 c3        1 P2G      0.095100
     15 O2'         1.5930    0.9610   -0.0240 os        1 P2G     -0.356600
     16 C1          2.9200    0.5870   -0.3610 c3        1 P2G      0.226700
     17 P           4.0290    1.9990    0.2000 p5        1 P2G      1.187700
     18 O3          5.3810    1.4360   -0.1480 o         1 P2G     -0.925833
     19 O4          3.5460    3.0980   -0.7070 o         1 P2G     -0.925833
     20 O2          3.7250    2.1580    1.6620 o         1 P2G     -0.925833
     21 O3'         3.2070   -0.5210    0.4750 os        1 P2G     -0.363600
     22 C3'         1.9990   -1.2150    0.7500 c3        1 P2G      0.094100
     23 C4'         1.7620   -2.3890   -0.2110 c3        1 P2G      0.060100
     24 C5'         1.3660   -3.6660    0.5240 c3        1 P2G      0.112400
     25 O5'         0.9210   -4.6900   -0.3490 oh        1 P2G     -0.627800
     26 HN1        -5.5010    1.7790    0.0860 hn        1 P2G      0.324500
     27 HN21       -2.7050    3.5630   -1.1920 hn        1 P2G      0.399800
     28 HN22       -3.7810    3.7820    0.0370 hn        1 P2G      0.399800
     29 H8         -1.3120   -3.2440    0.0360 h5        1 P2G      0.072100
     30 H1'         0.0680   -0.1470   -1.6430 h2        1 P2G      0.123700
     31 H2'         0.2630    0.1350    1.2930 h1        1 P2G      0.084700
     32 H1          2.9810    0.2950   -1.4350 h2        1 P2G      0.003700
     33 H3'         2.0430   -1.5410    1.8150 h1        1 P2G      0.074700
     34 H4'         2.6590   -2.5640   -0.8660 h1        1 P2G      0.101700
     35 H5'1        2.2570   -4.0900    1.0580 h1        1 P2G      0.042200
     36 H5'2        0.5500   -3.4550    1.2670 h1        1 P2G      0.042200
     37 H5'         0.4870   -4.2630   -1.0990 ho        1 P2G      0.411000
@<TRIPOS>BOND
     1    1    2 2   
     2    2    3 1   
     3    2    8 1   
     4    3    4 1   
     5    3   26 1   
     6    4    5 1   
     7    4    6 2   
     8    5   27 1   
     9    5   28 1   
    10    6    7 1   
    11    7    8 2   
    12    7   11 1   
    13    8    9 1   
    14    9   10 2   
    15   10   11 1   
    16   10   29 1   
    17   11   12 1   
    18   12   13 1   
    19   12   14 1   
    20   12   30 1   
    21   13   23 1   
    22   14   15 1   
    23   14   22 1   
    24   14   31 1   
    25   15   16 1   
    26   16   17 1   
    27   16   21 1   
    28   16   32 1   
    29   17   18 1   
    30   17   19 1   
    31   17   20 1   
    32   21   22 1   
    33   22   23 1   
    34   22   33 1   
    35   23   24 1   
    36   23   34 1   
    37   24   25 1   
    38   24   35 1   
    39   24   36 1   
    40   25   37 1   
@<TRIPOS>SUBSTRUCTURE
     1 P2G         1 TEMP              0 ****  ****    0 ROOT
