@<TRIPOS>MOLECULE
P2G
   37    33     1     0     0
SMALL
bcc


@<TRIPOS>ATOM
      1 O6         -5.0510   -0.0370    2.3780 o         1 P2G     -0.370000
      2 C6         -3.8960    0.2050    2.3910 c1        1 P2G      0.395000
      3 N1         -3.3810    0.9250    3.3860 n2        1 P2G     -0.340000
      4 C2         -2.0650    1.2910    3.3550 c1        1 P2G      0.171000
      5 N2         -1.5280    2.0190    4.4180 n2        1 P2G     -0.308000
      6 N3         -1.2750    0.9190    2.3020 n2        1 P2G     -0.186000
      7 C4         -1.7990    0.1840    1.2850 c1        1 P2G      0.045000
      8 C5         -3.0960   -0.1760    1.3180 c1        1 P2G     -0.240000
      9 N7         -3.3850   -0.8330    0.1410 n1        1 P2G     -0.111500
     10 C8         -2.2490   -0.8690   -0.6110 c1        1 P2G     -0.077000
     11 N9         -1.2670   -0.2470    0.0820 n1        1 P2G     -0.111500
     12 C1'         0.0360    0.0180   -0.4100 c2        1 P2G      0.103000
     13 O4'        -0.0470    0.8530   -1.7370 os        1 P2G     -0.296000
     14 C2'         0.6500   -1.1420   -0.7360 c3        1 P2G     -0.019000
     15 O2'         1.4510   -1.5200    0.1810 os        1 P2G     -0.215000
     16 C1          2.7960   -0.8210   -0.0960 c3        1 P2G     -0.362000
     17 P           4.0690   -1.7090    0.6620 p5        1 P2G      1.594500
     18 O3          5.4090   -1.2450    0.1140 o         1 P2G     -0.925500
     19 O4          4.0270   -1.4760    2.1300 o         1 P2G     -0.925500
     20 O2          3.8880   -3.2180    0.3740 o         1 P2G     -0.925500
     21 O3'         2.8600   -0.8070   -1.4480 os        1 P2G     -0.218000
     22 C3'         1.5000   -0.8230   -1.9070 c3        1 P2G     -0.019000
     23 C4'         1.0570    0.6040   -2.3850 c3        1 P2G     -0.054000
     24 C5'         0.7980    0.6010   -3.9100 c3        1 P2G     -0.031000
     25 O5'         0.6500    1.9550   -4.3760 oh        1 P2G     -0.349000
     26 HN1        -3.9320    1.2400    4.0610 hn        1 P2G      0.238000
     27 HN21       -0.6720    2.3640    4.3550 hn        1 P2G      0.188000
     28 HN22       -2.0280    2.1960    5.1330 hn        1 P2G      0.188000
     29 H8         -2.1630   -1.2600   -1.5530 DU        1 P2G      0.210000
     30 H1'         0.5720    0.5140    0.2810 h4        1 P2G      0.170000
     31 H2'         0.0130   -1.8280   -0.9470 h1        1 P2G      0.118000
     32 H1          2.9370    0.0730    0.2740 h2        1 P2G      0.045000
     33 H3'         1.3780   -1.4770   -2.6080 h1        1 P2G      0.111000
     34 H4'         1.7580    1.2810   -2.1530 h1        1 P2G      0.142000
     35 H5'1       -0.0020    0.1100   -4.0960 h1        1 P2G      0.076500
     36 H5'2        1.5470    0.1820   -4.3650 h1        1 P2G      0.076500
     37 H5'         0.4430    1.9500   -5.2790 ho        1 P2G      0.211000
@<TRIPOS>BOND
     1    1    2 1   
     2    2    8 1   
     3    3    4 1   
     4    3   26 1   
     5    4    6 1   
     6    5   27 1   
     7    5   28 1   
     8    6    7 1   
     9    9   10 1   
    10   10   11 1   
    11   12   13 1   
    12   12   14 1   
    13   12   30 1   
    14   13   23 1   
    15   14   15 1   
    16   14   22 1   
    17   14   31 1   
    18   15   16 1   
    19   16   17 1   
    20   16   21 1   
    21   16   32 1   
    22   17   18 1   
    23   17   19 1   
    24   17   20 1   
    25   21   22 1   
    26   22   23 1   
    27   22   33 1   
    28   23   24 1   
    29   23   34 1   
    30   24   25 1   
    31   24   35 1   
    32   24   36 1   
    33   25   37 1   
@<TRIPOS>SUBSTRUCTURE
     1 P2G         1 TEMP              0 ****  ****    0 ROOT
