@<TRIPOS>MOLECULE
P2G
   37    40     1     0     0
SMALL
bcc


@<TRIPOS>ATOM
      1 O6         -0.1780    0.1680   -0.6450 o         1 P2G     -0.652500
      2 C6          1.0640    0.1430   -0.5590 c         1 P2G      0.648000
      3 N1          1.6230   -0.0170    0.7330 ns        1 P2G     -0.502400
      4 C2          3.0180   -0.0130    0.9650 cc        1 P2G      0.621800
      5 N2          3.4340   -0.0750    2.3370 nv        1 P2G     -0.868800
      6 N3          3.9480    0.0900    0.0020 nd        1 P2G     -0.595100
      7 C4          3.4470    0.2120   -1.2830 cd        1 P2G      0.093800
      8 C5          2.0400    0.2500   -1.6210 cc        1 P2G      0.171800
      9 N7          1.8840    0.3770   -3.0010 nc        1 P2G     -0.627000
     10 C8          3.1450    0.4030   -3.4880 cd        1 P2G      0.399400
     11 N9          4.1370    0.3090   -2.4900 na        1 P2G     -0.177900
     12 C1'         5.5880    0.2530   -2.6440 c3        1 P2G      0.203800
     13 O4'         5.9390    0.8240   -3.9080 os        1 P2G     -0.445600
     14 C2'         6.1890   -1.1870   -2.5700 c3        1 P2G      0.095100
     15 O2'         7.2850   -1.2280   -1.6770 os        1 P2G     -0.356600
     16 C1          8.4910   -1.0880   -2.4120 c3        1 P2G      0.226700
     17 P           9.7420   -2.2390   -1.6090 p5        1 P2G      1.187700
     18 O3         10.9200   -2.0410   -2.5240 o         1 P2G     -0.925833
     19 O4          9.8730   -1.5940   -0.2560 o         1 P2G     -0.925833
     20 O2          9.0850   -3.5900   -1.6430 o         1 P2G     -0.925833
     21 O3'         8.1980   -1.6230   -3.6920 os        1 P2G     -0.363600
     22 C3'         6.8180   -1.4330   -3.9650 c3        1 P2G      0.094100
     23 C4'         6.5470   -0.1550   -4.7740 c3        1 P2G      0.060100
     24 C5'         5.6120   -0.4060   -5.9530 c3        1 P2G      0.112400
     25 O5'         5.1680    0.7910   -6.5680 oh        1 P2G     -0.627800
     26 HN1         0.9960   -0.0660    1.5030 hn        1 P2G      0.324500
     27 HN21        4.4270    0.0470    2.4240 hn        1 P2G      0.399800
     28 HN22        3.1500   -0.9390    2.7570 hn        1 P2G      0.399800
     29 H8          3.4230    0.4970   -4.5460 h5        1 P2G      0.072100
     30 H1'         6.0450    0.9190   -1.8510 h2        1 P2G      0.123700
     31 H2'         5.4550   -1.9530   -2.2330 h1        1 P2G      0.084700
     32 H1          8.7740   -0.0130   -2.4920 h2        1 P2G      0.003700
     33 H3'         6.4580   -2.3500   -4.4880 h1        1 P2G      0.074700
     34 H4'         7.5080    0.3190   -5.1150 h1        1 P2G      0.101700
     35 H5'1        4.7100   -0.9900   -5.6220 h1        1 P2G      0.042200
     36 H5'2        6.1520   -0.9760   -6.7540 h1        1 P2G      0.042200
     37 H5'         5.1090    1.4660   -5.8800 ho        1 P2G      0.411000
@<TRIPOS>BOND
     1    1    2 2   
     2    2    3 1   
     3    2    8 1   
     4    3    4 1   
     5    3   26 1   
     6    4    5 1   
     7    4    6 2   
     8    5   27 1   
     9    5   28 1   
    10    6    7 1   
    11    7    8 2   
    12    7   11 1   
    13    8    9 1   
    14    9   10 2   
    15   10   11 1   
    16   10   29 1   
    17   11   12 1   
    18   12   13 1   
    19   12   14 1   
    20   12   30 1   
    21   13   23 1   
    22   14   15 1   
    23   14   22 1   
    24   14   31 1   
    25   15   16 1   
    26   16   17 1   
    27   16   21 1   
    28   16   32 1   
    29   17   18 1   
    30   17   19 1   
    31   17   20 1   
    32   21   22 1   
    33   22   23 1   
    34   22   33 1   
    35   23   24 1   
    36   23   34 1   
    37   24   25 1   
    38   24   35 1   
    39   24   36 1   
    40   25   37 1   
@<TRIPOS>SUBSTRUCTURE
     1 P2G         1 TEMP              0 ****  ****    0 ROOT
