@<TRIPOS>MOLECULE
P2H
   35    36     1     0     0
SMALL
bcc


@<TRIPOS>ATOM
      1 C7         -0.9680    0.3860   -0.5530 c3        1 P2H     -0.041000
      2 C8         -2.1470   -0.1410    0.1610 c2        1 P2H     -1.199000
      3 P9         -2.4290   -1.7330    0.2420 p5        1 P2H      2.084000
      4 O10        -0.7860   -2.1990    0.6760 os        1 P2H     -0.714000
      5 O11        -3.1540   -2.2210    1.4430 o         1 P2H     -0.896500
      6 N12         0.3060   -0.3590   -0.3640 n3        1 P2H     -0.161000
      7 O12        -2.5520   -2.5030   -1.0240 o         1 P2H     -0.896500
      8 C13         0.1290   -1.8490   -0.2850 c3        1 P2H      0.216000
      9 O13        -2.4470    0.5380    1.3410 oh        1 P2H     -0.258000
     10 C14         1.4460   -2.5440   -0.0400 c2        1 P2H     -0.235000
     11 P14        -3.2620    1.6790   -0.7700 p3        1 P2H      2.552000
     12 C15         2.6260   -1.9030    0.0090 c2        1 P2H     -0.090000
     13 O15        -2.5080    2.8030   -0.1390 o         1 P2H     -1.204000
     14 C16         2.7290   -0.4700   -0.1420 c2        1 P2H     -0.349000
     15 O16        -2.9040    1.4570   -2.2030 o         1 P2H     -1.204000
     16 C17         1.4830    0.2220   -0.2700 c2        1 P2H      0.097000
     17 O17        -4.6910    1.5010   -0.4040 o         1 P2H     -1.204000
     18 C18         3.9690    0.2040   -0.1540 ca        1 P2H      0.130000
     19 C19         5.2030   -0.4990   -0.2700 ca        1 P2H     -0.225500
     20 C20         6.4210    0.1590   -0.2780 ca        1 P2H     -0.102500
     21 C21         6.4910    1.5490   -0.1790 ca        1 P2H     -0.281000
     22 C22         5.2970    2.2670   -0.0700 ca        1 P2H     -0.102500
     23 C23         4.0730    1.6220   -0.0540 ca        1 P2H     -0.225500
     24 H7         -1.1620    0.3630   -1.6740 h1        1 P2H      0.139000
     25 H7A        -0.7870    1.4630   -0.2490 h1        1 P2H      0.139000
     26 H13        -0.2810   -2.1360   -1.3130 h2        1 P2H      0.109000
     27 HO13       -1.9980    0.0610    2.0560 ho        1 P2H      0.128000
     28 H14         1.3490   -3.6220    0.1360 ha        1 P2H      0.110000
     29 H15         3.5500   -2.4690    0.2020 ha        1 P2H      0.076000
     30 H17         1.4850    1.3300   -0.3430 h4        1 P2H      0.132000
     31 H19         5.1900   -1.5910   -0.3720 ha        1 P2H      0.117000
     32 H20         7.3510   -0.4230   -0.3700 ha        1 P2H      0.080500
     33 H21         7.4570    2.0650   -0.1880 ha        1 P2H      0.081000
     34 H22         5.3320    3.3630    0.0110 ha        1 P2H      0.080500
     35 H23         3.1590    2.2240    0.0500 ha        1 P2H      0.117000
@<TRIPOS>BOND
     1    1    2 1   
     2    1    6 1   
     3    1   24 1   
     4    1   25 1   
     5    2    3 1   
     6    2    9 1   
     7    3    4 1   
     8    3    5 1   
     9    3    7 1   
    10    4    8 1   
    11    6    8 1   
    12    6   16 1   
    13    8   10 1   
    14    8   26 1   
    15    9   27 1   
    16   10   12 1   
    17   10   28 1   
    18   11   13 1   
    19   11   15 1   
    20   11   17 1   
    21   12   14 1   
    22   12   29 1   
    23   14   16 1   
    24   14   18 1   
    25   16   30 1   
    26   18   19 1   
    27   18   23 1   
    28   19   20 1   
    29   19   31 1   
    30   20   21 1   
    31   20   32 1   
    32   21   22 1   
    33   21   33 1   
    34   22   23 1   
    35   22   34 1   
    36   23   35 1   
@<TRIPOS>SUBSTRUCTURE
     1 P2H         1 TEMP              0 ****  ****    0 ROOT
