@<TRIPOS>MOLECULE
P2H
   35    36     1     0     0
SMALL
bcc


@<TRIPOS>ATOM
      1 C7          0.7370   -0.3300   -0.2400 c3        1 P2H     -0.011000
      2 C8          1.7900    0.3730    0.5140 c2        1 P2H     -1.213000
      3 P9          1.7070    0.4710    2.1360 p5        1 P2H      2.087000
      4 O10         1.2860   -1.2020    2.4560 os        1 P2H     -0.706000
      5 O11         2.9790    0.6480    2.8810 o         1 P2H     -0.900000
      6 N12         0.1910   -1.5700    0.3730 n3        1 P2H     -0.160000
      7 O12         0.4800    1.0850    2.7200 o         1 P2H     -0.900000
      8 C13         0.0910   -1.5440    1.8720 c3        1 P2H      0.214000
      9 O13         3.0850   -0.0480    0.1120 oh        1 P2H     -0.339000
     10 C14        -0.4000   -2.8650    2.4130 c2        1 P2H     -0.230000
     11 P14         1.8590    1.8480   -1.1720 p3        1 P2H      2.544000
     12 C15        -0.7950   -3.8850    1.6340 c2        1 P2H     -0.093000
     13 O15         1.9160    0.9690   -2.3820 o         1 P2H     -1.207000
     14 C16        -0.7460   -3.8120    0.1910 c2        1 P2H     -0.347000
     15 O16         0.5730    2.5860   -1.0290 o         1 P2H     -1.207000
     16 C17        -0.1660   -2.6190   -0.3410 c2        1 P2H      0.102000
     17 O17         3.1270    2.5380   -0.7990 o         1 P2H     -1.207000
     18 C18        -1.2270   -4.8500   -0.6370 ca        1 P2H      0.130000
     19 C19        -2.0180   -5.9150   -0.1180 ca        1 P2H     -0.225500
     20 C20        -2.4910   -6.9350   -0.9260 ca        1 P2H     -0.102500
     21 C21        -2.2140   -6.9590   -2.2940 ca        1 P2H     -0.280000
     22 C22        -1.4440   -5.9240   -2.8320 ca        1 P2H     -0.102500
     23 C23        -0.9610   -4.9010   -2.0360 ca        1 P2H     -0.225500
     24 H7          1.1270   -0.6090   -1.2690 h1        1 P2H      0.128500
     25 H7A        -0.1560    0.3590   -0.3670 h1        1 P2H      0.128500
     26 H13        -0.6770   -0.7240    2.0850 h2        1 P2H      0.116000
     27 HO13        3.6230    0.7580    0.1830 ho        1 P2H      0.214000
     28 H14        -0.3690   -2.9300    3.5070 ha        1 P2H      0.111000
     29 H15        -1.1350   -4.8270    2.0910 ha        1 P2H      0.076000
     30 H17        -0.0400   -2.5240   -1.4400 h4        1 P2H      0.132000
     31 H19        -2.2760   -5.9210    0.9490 ha        1 P2H      0.117500
     32 H20        -3.1000   -7.7380   -0.4840 ha        1 P2H      0.080000
     33 H21        -2.5910   -7.7660   -2.9290 ha        1 P2H      0.081000
     34 H22        -1.2150   -5.9270   -3.9080 ha        1 P2H      0.080000
     35 H23        -0.3450   -4.1180   -2.4970 ha        1 P2H      0.117500
@<TRIPOS>BOND
     1    1    2 1   
     2    1    6 1   
     3    1   24 1   
     4    1   25 1   
     5    2    3 1   
     6    2    9 1   
     7    3    4 1   
     8    3    5 1   
     9    3    7 1   
    10    4    8 1   
    11    6    8 1   
    12    6   16 1   
    13    8   10 1   
    14    8   26 1   
    15    9   27 1   
    16   10   12 1   
    17   10   28 1   
    18   11   13 1   
    19   11   15 1   
    20   11   17 1   
    21   12   14 1   
    22   12   29 1   
    23   14   16 1   
    24   14   18 1   
    25   16   30 1   
    26   18   19 1   
    27   18   23 1   
    28   19   20 1   
    29   19   31 1   
    30   20   21 1   
    31   20   32 1   
    32   21   22 1   
    33   21   33 1   
    34   22   23 1   
    35   22   34 1   
    36   23   35 1   
@<TRIPOS>SUBSTRUCTURE
     1 P2H         1 TEMP              0 ****  ****    0 ROOT
