@<TRIPOS>MOLECULE
P2H
   35    35     1     0     0
SMALL
bcc


@<TRIPOS>ATOM
      1 C7       -100.5190  -48.6260 -141.2870 c3        1 P2H     -0.036000
      2 C8        -99.9590  -49.6560 -142.2920 c2        1 P2H     -0.349000
      3 P9        758.9380  349.0990    0.3470 p3        1 P2H      2.361000
      4 O10       758.8690  347.7240    0.8710 o         1 P2H     -1.120000
      5 O11       760.0640  349.5050    0.4880 o         1 P2H     -1.120000
      6 N12       -99.6030  -47.5310 -140.9810 na        1 P2H      0.066000
      7 O12       757.8800  350.0690    0.6820 o         1 P2H     -1.120000
      8 C13      -100.0620  -46.2280 -141.1380 c2        1 P2H     -0.485000
      9 O13       -99.2460  -50.5770 -141.5010 oh        1 P2H     -0.341000
     10 C14       -99.1920  -45.1580 -140.8000 c2        1 P2H     -0.078000
     11 P14      -100.8640  -50.0810 -144.3770 p3        1 P2H      2.553000
     12 C15       -97.9540  -45.3790 -140.2880 c2        1 P2H     -0.219000
     13 O15      -101.0750  -50.4170 -142.8460 os        1 P2H     -0.768000
     14 C16       -97.4740  -46.7390 -140.0540 c2        1 P2H     -0.247000
     15 O16      -101.7910  -49.1260 -144.9670 o         1 P2H     -1.085500
     16 C17       -98.3860  -47.7740 -140.4900 c2        1 P2H     -0.028000
     17 O17      -100.0440  -50.9850 -145.1720 o         1 P2H     -1.085500
     18 C18       -96.2630  -47.0300 -139.4450 ca        1 P2H      0.056000
     19 C19       -95.3680  -46.0000 -138.9830 ca        1 P2H     -0.264500
     20 C20       -94.1680  -46.2910 -138.3780 ca        1 P2H     -0.078000
     21 C21       -93.7460  -47.6110 -138.1750 ca        1 P2H     -0.373000
     22 C22       -94.5930  -48.6390 -138.6120 ca        1 P2H     -0.078000
     23 C23       -95.7980  -48.3750 -139.2190 ca        1 P2H     -0.264500
     24 H7       -100.7650  -49.1360 -140.3110 h1        1 P2H      0.070000
     25 H7A      -101.4710  -48.1890 -141.6930 h1        1 P2H      0.070000
     26 H13      -101.0460  -46.0820 -141.5810 h4        1 P2H      0.118000
     27 HO13      -98.5360  -50.9020 -142.0640 ho        1 P2H      0.176000
     28 H14       -99.5670  -44.1400 -140.9780 ha        1 P2H      0.069000
     29 H15       -97.2900  -44.5410 -140.0510 ha        1 P2H      0.085000
     30 H17       -98.0990  -48.8410 -140.4260 h4        1 P2H      0.151000
     31 H19       -95.6560  -44.9500 -139.1160 ha        1 P2H      0.090000
     32 H20       -93.5170  -45.4690 -138.0410 ha        1 P2H      0.057500
     33 H21       -92.7900  -47.8330 -137.6950 ha        1 P2H      0.069000
     34 H22       -94.2800  -49.6840 -138.4630 ha        1 P2H      0.057500
     35 H23       -96.4240  -49.2150 -139.5440 ha        1 P2H      0.090000
@<TRIPOS>BOND
     1    1    2 1   
     2    1    6 1   
     3    1   24 1   
     4    1   25 1   
     5    2    9 1   
     6    2   13 1   
     7    3    4 1   
     8    3    5 1   
     9    3    7 1   
    10    6    8 1   
    11    6   16 1   
    12    8   10 1   
    13    8   26 1   
    14    9   27 1   
    15   10   12 1   
    16   10   28 1   
    17   11   13 1   
    18   11   15 1   
    19   11   17 1   
    20   12   14 1   
    21   12   29 1   
    22   14   16 1   
    23   14   18 1   
    24   16   30 1   
    25   18   19 1   
    26   18   23 1   
    27   19   20 1   
    28   19   31 1   
    29   20   21 1   
    30   20   32 1   
    31   21   22 1   
    32   21   33 1   
    33   22   23 1   
    34   22   34 1   
    35   23   35 1   
@<TRIPOS>SUBSTRUCTURE
     1 P2H         1 TEMP              0 ****  ****    0 ROOT
