@<TRIPOS>MOLECULE
P2H
   35    30     1     0     0
SMALL
bcc


@<TRIPOS>ATOM
      1 C7          0.1160   -1.7970    0.9860 c3        1 P2H     -0.158000
      2 C8         -0.8740   -2.8100    0.4130 c3        1 P2H     -0.393000
      3 P9         -0.1160   -3.6640   -0.9820 p5        1 P2H      1.519000
      4 O10        -1.0270   -4.7620   -1.4540 o         1 P2H     -0.769000
      5 O11         0.1020   -2.7220   -2.0570 o         1 P2H     -0.769000
      6 N12        -0.4310   -0.4670    0.8730 n3        1 P2H     -0.088000
      7 O12         1.2160   -4.2610   -0.5490 o         1 P2H     -0.769000
      8 C13        -1.5220   -0.0880    1.6370 c2        1 P2H     -0.323000
      9 O13        -2.0410   -2.1350   -0.0230 oh        1 P2H     -0.303000
     10 C14        -2.0010    1.2220    1.5700 c1        1 P2H     -0.037000
     11 P14        -1.3220   -4.0340    1.7210 p5        1 P2H      1.519000
     12 C15        -1.3870    2.1410    0.7400 c1        1 P2H     -0.291000
     13 O15        -0.1210   -4.8840    2.0460 o         1 P2H     -0.769000
     14 C16        -0.3160    1.7670   -0.0080 c1        1 P2H      0.021500
     15 O16        -1.7720   -3.2940    2.9670 o         1 P2H     -0.769000
     16 C17         0.1710    0.4260    0.0630 c1        1 P2H     -0.245000
     17 O17        -2.4260   -4.8990    1.2340 o         1 P2H     -0.769000
     18 C18         0.6760    2.5520   -0.6640 c1        1 P2H      0.021500
     19 C19         1.6430    3.2320    0.0900 c1        1 P2H     -0.162250
     20 C20         2.6860    3.8940   -0.5490 c1        1 P2H     -0.162250
     21 C21         2.7680    3.8800   -1.9360 c1        1 P2H     -0.162250
     22 C22         1.7990    3.1980   -2.6910 c1        1 P2H     -0.162250
     23 C23         0.7610    2.5390   -2.0510 c1        1 P2H     -0.291000
     24 H7          0.9790   -1.8490    0.4770 h1        1 P2H      0.074000
     25 H7A         0.2830   -2.0040    1.9360 h1        1 P2H      0.074000
     26 H13        -1.9430   -0.7170    2.2040 h4        1 P2H      0.083000
     27 HO13       -2.5720   -2.7010   -0.4260 ho        1 P2H      0.213000
     28 H14        -2.8170    1.4930    2.1100 ha        1 P2H      0.053000
     29 H15        -1.7810    2.9720    0.5990 ha        1 P2H      0.143500
     30 H17         0.9150    0.1660   -0.4580 ha        1 P2H      0.118000
     31 H19         1.5890    3.2370    1.0430 ha        1 P2H      0.102000
     32 H20         3.4180    4.3180   -0.0080 ha        1 P2H      0.102000
     33 H21         3.4710    4.4070   -2.3960 ha        1 P2H      0.102000
     34 H22         1.7980    3.2780   -3.7080 ha        1 P2H      0.102000
     35 H23         0.0770    2.3650   -2.7510 ha        1 P2H      0.143500
@<TRIPOS>BOND
     1    1    2 1   
     2    1    6 1   
     3    1   24 1   
     4    1   25 1   
     5    2    3 1   
     6    2    9 1   
     7    2   11 1   
     8    3    4 1   
     9    3    5 1   
    10    3    7 1   
    11    6    8 1   
    12    6   16 1   
    13    8   10 1   
    14    8   26 1   
    15    9   27 1   
    16   10   28 1   
    17   11   13 1   
    18   11   15 1   
    19   11   17 1   
    20   12   14 1   
    21   12   29 1   
    22   16   30 1   
    23   18   23 1   
    24   19   20 1   
    25   19   31 1   
    26   20   32 1   
    27   21   22 1   
    28   21   33 1   
    29   22   34 1   
    30   23   35 1   
@<TRIPOS>SUBSTRUCTURE
     1 P2H         1 TEMP              0 ****  ****    0 ROOT
