@<TRIPOS>MOLECULE
P2I
   49    49     1     0     0
SMALL
bcc


@<TRIPOS>ATOM
      1 C1          0.0310    0.0660   -0.2010 c3        1 P2I      0.147100
      2 C2          1.4410    0.6650   -0.0690 c3        1 P2I      0.107600
      3 C3          1.5180    1.6180    1.1390 c3        1 P2I      0.104600
      4 C4          1.1170    0.8950    2.4340 c3        1 P2I      0.155100
      5 C5         -0.2710    0.2490    2.2760 c3        1 P2I      0.104600
      6 C6         -0.3040   -0.7140    1.0810 c3        1 P2I      0.107600
      7 O1         -0.8970    1.0910   -0.3820 os        1 P2I     -0.581200
      8 P1         -1.7660    0.9910   -1.7970 p5        1 P2I      1.428800
      9 O2         -0.7580    1.3470   -2.8160 o         1 P2I     -0.820000
     10 O3         -2.5300   -0.2580   -1.6500 o         1 P2I     -0.820000
     11 O4         -2.7670    2.2750   -1.6090 os        1 P2I     -0.560200
     12 C7         -2.2260    3.5380   -1.8470 c3        1 P2I      0.187400
     13 C8         -2.6630    4.4880   -0.7140 c3        1 P2I      0.119100
     14 O5         -1.5290    4.6350    0.1550 os        1 P2I     -0.439900
     15 C9         -1.7120    4.5440    1.5070 c         1 P2I      0.646100
     16 O6         -2.8530    4.4460    1.9630 o         1 P2I     -0.554000
     17 C10        -0.4250    4.5910    2.2560 c3        1 P2I     -0.161100
     18 C11        -3.0000    5.8640   -1.2880 c3        1 P2I      0.122400
     19 O7         -3.6780    6.5820   -0.2430 os        1 P2I     -0.423900
     20 C12        -4.0920    7.8480   -0.5270 c         1 P2I      0.631100
     21 O8         -3.8710    8.3120   -1.6500 o         1 P2I     -0.563000
     22 C13        -4.7810    8.5020    0.6210 c3        1 P2I     -0.151100
     23 O9          1.8360    1.3730   -1.2280 oh        1 P2I     -0.633800
     24 O10         2.8520    2.0770    1.3060 oh        1 P2I     -0.620300
     25 O11         1.0730    1.8710    3.4670 oh        1 P2I     -0.603800
     26 O12        -0.5350   -0.4380    3.4940 oh        1 P2I     -0.620300
     27 O13        -1.5700   -1.3390    1.0260 oh        1 P2I     -0.633800
     28 H1          0.0080   -0.6410   -1.0820 h1        1 P2I      0.059700
     29 H2          2.1980   -0.1590    0.0560 h1        1 P2I      0.055200
     30 H3          0.8370    2.4990    0.9670 h1        1 P2I      0.073200
     31 H4          1.8830    0.1140    2.6960 h1        1 P2I      0.047700
     32 H5         -1.0490    1.0510    2.1300 h1        1 P2I      0.073200
     33 H6          0.4410   -1.5430    1.2380 h1        1 P2I      0.055200
     34 H7         -2.6340    3.9290   -2.8220 h1        1 P2I      0.048700
     35 H8         -1.1030    3.4830   -1.9060 h1        1 P2I      0.048700
     36 H9         -3.5400    4.0610   -0.1550 h1        1 P2I      0.113700
     37 H10        -0.5290    5.2890    3.1210 hc        1 P2I      0.080033
     38 H11         0.4110    4.9250    1.5960 hc        1 P2I      0.080033
     39 H12        -0.1910    3.5620    2.6390 hc        1 P2I      0.080033
     40 H13        -2.0780    6.4300   -1.5790 h1        1 P2I      0.060200
     41 H14        -3.6890    5.7750   -2.1670 h1        1 P2I      0.060200
     42 H15        -5.8150    8.7850    0.3080 hc        1 P2I      0.072033
     43 H16        -4.2170    9.4240    0.9020 hc        1 P2I      0.072033
     44 H17        -4.8320    7.8130    1.4980 hc        1 P2I      0.072033
     45 H18         1.0300    1.6170   -1.7270 ho        1 P2I      0.463000
     46 H19         3.1440    2.3580    0.4270 ho        1 P2I      0.419000
     47 H20         0.6960    1.4270    4.2380 ho        1 P2I      0.410000
     48 H21        -1.2970   -1.0080    3.3180 ho        1 P2I      0.419000
     49 H22        -2.0900   -0.9170    0.3120 ho        1 P2I      0.463000
@<TRIPOS>BOND
     1    1    2 1   
     2    1    6 1   
     3    1    7 1   
     4    1   28 1   
     5    2    3 1   
     6    2   23 1   
     7    2   29 1   
     8    3    4 1   
     9    3   24 1   
    10    3   30 1   
    11    4    5 1   
    12    4   25 1   
    13    4   31 1   
    14    5    6 1   
    15    5   26 1   
    16    5   32 1   
    17    6   27 1   
    18    6   33 1   
    19    7    8 1   
    20    8    9 1   
    21    8   10 1   
    22    8   11 1   
    23   11   12 1   
    24   12   13 1   
    25   12   34 1   
    26   12   35 1   
    27   13   14 1   
    28   13   18 1   
    29   13   36 1   
    30   14   15 1   
    31   15   16 2   
    32   15   17 1   
    33   17   37 1   
    34   17   38 1   
    35   17   39 1   
    36   18   19 1   
    37   18   40 1   
    38   18   41 1   
    39   19   20 1   
    40   20   21 2   
    41   20   22 1   
    42   22   42 1   
    43   22   43 1   
    44   22   44 1   
    45   23   45 1   
    46   24   46 1   
    47   25   47 1   
    48   26   48 1   
    49   27   49 1   
@<TRIPOS>SUBSTRUCTURE
     1 P2I         1 TEMP              0 ****  ****    0 ROOT
