@<TRIPOS>MOLECULE
P2I
   49    49     1     0     0
SMALL
bcc


@<TRIPOS>ATOM
      1 C1         -2.7090   -1.5550    0.5720 c3        1 P2I      0.151100
      2 C2         -3.3850   -0.9190    1.8110 c3        1 P2I      0.125100
      3 C3         -3.7190    0.5570    1.5250 c3        1 P2I      0.103100
      4 C4         -4.6270    0.6840    0.2880 c3        1 P2I      0.114100
      5 C5         -3.9730    0.0120   -0.9240 c3        1 P2I      0.103100
      6 C6         -3.7100   -1.4670   -0.5990 c3        1 P2I      0.125100
      7 O1         -1.5310   -0.8630    0.3010 os        1 P2I     -0.591200
      8 P1         -0.1720   -1.7590   -0.0400 p5        1 P2I      1.435800
      9 O2          0.6400   -1.7720    1.1890 o         1 P2I     -0.819000
     10 O3         -0.6700   -2.8930   -0.8400 o         1 P2I     -0.819000
     11 O4          0.5340   -0.6580   -1.0380 os        1 P2I     -0.561200
     12 C7          1.0380    0.4930   -0.4370 c3        1 P2I      0.195400
     13 C8          2.5750    0.5380   -0.5870 c3        1 P2I      0.095100
     14 O5          2.8850    1.9280   -0.8270 os        1 P2I     -0.440900
     15 C9          3.7940    2.2510   -1.7860 c         1 P2I      0.643100
     16 O6          4.3470    1.3660   -2.4440 o         1 P2I     -0.561000
     17 C10         4.0050    3.7250   -1.8910 c3        1 P2I     -0.151100
     18 C11         3.2740    0.1030    0.7010 c3        1 P2I      0.097400
     19 O7          4.5240   -0.5240    0.3840 os        1 P2I     -0.426900
     20 C12         5.6790    0.1810    0.5180 c         1 P2I      0.638100
     21 O8          5.6550    1.3240    0.9850 o         1 P2I     -0.572000
     22 C13         6.8720   -0.5870    0.0580 c3        1 P2I     -0.151100
     23 O9         -2.5680   -1.0440    2.9540 oh        1 P2I     -0.615800
     24 O10        -4.3930    1.0700    2.6640 oh        1 P2I     -0.616300
     25 O11        -4.8200    2.0760    0.0720 oh        1 P2I     -0.622800
     26 O12        -4.8730    0.1570   -2.0150 oh        1 P2I     -0.616300
     27 O13        -3.3060   -2.1300   -1.7760 oh        1 P2I     -0.615800
     28 H1         -2.4790   -2.6400    0.7770 h1        1 P2I      0.067700
     29 H2         -4.3230   -1.4810    2.0730 h1        1 P2I      0.060700
     30 H3         -2.7650    1.1290    1.3520 h1        1 P2I      0.072700
     31 H4         -5.6290    0.2140    0.4950 h1        1 P2I      0.045700
     32 H5         -3.0040    0.5240   -1.1800 h1        1 P2I      0.072700
     33 H6         -4.6770   -1.9600   -0.2940 h1        1 P2I      0.060700
     34 H7          0.7540    0.5310    0.6500 h1        1 P2I      0.044700
     35 H8          0.6050    1.3850   -0.9720 h1        1 P2I      0.044700
     36 H9          2.9020   -0.0980   -1.4540 h1        1 P2I      0.106700
     37 H10         4.4090    3.9700   -2.9020 hc        1 P2I      0.068700
     38 H11         3.0460    4.2700   -1.7210 hc        1 P2I      0.068700
     39 H12         4.7410    4.0360   -1.1090 hc        1 P2I      0.068700
     40 H13         2.6870   -0.7190    1.2060 h1        1 P2I      0.107700
     41 H14         3.4220    0.9730    1.3910 h1        1 P2I      0.107700
     42 H15         6.7480   -1.6730    0.2850 hc        1 P2I      0.069700
     43 H16         6.9710   -0.4580   -1.0480 hc        1 P2I      0.069700
     44 H17         7.7850   -0.1940    0.5640 hc        1 P2I      0.069700
     45 H18        -1.7130   -0.6420    2.7450 ho        1 P2I      0.446500
     46 H19        -4.6180    1.9840    2.4490 ho        1 P2I      0.417000
     47 H20        -5.1620    2.1690   -0.8260 ho        1 P2I      0.419000
     48 H21        -4.6130   -0.5060   -2.6690 ho        1 P2I      0.417000
     49 H22        -2.3500   -2.3270   -1.7080 ho        1 P2I      0.446500
@<TRIPOS>BOND
     1    1    2 1   
     2    1    6 1   
     3    1    7 1   
     4    1   28 1   
     5    2    3 1   
     6    2   23 1   
     7    2   29 1   
     8    3    4 1   
     9    3   24 1   
    10    3   30 1   
    11    4    5 1   
    12    4   25 1   
    13    4   31 1   
    14    5    6 1   
    15    5   26 1   
    16    5   32 1   
    17    6   27 1   
    18    6   33 1   
    19    7    8 1   
    20    8    9 1   
    21    8   10 1   
    22    8   11 1   
    23   11   12 1   
    24   12   13 1   
    25   12   34 1   
    26   12   35 1   
    27   13   14 1   
    28   13   18 1   
    29   13   36 1   
    30   14   15 1   
    31   15   16 2   
    32   15   17 1   
    33   17   37 1   
    34   17   38 1   
    35   17   39 1   
    36   18   19 1   
    37   18   40 1   
    38   18   41 1   
    39   19   20 1   
    40   20   21 2   
    41   20   22 1   
    42   22   42 1   
    43   22   43 1   
    44   22   44 1   
    45   23   45 1   
    46   24   46 1   
    47   25   47 1   
    48   26   48 1   
    49   27   49 1   
@<TRIPOS>SUBSTRUCTURE
     1 P2I         1 TEMP              0 ****  ****    0 ROOT
