@<TRIPOS>MOLECULE
P2I
   49    49     1     0     0
SMALL
bcc


@<TRIPOS>ATOM
      1 C1          1.3900   -2.7910   -0.9190 c3        1 P2I      0.153100
      2 C2          2.9010   -2.8960   -1.0510 c3        1 P2I      0.106600
      3 C3          3.6080   -2.8300    0.2940 c3        1 P2I      0.099600
      4 C4          3.0420   -3.8250    1.2980 c3        1 P2I      0.123100
      5 C5          1.5300   -3.7200    1.4310 c3        1 P2I      0.099600
      6 C6          0.8230   -3.7860    0.0860 c3        1 P2I      0.106600
      7 O1          1.0570   -1.4800   -0.5020 os        1 P2I     -0.572200
      8 P1          0.2410   -0.5580   -1.4930 p5        1 P2I      1.436800
      9 O2          1.1400   -0.1140   -2.6230 o         1 P2I     -0.826000
     10 O3         -0.9280   -1.3320   -2.0540 o         1 P2I     -0.826000
     11 O4         -0.2920    0.7110   -0.7150 os        1 P2I     -0.564200
     12 C7         -0.8910    1.7490   -1.4550 c3        1 P2I      0.190400
     13 C8         -1.4270    2.8000   -0.5070 c3        1 P2I      0.094100
     14 O5         -0.7070    3.9950   -0.6770 os        1 P2I     -0.442900
     15 C9         -0.4530    4.6830    0.5220 c         1 P2I      0.643100
     16 O6         -0.6910    4.1510    1.5890 o         1 P2I     -0.557000
     17 C10         0.1450    6.0720    0.4860 c3        1 P2I     -0.151100
     18 C11        -2.8900    3.0460   -0.8010 c3        1 P2I      0.099400
     19 O7         -3.6480    2.8220    0.3650 os        1 P2I     -0.424900
     20 C12        -5.0060    3.1580    0.2350 c         1 P2I      0.640100
     21 O8         -5.4050    3.6890   -0.7820 o         1 P2I     -0.575000
     22 C13        -5.9720    2.8510    1.3580 c3        1 P2I     -0.152100
     23 O9          3.3640   -1.8310   -1.8640 oh        1 P2I     -0.619300
     24 O10         4.9840   -3.1070    0.1020 oh        1 P2I     -0.605300
     25 O11         3.6300   -3.5820    2.5630 oh        1 P2I     -0.594800
     26 O12         1.0670   -4.7850    2.2440 oh        1 P2I     -0.605300
     27 O13        -0.5530   -3.5090    0.2790 oh        1 P2I     -0.619300
     28 H1          0.9840   -2.9580   -1.7920 h1        1 P2I      0.064700
     29 H2          3.1220   -3.7440   -1.4840 h1        1 P2I      0.050200
     30 H3          3.5150   -1.9270    0.6570 h1        1 P2I      0.099200
     31 H4          3.2720   -4.7300    1.0100 h1        1 P2I      0.026700
     32 H5          1.3080   -2.8720    1.8630 h1        1 P2I      0.099200
     33 H6          0.9160   -4.6890   -0.2760 h1        1 P2I      0.050200
     34 H7         -0.2250    2.1540   -2.0490 h1        1 P2I      0.045700
     35 H8         -1.6270    1.3860   -1.9900 h1        1 P2I      0.045700
     36 H9         -1.3280    2.4880    0.4140 h1        1 P2I      0.110700
     37 H10        -0.5740    6.7380    0.4720 hc        1 P2I      0.068033
     38 H11         0.6960    6.1700   -0.3190 hc        1 P2I      0.068033
     39 H12         0.7020    6.2090    1.2810 hc        1 P2I      0.068033
     40 H13        -3.1880    2.4350   -1.5060 h1        1 P2I      0.104200
     41 H14        -3.0120    3.9710   -1.0980 h1        1 P2I      0.104200
     42 H15        -5.8060    3.4600    2.1070 hc        1 P2I      0.071367
     43 H16        -5.8440    1.9260    1.6550 hc        1 P2I      0.071367
     44 H17        -6.8910    2.9680    1.0390 hc        1 P2I      0.071367
     45 H18         3.8230   -2.1600   -2.5510 ho        1 P2I      0.450500
     46 H19         5.4670   -2.4090    0.3650 ho        1 P2I      0.406000
     47 H20         4.2340   -4.2120    2.7350 ho        1 P2I      0.410000
     48 H21         1.4270   -5.5490    1.9660 ho        1 P2I      0.406000
     49 H22        -1.0300   -4.2350    0.0930 ho        1 P2I      0.450500
@<TRIPOS>BOND
     1    1    2 1   
     2    1    6 1   
     3    1    7 1   
     4    1   28 1   
     5    2    3 1   
     6    2   23 1   
     7    2   29 1   
     8    3    4 1   
     9    3   24 1   
    10    3   30 1   
    11    4    5 1   
    12    4   25 1   
    13    4   31 1   
    14    5    6 1   
    15    5   26 1   
    16    5   32 1   
    17    6   27 1   
    18    6   33 1   
    19    7    8 1   
    20    8    9 1   
    21    8   10 1   
    22    8   11 1   
    23   11   12 1   
    24   12   13 1   
    25   12   34 1   
    26   12   35 1   
    27   13   14 1   
    28   13   18 1   
    29   13   36 1   
    30   14   15 1   
    31   15   16 2   
    32   15   17 1   
    33   17   37 1   
    34   17   38 1   
    35   17   39 1   
    36   18   19 1   
    37   18   40 1   
    38   18   41 1   
    39   19   20 1   
    40   20   21 2   
    41   20   22 1   
    42   22   42 1   
    43   22   43 1   
    44   22   44 1   
    45   23   45 1   
    46   24   46 1   
    47   25   47 1   
    48   26   48 1   
    49   27   49 1   
@<TRIPOS>SUBSTRUCTURE
     1 P2I         1 TEMP              0 ****  ****    0 ROOT
