@<TRIPOS>MOLECULE
P2I
   49    49     1     0     0
SMALL
bcc


@<TRIPOS>ATOM
      1 C1         -0.3960   -0.2530   -0.2360 c3        1 P2I      0.149100
      2 C2          1.1290   -0.0520   -0.2410 c3        1 P2I      0.106100
      3 C3          1.5660    0.5240    1.1140 c3        1 P2I      0.107100
      4 C4          1.1990   -0.4300    2.2630 c3        1 P2I      0.157100
      5 C5         -0.3160   -0.6890    2.2620 c3        1 P2I      0.107100
      6 C6         -0.7730   -1.2260    0.8910 c3        1 P2I      0.106100
      7 O1         -1.0270    0.9750   -0.0310 os        1 P2I     -0.585200
      8 P1         -2.0440    1.4450   -1.2610 p5        1 P2I      1.424800
      9 O2         -1.1010    1.7620   -2.3520 o         1 P2I     -0.818000
     10 O3         -3.1270    0.4490   -1.2380 o         1 P2I     -0.818000
     11 O4         -2.5740    2.8570   -0.6170 os        1 P2I     -0.556200
     12 C7         -1.5570    3.8060   -0.4780 c3        1 P2I      0.161400
     13 C8         -2.1800    5.1040    0.0520 c3        1 P2I      0.134100
     14 O5         -1.0800    6.0000    0.3040 os        1 P2I     -0.443900
     15 C9         -0.9320    6.5370    1.5490 c         1 P2I      0.639100
     16 O6         -1.7640    6.3090    2.4280 o         1 P2I     -0.544000
     17 C10         0.3000    7.3730    1.6570 c3        1 P2I     -0.151100
     18 C11        -3.0620    5.7420   -1.0180 c3        1 P2I      0.126400
     19 O7         -3.9610    6.6260   -0.3240 os        1 P2I     -0.435900
     20 C12        -4.6630    7.5220   -1.0700 c         1 P2I      0.632100
     21 O8         -4.4680    7.5800   -2.2880 o         1 P2I     -0.557000
     22 C13        -5.6080    8.3360   -0.2540 c3        1 P2I     -0.151100
     23 O9          1.5650    0.8110   -1.2710 oh        1 P2I     -0.634300
     24 O10         2.9770    0.6980    1.1640 oh        1 P2I     -0.618800
     25 O11         1.5290    0.1630    3.5100 oh        1 P2I     -0.592800
     26 O12        -0.5810   -1.6590    3.2650 oh        1 P2I     -0.618800
     27 O13        -2.1640   -1.4740    0.9460 oh        1 P2I     -0.634300
     28 H1         -0.7160   -0.6920   -1.2270 h1        1 P2I      0.057700
     29 H2          1.6480   -1.0340   -0.4240 h1        1 P2I      0.054700
     30 H3          1.0680    1.5220    1.2720 h1        1 P2I      0.072700
     31 H4          1.7580   -1.4000    2.1560 h1        1 P2I      0.042700
     32 H5         -0.8660    0.2630    2.5000 h1        1 P2I      0.072700
     33 H6         -0.2920   -2.2280    0.7060 h1        1 P2I      0.054700
     34 H7         -1.0630    3.9730   -1.4750 h1        1 P2I      0.052200
     35 H8         -0.7950    3.4220    0.2540 h1        1 P2I      0.052200
     36 H9         -2.7710    4.9090    0.9880 h1        1 P2I      0.109700
     37 H10         0.6620    7.6800    0.6460 hc        1 P2I      0.069367
     38 H11         1.0950    6.7710    2.1620 hc        1 P2I      0.069367
     39 H12         0.0770    8.2780    2.2710 hc        1 P2I      0.069367
     40 H13        -3.6690    4.9500   -1.5300 h1        1 P2I      0.077700
     41 H14        -2.4600    6.3220   -1.7640 h1        1 P2I      0.077700
     42 H15        -5.3280    8.3030    0.8260 hc        1 P2I      0.070033
     43 H16        -5.5940    9.3910   -0.6180 hc        1 P2I      0.070033
     44 H17        -6.6370    7.9180   -0.3770 hc        1 P2I      0.070033
     45 H18         0.7960    1.3280   -1.5850 ho        1 P2I      0.461500
     46 H19         3.2310    1.0860    0.3160 ho        1 P2I      0.417500
     47 H20         2.4490    0.4470    3.4350 ho        1 P2I      0.405000
     48 H21        -1.5080   -1.9080    3.1480 ho        1 P2I      0.417500
     49 H22        -2.6220   -0.7620    0.4560 ho        1 P2I      0.461500
@<TRIPOS>BOND
     1    1    2 1   
     2    1    6 1   
     3    1    7 1   
     4    1   28 1   
     5    2    3 1   
     6    2   23 1   
     7    2   29 1   
     8    3    4 1   
     9    3   24 1   
    10    3   30 1   
    11    4    5 1   
    12    4   25 1   
    13    4   31 1   
    14    5    6 1   
    15    5   26 1   
    16    5   32 1   
    17    6   27 1   
    18    6   33 1   
    19    7    8 1   
    20    8    9 1   
    21    8   10 1   
    22    8   11 1   
    23   11   12 1   
    24   12   13 1   
    25   12   34 1   
    26   12   35 1   
    27   13   14 1   
    28   13   18 1   
    29   13   36 1   
    30   14   15 1   
    31   15   16 2   
    32   15   17 1   
    33   17   37 1   
    34   17   38 1   
    35   17   39 1   
    36   18   19 1   
    37   18   40 1   
    38   18   41 1   
    39   19   20 1   
    40   20   21 2   
    41   20   22 1   
    42   22   42 1   
    43   22   43 1   
    44   22   44 1   
    45   23   45 1   
    46   24   46 1   
    47   25   47 1   
    48   26   48 1   
    49   27   49 1   
@<TRIPOS>SUBSTRUCTURE
     1 P2I         1 TEMP              0 ****  ****    0 ROOT
