@<TRIPOS>MOLECULE
P2K
   45    44     1     0     0
SMALL
bcc


@<TRIPOS>ATOM
      1 O7          9.1380    0.6220    0.2180 oh        1 P2K     -0.599800
      2 C8          8.5100   -0.0190   -0.8720 c3        1 P2K      0.131400
      3 C9          7.4200   -0.9800   -0.4080 c3        1 P2K      0.087400
      4 O10         6.4020   -0.1700    0.1760 os        1 P2K     -0.438600
      5 C11         5.3300   -0.9460    0.7100 c3        1 P2K      0.129400
      6 C12         4.2420    0.0400    1.1210 c3        1 P2K      0.127400
      7 O13         3.1990   -0.0830    0.1580 os        1 P2K     -0.428600
      8 C14         2.1800    0.9000    0.3350 c3        1 P2K      0.127400
      9 C15         1.0570    0.5380   -0.6300 c3        1 P2K      0.127400
     10 O16        -0.0000   -0.0010    0.1610 os        1 P2K     -0.429600
     11 C17        -1.0560   -0.5310   -0.6370 c3        1 P2K      0.127400
     12 C18        -2.1810   -0.9030    0.3240 c3        1 P2K      0.127400
     13 O19        -3.1990    0.0820    0.1560 os        1 P2K     -0.428600
     14 C20        -4.2430   -0.0520    1.1180 c3        1 P2K      0.127400
     15 C21        -5.3310    0.9390    0.7160 c3        1 P2K      0.129400
     16 O22        -6.4020    0.1690    0.1730 os        1 P2K     -0.438600
     17 C23        -7.4190    0.9850   -0.4030 c3        1 P2K      0.087400
     18 C24        -8.5090    0.0300   -0.8790 c3        1 P2K      0.131400
     19 O25        -9.1390   -0.6240    0.2030 oh        1 P2K     -0.599800
     20 HO7         8.4440    1.0710    0.7170 ho        1 P2K      0.412000
     21 H81         8.0760    0.7440   -1.5720 h1        1 P2K      0.053700
     22 H82         9.3270   -0.5920   -1.3860 h1        1 P2K      0.053700
     23 H91         7.0010   -1.5510   -1.2760 h1        1 P2K      0.039200
     24 H92         7.8190   -1.6950    0.3580 h1        1 P2K      0.039200
     25 H111        4.9460   -1.6620   -0.0650 h1        1 P2K      0.045200
     26 H112        5.7000   -1.5170    1.6020 h1        1 P2K      0.045200
     27 H121        3.8410   -0.2220    2.1360 h1        1 P2K      0.043200
     28 H122        4.6390    1.0900    1.1320 h1        1 P2K      0.043200
     29 H141        1.8130    0.8910    1.3960 h1        1 P2K      0.044200
     30 H142        2.5980    1.9110    0.0880 h1        1 P2K      0.044200
     31 H151        0.6880    1.4550   -1.1610 h1        1 P2K      0.044200
     32 H152        1.4050   -0.2190   -1.3820 h1        1 P2K      0.044200
     33 H171       -1.4040    0.2350   -1.3800 h1        1 P2K      0.044200
     34 H172       -0.6870   -1.4420   -1.1780 h1        1 P2K      0.044200
     35 H181       -2.5980   -1.9110    0.0650 h1        1 P2K      0.044200
     36 H182       -1.8140   -0.9060    1.3840 h1        1 P2K      0.044200
     37 H201       -4.6400   -1.1020    1.1160 h1        1 P2K      0.043200
     38 H202       -3.8420    0.1980    2.1350 h1        1 P2K      0.043200
     39 H211       -5.7010    1.4990    1.6150 h1        1 P2K      0.045200
     40 H212       -4.9460    1.6630   -0.0500 h1        1 P2K      0.045200
     41 H231       -7.8200    1.6920    0.3710 h1        1 P2K      0.039200
     42 H232       -6.9990    1.5660   -1.2640 h1        1 P2K      0.039200
     43 H241       -9.3260    0.6080   -1.3870 h1        1 P2K      0.053700
     44 H242       -8.0750   -0.7260   -1.5870 h1        1 P2K      0.053700
     45 HO25       -8.4450   -1.0790    0.6980 ho        1 P2K      0.412000
@<TRIPOS>BOND
     1    1    2 1   
     2    1   20 1   
     3    2    3 1   
     4    2   21 1   
     5    2   22 1   
     6    3    4 1   
     7    3   23 1   
     8    3   24 1   
     9    4    5 1   
    10    5    6 1   
    11    5   25 1   
    12    5   26 1   
    13    6    7 1   
    14    6   27 1   
    15    6   28 1   
    16    7    8 1   
    17    8    9 1   
    18    8   29 1   
    19    8   30 1   
    20    9   10 1   
    21    9   31 1   
    22    9   32 1   
    23   10   11 1   
    24   11   12 1   
    25   11   33 1   
    26   11   34 1   
    27   12   13 1   
    28   12   35 1   
    29   12   36 1   
    30   13   14 1   
    31   14   15 1   
    32   14   37 1   
    33   14   38 1   
    34   15   16 1   
    35   15   39 1   
    36   15   40 1   
    37   16   17 1   
    38   17   18 1   
    39   17   41 1   
    40   17   42 1   
    41   18   19 1   
    42   18   43 1   
    43   18   44 1   
    44   19   45 1   
@<TRIPOS>SUBSTRUCTURE
     1 P2K         1 TEMP              0 ****  ****    0 ROOT
