@<TRIPOS>MOLECULE
P2K
   45    44     1     0     0
SMALL
bcc


@<TRIPOS>ATOM
      1 O7         -1.1000    1.2340    0.4770 oh        1 P2K     -0.599800
      2 C8         -0.6860    0.1660   -0.3490 c3        1 P2K      0.131400
      3 C9          0.8070   -0.1090   -0.2060 c3        1 P2K      0.087400
      4 O10         0.9980   -0.5810    1.1260 os        1 P2K     -0.438600
      5 C11         2.3710   -0.8310    1.4230 c3        1 P2K      0.128400
      6 C12         2.4040   -1.5010    2.7920 c3        1 P2K      0.127400
      7 O13         2.7180   -2.8730    2.5630 os        1 P2K     -0.428600
      8 C14         2.6280   -3.6540    3.7530 c3        1 P2K      0.127400
      9 C15         3.1640   -5.0380    3.4040 c3        1 P2K      0.127400
     10 O16         4.4520   -5.1390    4.0080 os        1 P2K     -0.429600
     11 C17         5.1360   -6.3300    3.6260 c3        1 P2K      0.127400
     12 C18         6.4030   -6.3930    4.4720 c3        1 P2K      0.127400
     13 O19         6.1860   -7.4060    5.4520 os        1 P2K     -0.428600
     14 C20         7.2310   -7.4540    6.4200 c3        1 P2K      0.127400
     15 C21         6.9600   -8.6780    7.2890 c3        1 P2K      0.128400
     16 O22         7.9280   -9.6590    6.9220 os        1 P2K     -0.438600
     17 C23         7.6830  -10.9210    7.5390 c3        1 P2K      0.087400
     18 C24         8.8220  -11.8360    7.1010 c3        1 P2K      0.131400
     19 O25        10.0620  -11.4100    7.6260 oh        1 P2K     -0.599800
     20 HO7        -0.8560    1.0000    1.3820 ho        1 P2K      0.412000
     21 H81        -0.9130    0.5000   -1.3950 h1        1 P2K      0.053700
     22 H82        -1.2720   -0.7600   -0.1050 h1        1 P2K      0.053700
     23 H91         1.1360   -0.8920   -0.9380 h1        1 P2K      0.039200
     24 H92         1.4020    0.8290   -0.3630 h1        1 P2K      0.039200
     25 H111        2.9230    0.1460    1.4500 h1        1 P2K      0.045200
     26 H112        2.8210   -1.4980    0.6410 h1        1 P2K      0.045200
     27 H121        1.4100   -1.4100    3.3050 h1        1 P2K      0.043200
     28 H122        3.2030   -1.0420    3.4320 h1        1 P2K      0.043200
     29 H141        1.5550   -3.7180    4.0710 h1        1 P2K      0.044200
     30 H142        3.2380   -3.1860    4.5710 h1        1 P2K      0.044200
     31 H151        2.4950   -5.8330    3.8280 h1        1 P2K      0.044200
     32 H152        3.2450   -5.1660    2.2920 h1        1 P2K      0.044200
     33 H171        4.4870   -7.2270    3.8110 h1        1 P2K      0.044200
     34 H172        5.3960   -6.2710    2.5360 h1        1 P2K      0.044200
     35 H181        7.2830   -6.6780    3.8380 h1        1 P2K      0.044200
     36 H182        6.5990   -5.4060    4.9690 h1        1 P2K      0.044200
     37 H201        8.2280   -7.5390    5.9110 h1        1 P2K      0.043200
     38 H202        7.2020   -6.5200    7.0410 h1        1 P2K      0.043200
     39 H211        7.0900   -8.4240    8.3740 h1        1 P2K      0.045200
     40 H212        5.9240   -9.0700    7.1130 h1        1 P2K      0.045200
     41 H231        6.6960  -11.3280    7.1960 h1        1 P2K      0.039200
     42 H232        7.6750  -10.8010    8.6540 h1        1 P2K      0.039200
     43 H241        8.8710  -11.8780    5.9810 h1        1 P2K      0.053700
     44 H242        8.6650  -12.8650    7.5190 h1        1 P2K      0.053700
     45 HO25       10.1930  -10.4990    7.3340 ho        1 P2K      0.412000
@<TRIPOS>BOND
     1    1    2 1   
     2    1   20 1   
     3    2    3 1   
     4    2   21 1   
     5    2   22 1   
     6    3    4 1   
     7    3   23 1   
     8    3   24 1   
     9    4    5 1   
    10    5    6 1   
    11    5   25 1   
    12    5   26 1   
    13    6    7 1   
    14    6   27 1   
    15    6   28 1   
    16    7    8 1   
    17    8    9 1   
    18    8   29 1   
    19    8   30 1   
    20    9   10 1   
    21    9   31 1   
    22    9   32 1   
    23   10   11 1   
    24   11   12 1   
    25   11   33 1   
    26   11   34 1   
    27   12   13 1   
    28   12   35 1   
    29   12   36 1   
    30   13   14 1   
    31   14   15 1   
    32   14   37 1   
    33   14   38 1   
    34   15   16 1   
    35   15   39 1   
    36   15   40 1   
    37   16   17 1   
    38   17   18 1   
    39   17   41 1   
    40   17   42 1   
    41   18   19 1   
    42   18   43 1   
    43   18   44 1   
    44   19   45 1   
@<TRIPOS>SUBSTRUCTURE
     1 P2K         1 TEMP              0 ****  ****    0 ROOT
