@<TRIPOS>MOLECULE
P2K
   45    44     1     0     0
SMALL
bcc


@<TRIPOS>ATOM
      1 O7         -4.7340   -6.8560   -6.9650 oh        1 P2K     -0.602800
      2 C8         -4.1720   -5.5810   -6.7040 c3        1 P2K      0.127400
      3 C9         -3.6900   -5.5150   -5.2120 c3        1 P2K      0.129400
      4 O10        -3.2000   -4.1900   -4.9210 os        1 P2K     -0.431600
      5 C11        -2.6640   -4.0420   -3.5860 c3        1 P2K      0.130400
      6 C12        -2.1390   -2.6210   -3.4070 c3        1 P2K      0.129400
      7 O13        -1.5650   -2.4840   -2.1190 os        1 P2K     -0.429600
      8 C14        -1.1350   -1.1630   -1.8260 c3        1 P2K      0.130400
      9 C15        -0.4520   -1.1350   -0.4180 c3        1 P2K      0.129400
     10 O16        -0.2400    0.2020   -0.0200 os        1 P2K     -0.430600
     11 C17         0.6560    0.3340    1.0860 c3        1 P2K      0.129400
     12 C18         0.6410    1.7690    1.5920 c3        1 P2K      0.130400
     13 O19         1.7250    1.9660    2.4760 os        1 P2K     -0.429600
     14 C20         1.7070    3.2630    3.1620 c3        1 P2K      0.129400
     15 C21         3.0670    3.5030    3.8520 c3        1 P2K      0.130400
     16 O22         2.9590    4.6110    4.7210 os        1 P2K     -0.431600
     17 C23         4.1910    5.0210    5.2980 c3        1 P2K      0.129400
     18 C24         3.9230    6.1000    6.3260 c3        1 P2K      0.127400
     19 O25         5.1520    6.6470    6.7730 oh        1 P2K     -0.602800
     20 HO7        -4.9760   -6.9060   -7.8290 ho        1 P2K      0.405000
     21 H81        -4.8560   -4.8800   -6.8630 h1        1 P2K      0.035700
     22 H82        -3.4140   -5.4340   -7.2960 h1        1 P2K      0.035700
     23 H91        -4.4390   -5.7230   -4.6170 h1        1 P2K      0.042700
     24 H92        -2.9450   -6.1910   -5.0670 h1        1 P2K      0.042700
     25 H111       -3.3840   -4.2180   -2.9160 h1        1 P2K      0.042700
     26 H112       -1.9170   -4.6940   -3.4530 h1        1 P2K      0.042700
     27 H121       -2.8910   -1.9760   -3.5050 h1        1 P2K      0.041700
     28 H122       -1.4550   -2.4350   -4.0930 h1        1 P2K      0.041700
     29 H141       -0.4710   -0.8600   -2.5310 h1        1 P2K      0.042700
     30 H142       -1.9370   -0.5400   -1.8270 h1        1 P2K      0.042700
     31 H151       -1.0430   -1.5910    0.2490 h1        1 P2K      0.042700
     32 H152        0.4300   -1.6110   -0.4650 h1        1 P2K      0.042700
     33 H171        1.5450    0.1030    0.8060 h1        1 P2K      0.042700
     34 H172        0.3720   -0.2740    1.8140 h1        1 P2K      0.042700
     35 H181       -0.1690    1.9340    2.0460 h1        1 P2K      0.042700
     36 H182        0.7210    2.3770    0.8440 h1        1 P2K      0.042700
     37 H201        1.5410    3.9800    2.5070 h1        1 P2K      0.041700
     38 H202        0.9790    3.2670    3.8520 h1        1 P2K      0.041700
     39 H211        3.3150    2.7160    4.3600 h1        1 P2K      0.042700
     40 H212        3.7470    3.6830    3.1780 h1        1 P2K      0.042700
     41 H231        4.7770    5.3720    4.6010 h1        1 P2K      0.042700
     42 H232        4.6090    4.2740    5.7210 h1        1 P2K      0.042700
     43 H241        3.3960    6.7850    5.9340 h1        1 P2K      0.035700
     44 H242        3.4460    5.7160    7.0790 h1        1 P2K      0.035700
     45 HO25        4.9900    7.2960    7.3660 ho        1 P2K      0.405000
@<TRIPOS>BOND
     1    1    2 1   
     2    1   20 1   
     3    2    3 1   
     4    2   21 1   
     5    2   22 1   
     6    3    4 1   
     7    3   23 1   
     8    3   24 1   
     9    4    5 1   
    10    5    6 1   
    11    5   25 1   
    12    5   26 1   
    13    6    7 1   
    14    6   27 1   
    15    6   28 1   
    16    7    8 1   
    17    8    9 1   
    18    8   29 1   
    19    8   30 1   
    20    9   10 1   
    21    9   31 1   
    22    9   32 1   
    23   10   11 1   
    24   11   12 1   
    25   11   33 1   
    26   11   34 1   
    27   12   13 1   
    28   12   35 1   
    29   12   36 1   
    30   13   14 1   
    31   14   15 1   
    32   14   37 1   
    33   14   38 1   
    34   15   16 1   
    35   15   39 1   
    36   15   40 1   
    37   16   17 1   
    38   17   18 1   
    39   17   41 1   
    40   17   42 1   
    41   18   19 1   
    42   18   43 1   
    43   18   44 1   
    44   19   45 1   
@<TRIPOS>SUBSTRUCTURE
     1 P2K         1 TEMP              0 ****  ****    0 ROOT
