@<TRIPOS>MOLECULE
P2M
   35    28     1     0     0
SMALL
bcc


@<TRIPOS>ATOM
      1 S          -0.9670    1.2320   -0.1760 ss        1 P2M      2.852000
      2 C1         -2.6250   -1.6570   -3.2790 c1        1 P2M     -0.115333
      3 N1          0.7010    1.2230   -0.1320 n2        1 P2M     -0.886000
      4 O1         -1.5240    1.1800    1.1470 o         1 P2M     -0.936500
      5 C2         -2.4520   -2.2320   -2.0060 c1        1 P2M     -0.002500
      6 N2          1.9010    1.4360    2.4990 n1        1 P2M     -0.140000
      7 O2         -1.4700    2.4970   -0.6400 o         1 P2M     -0.936500
      8 C3         -1.9340   -1.4790   -0.9750 c1        1 P2M     -0.002500
      9 C4         -1.5760   -0.1300   -1.1970 c1        1 P2M     -0.807000
     10 C5         -1.7470    0.4360   -2.4530 c1        1 P2M      0.001000
     11 C6         -2.2710   -0.3260   -3.4960 c1        1 P2M     -0.115333
     12 C7         -1.7250   -2.0640    0.2850 c1        1 P2M     -0.130000
     13 C8         -2.0420   -3.4030    0.4930 c1        1 P2M     -0.115333
     14 C9         -2.5650   -4.1630   -0.5460 c1        1 P2M     -0.115333
     15 C10        -2.7720   -3.5850   -1.7960 c1        1 P2M     -0.130000
     16 C11         1.4220    2.4230    0.2390 c3        1 P2M      0.040000
     17 C12         2.3660    2.1130    1.4160 c2        1 P2M     -0.044000
     18 C13         2.7280    1.1880    3.5580 c1        1 P2M     -0.115333
     19 C14         4.0400    1.6250    3.5300 c1        1 P2M     -0.115333
     20 C15         4.5110    2.3070    2.4400 c1        1 P2M     -0.091000
     21 C16         3.6860    2.5540    1.3850 c2        1 P2M     -0.167000
     22 H1         -2.9930   -2.1910   -4.0120 ha        1 P2M      0.143500
     23 HN1         1.1600    0.4740   -0.3870 hn        1 P2M      0.256000
     24 H5         -1.5000    1.3680   -2.6060 ha        1 P2M      0.163000
     25 H6         -2.3920    0.0740   -4.3810 ha        1 P2M      0.143500
     26 H7         -1.3570   -1.5290    1.0170 ha        1 P2M      0.144500
     27 H8         -1.8970   -3.8080    1.3680 ha        1 P2M      0.143500
     28 H9         -2.7870   -5.1040   -0.4000 ha        1 P2M      0.143500
     29 H10        -3.1400   -4.1190   -2.5270 ha        1 P2M      0.144500
     30 H11         0.7850    3.1170    0.5050 h1        1 P2M      0.106500
     31 H11A        1.9480    2.7380   -0.5270 h1        1 P2M      0.106500
     32 H13         2.3910    0.7010    4.3370 ha        1 P2M      0.143500
     33 H14         4.6340    1.4460    4.2910 ha        1 P2M      0.143500
     34 H15         5.4410    2.6170    2.4190 ha        1 P2M      0.141000
     35 H16         4.0210    3.0400    0.6070 ha        1 P2M      0.149000
@<TRIPOS>BOND
     1    1    4 1   
     2    1    7 1   
     3    2   11 1   
     4    2   22 1   
     5    3   16 1   
     6    3   23 1   
     7    5    8 1   
     8    5   15 1   
     9    6   17 1   
    10    8   12 1   
    11    9   10 1   
    12   10   24 1   
    13   11   25 1   
    14   12   26 1   
    15   13   14 1   
    16   13   27 1   
    17   14   28 1   
    18   15   29 1   
    19   16   17 1   
    20   16   30 1   
    21   16   31 1   
    22   17   21 1   
    23   18   19 1   
    24   18   32 1   
    25   19   33 1   
    26   20   21 1   
    27   20   34 1   
    28   21   35 1   
@<TRIPOS>SUBSTRUCTURE
     1 P2M         1 TEMP              0 ****  ****    0 ROOT
