@<TRIPOS>MOLECULE
P2M
   36    38     1     0     0
SMALL
bcc


@<TRIPOS>ATOM
      1 S          -0.1180   -0.5340   -1.3010 sy        1 P2M      1.485200
      2 C1         -1.1290   -4.8340   -0.8970 ca        1 P2M      0.040000
      3 N1          1.7720   -0.6790   -1.1460 n4        1 P2M     -0.688900
      4 O1         -0.4060    0.3370   -0.2700 o         1 P2M     -0.580300
      5 C2         -0.6970   -4.1420    0.2600 ca        1 P2M     -0.084000
      6 N2          4.5800   -0.5300   -0.8770 nb        1 P2M     -0.706000
      7 O2         -0.2570   -0.1060   -2.6100 o         1 P2M     -0.580300
      8 C3         -0.3640   -2.7610    0.1790 ca        1 P2M      0.085000
      9 C4         -0.4450   -2.0890   -1.0870 ca        1 P2M     -0.549500
     10 C5         -0.8740   -2.8300   -2.2010 ca        1 P2M      0.057000
     11 C6         -1.2170   -4.1800   -2.1130 ca        1 P2M     -0.182000
     12 C7          0.0440   -2.1000    1.3680 ca        1 P2M     -0.218000
     13 C8          0.1230   -2.7790    2.5640 ca        1 P2M     -0.035000
     14 C9         -0.1950   -4.1550    2.6380 ca        1 P2M     -0.129000
     15 C10        -0.6020   -4.8210    1.5080 ca        1 P2M     -0.072000
     16 C11         2.4250    0.6450   -1.2290 c3        1 P2M      0.062500
     17 C12         3.9300    0.6380   -1.1100 ca        1 P2M      0.341600
     18 C13         5.9180   -0.4840   -0.7750 ca        1 P2M      0.419200
     19 C14         6.6670    0.7050   -0.8970 ca        1 P2M     -0.212300
     20 C15         5.9850    1.8970   -1.1350 ca        1 P2M     -0.072000
     21 C16         4.5900    1.8730   -1.2460 ca        1 P2M     -0.213300
     22 HN1         2.1530   -1.2750   -1.8810 hn        1 P2M      0.456800
     23 H5         -0.9530   -2.3280   -3.1880 ha        1 P2M      0.174000
     24 H6         -1.5590   -4.7150   -3.0150 ha        1 P2M      0.176000
     25 H7          0.2520   -1.0180    1.3660 ha        1 P2M      0.149000
     26 H8          0.4290   -2.2490    3.4820 ha        1 P2M      0.161000
     27 H9         -0.1220   -4.6750    3.6060 ha        1 P2M      0.166000
     28 H10        -0.8660   -5.8910    1.5480 ha        1 P2M      0.159000
     29 H11         2.1480    1.1010   -2.2280 hx        1 P2M      0.115700
     30 H11A        2.0040    1.2900   -0.4000 hx        1 P2M      0.115700
     31 H13         6.4180   -1.4530   -0.5860 h4        1 P2M      0.042100
     32 H14         7.7620    0.6820   -0.8040 ha        1 P2M      0.169000
     33 H15         6.5320    2.8480   -1.2370 ha        1 P2M      0.165000
     34 H16         4.0250    2.7960   -1.4350 ha        1 P2M      0.158000
     35 H12         2.0260   -1.1190   -0.2600 hn        1 P2M      0.456800
     36 H1         -1.3950   -5.9030   -0.8160 ha        1 P2M      0.167000
@<TRIPOS>BOND
     1    1    3 1   
     2    1    4 2   
     3    1    7 2   
     4    1    9 1   
     5    2    5 ar  
     6    2   11 ar  
     7    2   36 1   
     8    3   16 1   
     9    3   22 1   
    10    3   35 1   
    11    5    8 ar  
    12    5   15 ar  
    13    6   17 ar  
    14    6   18 ar  
    15    8    9 ar  
    16    8   12 ar  
    17    9   10 ar  
    18   10   11 ar  
    19   10   23 1   
    20   11   24 1   
    21   12   13 ar  
    22   12   25 1   
    23   13   14 ar  
    24   13   26 1   
    25   14   15 ar  
    26   14   27 1   
    27   15   28 1   
    28   16   17 1   
    29   16   29 1   
    30   16   30 1   
    31   17   21 ar  
    32   18   19 ar  
    33   18   31 1   
    34   19   20 ar  
    35   19   32 1   
    36   20   21 ar  
    37   20   33 1   
    38   21   34 1   
@<TRIPOS>SUBSTRUCTURE
     1 P2M         1 TEMP              0 ****  ****    0 ROOT
