@<TRIPOS>MOLECULE
P2M
   36    38     1     0     0
SMALL
bcc


@<TRIPOS>ATOM
      1 S          -0.1210   -0.5220   -1.2430 sy        1 P2M      1.485200
      2 C1         -1.1270   -4.8340   -1.0000 ca        1 P2M      0.040000
      3 N1          1.7690   -0.6700   -1.0930 ny        1 P2M     -0.688900
      4 O1         -0.4100    0.3100   -0.1810 o         1 P2M     -0.580300
      5 C2         -0.6960   -4.1860    0.1820 ca        1 P2M     -0.084000
      6 N2          4.5770   -0.5280   -0.8180 nb        1 P2M     -0.706000
      7 O2         -0.2600   -0.0450   -2.5360 o         1 P2M     -0.580300
      8 C3         -0.3650   -2.8020    0.1520 ca        1 P2M      0.085000
      9 C4         -0.4460   -2.0840   -1.0880 ca        1 P2M     -0.549500
     10 C5         -0.8740   -2.7830   -2.2280 ca        1 P2M      0.057000
     11 C6         -1.2150   -4.1350   -2.1910 ca        1 P2M     -0.182000
     12 C7          0.0420   -2.1860    1.3650 ca        1 P2M     -0.218000
     13 C8          0.1220   -2.9090    2.5350 ca        1 P2M     -0.035000
     14 C9         -0.1950   -4.2870    2.5570 ca        1 P2M     -0.129000
     15 C10        -0.6000   -4.9110    1.4040 ca        1 P2M     -0.072000
     16 C11         2.4210    0.6570   -1.1240 c3        1 P2M      0.062500
     17 C12         3.9260    0.6470   -1.0040 ca        1 P2M      0.341600
     18 C13         5.9150   -0.4840   -0.7140 ca        1 P2M      0.419200
     19 C14         6.6620    0.7100   -0.7870 ca        1 P2M     -0.212300
     20 C15         5.9790    1.9090   -0.9770 ca        1 P2M     -0.072000
     21 C16         4.5840    1.8880   -1.0890 ca        1 P2M     -0.213300
     22 HN1         2.1510   -1.2360   -1.8520 hn        1 P2M      0.456800
     23 H5         -0.9530   -2.2450   -3.1960 ha        1 P2M      0.174000
     24 H6         -1.5570   -4.6370   -3.1120 ha        1 P2M      0.176000
     25 H7          0.2490   -1.1040    1.4040 ha        1 P2M      0.149000
     26 H8          0.4270   -2.4130    3.4730 ha        1 P2M      0.161000
     27 H9         -0.1210   -4.8430    3.5060 ha        1 P2M      0.166000
     28 H10        -0.8630   -5.9820    1.4040 ha        1 P2M      0.159000
     29 H11         2.1440    1.1520   -2.1030 hx        1 P2M      0.115700
     30 H11A        1.9980    1.2680   -0.2700 hx        1 P2M      0.115700
     31 H13         6.4160   -1.4600   -0.5640 h4        1 P2M      0.042100
     32 H14         7.7580    0.6840   -0.6940 ha        1 P2M      0.169000
     33 H15         6.5240    2.8650   -1.0400 ha        1 P2M      0.165000
     34 H16         4.0170    2.8170   -1.2410 ha        1 P2M      0.158000
     35 H12         2.0240   -1.1440   -0.2250 hn        1 P2M      0.456800
     36 H1         -1.3920   -5.9060   -0.9600 ha        1 P2M      0.167000
@<TRIPOS>BOND
     1    1    3 1   
     2    1    4 2   
     3    1    7 2   
     4    1    9 1   
     5    2    5 ar  
     6    2   11 ar  
     7    2   36 1   
     8    3   16 1   
     9    3   22 1   
    10    3   35 1   
    11    5    8 ar  
    12    5   15 ar  
    13    6   17 ar  
    14    6   18 ar  
    15    8    9 ar  
    16    8   12 ar  
    17    9   10 ar  
    18   10   11 ar  
    19   10   23 1   
    20   11   24 1   
    21   12   13 ar  
    22   12   25 1   
    23   13   14 ar  
    24   13   26 1   
    25   14   15 ar  
    26   14   27 1   
    27   15   28 1   
    28   16   17 1   
    29   16   29 1   
    30   16   30 1   
    31   17   21 ar  
    32   18   19 ar  
    33   18   31 1   
    34   19   20 ar  
    35   19   32 1   
    36   20   21 ar  
    37   20   33 1   
    38   21   34 1   
@<TRIPOS>SUBSTRUCTURE
     1 P2M         1 TEMP              0 ****  ****    0 ROOT
