@<TRIPOS>MOLECULE
P2M
   35    37     1     0     0
SMALL
bcc


@<TRIPOS>ATOM
      1 S           0.0220   -1.1630   -0.0820 sy        1 P2M      1.513200
      2 C1          4.1260    0.1380   -1.4630 ca        1 P2M     -0.050000
      3 N1         -0.8430    0.1920   -0.2500 n3        1 P2M     -0.913100
      4 O1          0.0250   -1.5660    1.2670 o         1 P2M     -0.657300
      5 C2          3.6510    0.6370   -0.2210 ca        1 P2M     -0.065000
      6 N2         -3.4040    1.6370    0.2180 nb        1 P2M     -0.666000
      7 O2         -0.4120   -2.1330   -1.0180 o         1 P2M     -0.657300
      8 C3          2.3780    0.2270    0.2600 ca        1 P2M      0.060000
      9 C4          1.5800   -0.6530   -0.5310 ca        1 P2M     -0.362500
     10 C5          2.0880   -1.1160   -1.7310 ca        1 P2M      0.001000
     11 C6          3.3610   -0.7310   -2.2010 ca        1 P2M     -0.166000
     12 C7          1.9520    0.7170    1.5280 ca        1 P2M     -0.154000
     13 C8          2.7350    1.5810    2.2520 ca        1 P2M     -0.097000
     14 C9          3.9910    2.0050    1.7550 ca        1 P2M     -0.134000
     15 C10         4.4410    1.5370    0.5470 ca        1 P2M     -0.106000
     16 C11        -1.8390    0.4040   -1.2550 c3        1 P2M      0.182500
     17 C12        -3.2340    0.6640   -0.7110 ca        1 P2M      0.378600
     18 C13        -4.6540    1.8630    0.6560 ca        1 P2M      0.398200
     19 C14        -5.7830    1.1540    0.2040 ca        1 P2M     -0.243300
     20 C15        -5.5950    0.1560   -0.7510 ca        1 P2M     -0.091000
     21 C16        -4.3050   -0.1010   -1.2180 ca        1 P2M     -0.232300
     22 HN1        -0.7540    0.9510    0.3860 hn        1 P2M      0.460800
     23 H5          1.4870   -1.8130   -2.3480 ha        1 P2M      0.163000
     24 H6          3.7240   -1.1320   -3.1590 ha        1 P2M      0.143000
     25 H7          0.9970    0.3650    1.9550 ha        1 P2M      0.155000
     26 H8          2.3960    1.9490    3.2330 ha        1 P2M      0.139000
     27 H9          4.5970    2.7030    2.3520 ha        1 P2M      0.137000
     28 H10         5.4210    1.8450    0.1510 ha        1 P2M      0.134000
     29 H11        -1.5520    1.2950   -1.8890 h1        1 P2M      0.067200
     30 H11A       -1.8810   -0.5050   -1.9260 h1        1 P2M      0.067200
     31 H13        -4.7540    2.6600    1.4150 h4        1 P2M      0.023100
     32 H14        -6.7800    1.3860    0.6000 ha        1 P2M      0.145000
     33 H15        -6.4490   -0.4260   -1.1290 ha        1 P2M      0.141000
     34 H16        -4.1230   -0.8890   -1.9620 ha        1 P2M      0.149000
     35 H1          5.1180    0.4590   -1.8190 ha        1 P2M      0.137000
@<TRIPOS>BOND
     1    1    3 1   
     2    1    4 2   
     3    1    7 2   
     4    1    9 1   
     5    2    5 ar  
     6    2   11 ar  
     7    2   35 1   
     8    3   16 1   
     9    3   22 1   
    10    5    8 ar  
    11    5   15 ar  
    12    6   17 ar  
    13    6   18 ar  
    14    8    9 ar  
    15    8   12 ar  
    16    9   10 ar  
    17   10   11 ar  
    18   10   23 1   
    19   11   24 1   
    20   12   13 ar  
    21   12   25 1   
    22   13   14 ar  
    23   13   26 1   
    24   14   15 ar  
    25   14   27 1   
    26   15   28 1   
    27   16   17 1   
    28   16   29 1   
    29   16   30 1   
    30   17   21 ar  
    31   18   19 ar  
    32   18   31 1   
    33   19   20 ar  
    34   19   32 1   
    35   20   21 ar  
    36   20   33 1   
    37   21   34 1   
@<TRIPOS>SUBSTRUCTURE
     1 P2M         1 TEMP              0 ****  ****    0 ROOT
