@<TRIPOS>MOLECULE
P2M
   36    38     1     0     0
SMALL
bcc


@<TRIPOS>ATOM
      1 S          -0.1080   -0.5300   -1.2820 sy        1 P2M      1.485200
      2 C1         -1.1480   -4.8270   -0.9360 ca        1 P2M      0.040000
      3 N1          1.7800   -0.6890   -1.1160 n4        1 P2M     -0.688900
      4 O1         -0.3980    0.3310   -0.2430 o         1 P2M     -0.580300
      5 C2         -0.7200   -4.1520    0.2320 ca        1 P2M     -0.084000
      6 N2          4.5870   -0.5610   -0.8250 nb        1 P2M     -0.706000
      7 O2         -0.2350   -0.0850   -2.5880 o         1 P2M     -0.580300
      8 C3         -0.3780   -2.7720    0.1700 ca        1 P2M      0.085000
      9 C4         -0.4470   -2.0850   -1.0890 ca        1 P2M     -0.549500
     10 C5         -0.8720   -2.8110   -2.2140 ca        1 P2M      0.057000
     11 C6         -1.2240   -4.1590   -2.1450 ca        1 P2M     -0.182000
     12 C7          0.0260   -2.1280    1.3690 ca        1 P2M     -0.218000
     13 C8          0.0920   -2.8210    2.5570 ca        1 P2M     -0.035000
     14 C9         -0.2350   -4.1960    2.6130 ca        1 P2M     -0.129000
     15 C10        -0.6380   -4.8460    1.4730 ca        1 P2M     -0.072000
     16 C11         2.4410    0.6330   -1.1710 c3        1 P2M      0.062500
     17 C12         3.9450    0.6150   -1.0390 ca        1 P2M      0.341600
     18 C13         5.9250   -0.5250   -0.7110 ca        1 P2M      0.419200
     19 C14         6.6800    0.6620   -0.8030 ca        1 P2M     -0.212300
     20 C15         6.0070    1.8630   -1.0230 ca        1 P2M     -0.072000
     21 C16         4.6140    1.8490   -1.1450 ca        1 P2M     -0.213300
     22 HN1         2.1630   -1.2740   -1.8580 hn        1 P2M      0.456800
     23 H5         -0.9410   -2.2970   -3.1960 ha        1 P2M      0.174000
     24 H6         -1.5630   -4.6820   -3.0550 ha        1 P2M      0.176000
     25 H7          0.2400   -1.0470    1.3810 ha        1 P2M      0.149000
     26 H8          0.3950   -2.3040    3.4840 ha        1 P2M      0.161000
     27 H9         -0.1720   -4.7280    3.5760 ha        1 P2M      0.166000
     28 H10        -0.9080   -5.9150    1.4990 ha        1 P2M      0.159000
     29 H11         2.1750    1.1070   -2.1640 hx        1 P2M      0.115700
     30 H11A        2.0170    1.2660   -0.3340 hx        1 P2M      0.115700
     31 H13         6.4170   -1.5000   -0.5380 h4        1 P2M      0.042100
     32 H14         7.7750    0.6310   -0.7020 ha        1 P2M      0.169000
     33 H15         6.5600    2.8130   -1.1010 ha        1 P2M      0.165000
     34 H16         4.0540    2.7790   -1.3200 ha        1 P2M      0.158000
     35 H12         2.0250   -1.1450   -0.2350 hn        1 P2M      0.456800
     36 H1         -1.4220   -5.8960   -0.8700 ha        1 P2M      0.167000
@<TRIPOS>BOND
     1    1    3 1   
     2    1    4 2   
     3    1    7 2   
     4    1    9 1   
     5    2    5 ar  
     6    2   11 ar  
     7    2   36 1   
     8    3   16 1   
     9    3   22 1   
    10    3   35 1   
    11    5    8 ar  
    12    5   15 ar  
    13    6   17 ar  
    14    6   18 ar  
    15    8    9 ar  
    16    8   12 ar  
    17    9   10 ar  
    18   10   11 ar  
    19   10   23 1   
    20   11   24 1   
    21   12   13 ar  
    22   12   25 1   
    23   13   14 ar  
    24   13   26 1   
    25   14   15 ar  
    26   14   27 1   
    27   15   28 1   
    28   16   17 1   
    29   16   29 1   
    30   16   30 1   
    31   17   21 ar  
    32   18   19 ar  
    33   18   31 1   
    34   19   20 ar  
    35   19   32 1   
    36   20   21 ar  
    37   20   33 1   
    38   21   34 1   
@<TRIPOS>SUBSTRUCTURE
     1 P2M         1 TEMP              0 ****  ****    0 ROOT
