@<TRIPOS>MOLECULE
P2N
   42    43     1     0     0
SMALL
bcc


@<TRIPOS>ATOM
      1 C1         -0.0130   -0.6310   -0.1220 c         1 P2N      0.667700
      2 C2          1.4560   -0.4720   -0.1470 ca        1 P2N     -0.172600
      3 C3          2.1470   -0.7350   -1.3470 ca        1 P2N      0.206100
      4 C4          3.5390   -0.6250   -1.4170 ca        1 P2N     -0.249000
      5 C5          4.2420   -0.2320   -0.2710 ca        1 P2N      0.199100
      6 C6          3.5610    0.0520    0.9310 ca        1 P2N     -0.095600
      7 C7          2.1670   -0.0860    1.0010 ca        1 P2N      0.055700
      8 C8          1.4290    0.2030    2.2640 c3        1 P2N     -0.160100
      9 C9          1.4010   -0.9360    3.2560 c         1 P2N      0.574100
     10 C10         0.1380   -1.0150    4.0760 c3        1 P2N     -0.180400
     11 C11        -0.8950   -1.8600    3.3540 c3        1 P2N     -0.085400
     12 C12        -2.3190   -1.4670    3.6990 c3        1 P2N     -0.070400
     13 C13        -3.2780   -1.8020    2.5650 c3        1 P2N     -0.062200
     14 C14        -4.2050   -0.6910    2.2320 c2        1 P2N     -0.149200
     15 C15        -3.8610    0.4630    1.6500 c2        1 P2N     -0.181200
     16 C16        -2.4780    0.8680    1.3100 c3        1 P2N     -0.075200
     17 C17        -2.1150    0.5350   -0.1300 c3        1 P2N      0.135400
     18 O1         -0.6850    0.5550   -0.2600 os        1 P2N     -0.433900
     19 O2         -0.6620   -1.6710   -0.0030 o         1 P2N     -0.526000
     20 O3          1.3910   -1.0930   -2.4330 oh        1 P2N     -0.481100
     21 O4          5.6010   -0.1380   -0.4200 oh        1 P2N     -0.485100
     22 Cl1         4.4570    0.5640    2.2860 cl        1 P2N     -0.076400
     23 O5          2.3350   -1.7230    3.4130 o         1 P2N     -0.509100
     24 H4          4.0860   -0.8390   -2.3450 ha        1 P2N      0.164000
     25 H8C1        1.9000    1.0830    2.7870 hc        1 P2N      0.088700
     26 H8C2        0.3710    0.5000    2.0160 hc        1 P2N      0.088700
     27 H101        0.3710   -1.4660    5.0760 hc        1 P2N      0.064200
     28 H102       -0.2510    0.0220    4.2520 hc        1 P2N      0.064200
     29 H111       -0.7360   -1.7590    2.2440 hc        1 P2N      0.060700
     30 H112       -0.7320   -2.9410    3.6030 hc        1 P2N      0.060700
     31 H121       -2.6390   -2.0010    4.6320 hc        1 P2N      0.041700
     32 H122       -2.3720   -0.3690    3.9280 hc        1 P2N      0.041700
     33 H131       -3.8740   -2.7110    2.8450 hc        1 P2N      0.058700
     34 H132       -2.7000   -2.0690    1.6340 hc        1 P2N      0.058700
     35 H14        -5.2650   -0.8800    2.4740 ha        1 P2N      0.119000
     36 H15        -4.6370    1.2080    1.4040 ha        1 P2N      0.120000
     37 H161       -1.7440    0.3480    1.9870 hc        1 P2N      0.053700
     38 H162       -2.3550    1.9720    1.4770 hc        1 P2N      0.053700
     39 H171       -2.4540    1.3360   -0.8390 h1        1 P2N      0.072700
     40 H172       -2.5310   -0.4580   -0.4380 h1        1 P2N      0.072700
     41 H3          1.9910   -1.2880   -3.1700 ho        1 P2N      0.433000
     42 HA          5.9940    0.0900    0.4390 ho        1 P2N      0.439000
@<TRIPOS>BOND
     1    1    2 1   
     2    1   18 1   
     3    1   19 2   
     4    2    3 ar  
     5    2    7 ar  
     6    3    4 ar  
     7    3   20 1   
     8    4    5 ar  
     9    4   24 1   
    10    5    6 ar  
    11    5   21 1   
    12    6    7 ar  
    13    6   22 1   
    14    7    8 1   
    15    8    9 1   
    16    8   25 1   
    17    8   26 1   
    18    9   10 1   
    19    9   23 2   
    20   10   11 1   
    21   10   27 1   
    22   10   28 1   
    23   11   12 1   
    24   11   29 1   
    25   11   30 1   
    26   12   13 1   
    27   12   31 1   
    28   12   32 1   
    29   13   14 1   
    30   13   33 1   
    31   13   34 1   
    32   14   15 2   
    33   14   35 1   
    34   15   16 1   
    35   15   36 1   
    36   16   17 1   
    37   16   37 1   
    38   16   38 1   
    39   17   18 1   
    40   17   39 1   
    41   17   40 1   
    42   20   41 1   
    43   21   42 1   
@<TRIPOS>SUBSTRUCTURE
     1 P2N         1 TEMP              0 ****  ****    0 ROOT
