@<TRIPOS>MOLECULE
P2N
   42    43     1     0     0
SMALL
bcc


@<TRIPOS>ATOM
      1 C1         -0.0540   -0.7100   -0.1000 c         1 P2N      0.671700
      2 C2          1.4030   -0.4690   -0.0870 ca        1 P2N     -0.172600
      3 C3          2.1260   -0.5150   -1.2950 ca        1 P2N      0.208100
      4 C4          3.5060   -0.2920   -1.3190 ca        1 P2N     -0.250000
      5 C5          4.1630   -0.0060   -0.1150 ca        1 P2N      0.199100
      6 C6          3.4490    0.0540    1.1000 ca        1 P2N     -0.095600
      7 C7          2.0690   -0.2000    1.1190 ca        1 P2N      0.054700
      8 C8          1.3000   -0.1590    2.3960 c3        1 P2N     -0.155100
      9 C9          1.4100   -1.4060    3.2400 c         1 P2N      0.576100
     10 C10         0.2970   -1.5800    4.2420 c3        1 P2N     -0.179400
     11 C11        -0.9470   -2.1490    3.5830 c3        1 P2N     -0.084400
     12 C12        -2.1020   -1.1650    3.5610 c3        1 P2N     -0.070400
     13 C13        -3.0870   -1.5260    2.4640 c3        1 P2N     -0.066200
     14 C14        -4.0820   -0.4610    2.1960 c2        1 P2N     -0.151200
     15 C15        -3.8700    0.6520    1.4850 c2        1 P2N     -0.180200
     16 C16        -2.5740    1.0890    0.9170 c3        1 P2N     -0.069200
     17 C17        -2.1970    0.3560   -0.3640 c3        1 P2N      0.134400
     18 O1         -0.7680    0.3880   -0.4960 os        1 P2N     -0.429900
     19 O2         -0.6570   -1.7420    0.1980 o         1 P2N     -0.534000
     20 O3          1.4160   -0.7930   -2.4350 oh        1 P2N     -0.481100
     21 O4          5.5110    0.2140   -0.2210 oh        1 P2N     -0.485100
     22 CL1         4.2840    0.4380    2.5340 cl        1 P2N     -0.080400
     23 O5          2.3340   -2.2150    3.1460 o         1 P2N     -0.510100
     24 H4          4.0800   -0.3360   -2.2550 ha        1 P2N      0.164000
     25 H8C1        1.6560    0.7040    3.0260 hc        1 P2N      0.086700
     26 H8C2        0.2090    0.0200    2.1800 hc        1 P2N      0.086700
     27 H101        0.6510   -2.2770    5.0480 hc        1 P2N      0.065200
     28 H102        0.0790   -0.5910    4.7240 hc        1 P2N      0.065200
     29 H111       -0.7050   -2.4660    2.5300 hc        1 P2N      0.062200
     30 H112       -1.2650   -3.0740    4.1310 hc        1 P2N      0.062200
     31 H121       -2.6200   -1.1630    4.5550 hc        1 P2N      0.038200
     32 H122       -1.7170   -0.1250    3.3940 hc        1 P2N      0.038200
     33 H131       -3.6190   -2.4730    2.7520 hc        1 P2N      0.061200
     34 H132       -2.5170   -1.7460    1.5170 hc        1 P2N      0.061200
     35 H14        -5.0880   -0.6520    2.6090 ha        1 P2N      0.119000
     36 H15        -4.7060    1.3510    1.3120 ha        1 P2N      0.120000
     37 H161       -1.7540    0.9300    1.6710 hc        1 P2N      0.052200
     38 H162       -2.6070    2.1920    0.7080 hc        1 P2N      0.052200
     39 H171       -2.5600    0.9040   -1.2730 h1        1 P2N      0.072700
     40 H172       -2.5810   -0.6970   -0.3730 h1        1 P2N      0.072700
     41 H3          2.0340   -0.8070   -3.1820 ho        1 P2N      0.432000
     42 HA          5.8760    0.3460    0.6710 ho        1 P2N      0.438000
@<TRIPOS>BOND
     1    1    2 1   
     2    1   18 1   
     3    1   19 2   
     4    2    3 ar  
     5    2    7 ar  
     6    3    4 ar  
     7    3   20 1   
     8    4    5 ar  
     9    4   24 1   
    10    5    6 ar  
    11    5   21 1   
    12    6    7 ar  
    13    6   22 1   
    14    7    8 1   
    15    8    9 1   
    16    8   25 1   
    17    8   26 1   
    18    9   10 1   
    19    9   23 2   
    20   10   11 1   
    21   10   27 1   
    22   10   28 1   
    23   11   12 1   
    24   11   29 1   
    25   11   30 1   
    26   12   13 1   
    27   12   31 1   
    28   12   32 1   
    29   13   14 1   
    30   13   33 1   
    31   13   34 1   
    32   14   15 2   
    33   14   35 1   
    34   15   16 1   
    35   15   36 1   
    36   16   17 1   
    37   16   37 1   
    38   16   38 1   
    39   17   18 1   
    40   17   39 1   
    41   17   40 1   
    42   20   41 1   
    43   21   42 1   
@<TRIPOS>SUBSTRUCTURE
     1 P2N         1 TEMP              0 ****  ****    0 ROOT
