@<TRIPOS>MOLECULE
P2N
   42    43     1     0     0
SMALL
bcc


@<TRIPOS>ATOM
      1 C1         -0.4460    1.4540   -0.6380 c         1 P2N      0.654700
      2 C2          0.9080    1.0450   -0.2330 ca        1 P2N     -0.232600
      3 C3          1.9690    1.9730   -0.2350 ca        1 P2N      0.224100
      4 C4          3.2770    1.5760    0.0830 ca        1 P2N     -0.203000
      5 C5          3.5130    0.2430    0.4280 ca        1 P2N      0.199100
      6 C6          2.4500   -0.6890    0.4720 ca        1 P2N     -0.104600
      7 C7          1.1510   -0.2940    0.1370 ca        1 P2N      0.071700
      8 C8          0.0210   -1.2620    0.2200 c3        1 P2N     -0.160100
      9 C9         -0.1690   -2.1230   -1.0040 c         1 P2N      0.583100
     10 C10        -1.4180   -2.9660   -0.9940 c3        1 P2N     -0.178400
     11 C11        -2.6890   -2.1450   -0.8840 c3        1 P2N     -0.085400
     12 C12        -3.3010   -2.2180    0.5010 c3        1 P2N     -0.075400
     13 C13        -4.3910   -1.1780    0.6900 c3        1 P2N     -0.048200
     14 C14        -3.8370    0.1350    1.1070 c2        1 P2N     -0.171200
     15 C15        -3.7170    1.1820    0.2860 c2        1 P2N     -0.168200
     16 C16        -3.1850    2.5000    0.7080 c3        1 P2N     -0.075200
     17 C17        -2.1950    3.0790   -0.2900 c3        1 P2N      0.140400
     18 O1         -0.8660    2.6100   -0.0250 os        1 P2N     -0.460900
     19 O2         -1.2110    0.9190   -1.4420 o         1 P2N     -0.523000
     20 O3          1.8390    3.2950   -0.5610 oh        1 P2N     -0.488100
     21 O4          4.8120   -0.0690    0.7260 oh        1 P2N     -0.482100
     22 CL1         2.7830   -2.2970    0.9340 cl        1 P2N     -0.085400
     23 O5          0.6360   -2.1740   -1.9350 o         1 P2N     -0.513100
     24 H4          4.1010    2.3030    0.0600 ha        1 P2N      0.179000
     25 H8C1       -0.9430   -0.7090    0.4060 hc        1 P2N      0.089700
     26 H8C2        0.1730   -1.9520    1.0980 hc        1 P2N      0.089700
     27 H101       -1.3420   -3.6920   -0.1410 hc        1 P2N      0.067200
     28 H102       -1.4420   -3.5670   -1.9430 hc        1 P2N      0.067200
     29 H111       -3.4350   -2.5280   -1.6300 hc        1 P2N      0.061700
     30 H112       -2.4860   -1.0720   -1.1530 hc        1 P2N      0.061700
     31 H121       -2.5050   -2.0750    1.2800 hc        1 P2N      0.039200
     32 H122       -3.7360   -3.2400    0.6580 hc        1 P2N      0.039200
     33 H131       -5.1030   -1.5340    1.4840 hc        1 P2N      0.048200
     34 H132       -4.9800   -1.0770   -0.2610 hc        1 P2N      0.048200
     35 H14        -3.5220    0.1950    2.1620 ha        1 P2N      0.119000
     36 H15        -4.0090    1.1110   -0.7750 ha        1 P2N      0.132000
     37 H161       -2.6960    2.4340    1.7170 hc        1 P2N      0.062200
     38 H162       -4.0450    3.2200    0.7960 hc        1 P2N      0.062200
     39 H171       -2.0970    4.1900   -0.1460 h1        1 P2N      0.068200
     40 H172       -2.4890    2.8470   -1.3460 h1        1 P2N      0.068200
     41 H3          0.9010    3.5140   -0.6750 ho        1 P2N      0.444000
     42 HA          4.8710   -1.0230    0.9030 ho        1 P2N      0.437000
@<TRIPOS>BOND
     1    1    2 1   
     2    1   18 1   
     3    1   19 2   
     4    2    3 ar  
     5    2    7 ar  
     6    3    4 ar  
     7    3   20 1   
     8    4    5 ar  
     9    4   24 1   
    10    5    6 ar  
    11    5   21 1   
    12    6    7 ar  
    13    6   22 1   
    14    7    8 1   
    15    8    9 1   
    16    8   25 1   
    17    8   26 1   
    18    9   10 1   
    19    9   23 2   
    20   10   11 1   
    21   10   27 1   
    22   10   28 1   
    23   11   12 1   
    24   11   29 1   
    25   11   30 1   
    26   12   13 1   
    27   12   31 1   
    28   12   32 1   
    29   13   14 1   
    30   13   33 1   
    31   13   34 1   
    32   14   15 2   
    33   14   35 1   
    34   15   16 1   
    35   15   36 1   
    36   16   17 1   
    37   16   37 1   
    38   16   38 1   
    39   17   18 1   
    40   17   39 1   
    41   17   40 1   
    42   20   41 1   
    43   21   42 1   
@<TRIPOS>SUBSTRUCTURE
     1 P2N         1 TEMP              0 ****  ****    0 ROOT
