@<TRIPOS>MOLECULE
P2N
   42    39     1     0     0
SMALL
bcc


@<TRIPOS>ATOM
      1 C1          0.0950   -0.2970   -1.5730 c1        1 P2N      0.365000
      2 C2          1.6540   -0.2970   -1.5730 c1        1 P2N     -0.149000
      3 C3          2.3480   -0.3780   -2.7780 c2        1 P2N      0.159000
      4 C4          3.7380   -0.4580   -2.7770 c1        1 P2N     -0.250000
      5 C5          4.4330   -0.4580   -1.5720 c1        1 P2N      0.154000
      6 C6          3.7390   -0.3780   -0.3670 c1        1 P2N     -0.177000
      7 C7          2.3490   -0.2970   -0.3690 c1        1 P2N      0.069000
      8 C8          1.5750   -0.0750    0.9830 c3        1 P2N     -0.200000
      9 C9          0.7320   -1.3460    1.3160 c2        1 P2N      0.235000
     10 C10        -0.0250   -1.1290    2.6780 c3        1 P2N     -0.208000
     11 C11        -1.5550   -1.4280    2.4780 c3        1 P2N     -0.160000
     12 C12        -2.3980   -0.1910    2.9560 c3        1 P2N     -0.149000
     13 C13        -3.2450    0.3630    1.7550 c3        1 P2N     -0.134000
     14 C14        -2.7870    1.8100    1.4200 c2        1 P2N     -0.167000
     15 C15        -2.6660    2.2660   -0.0720 c1        1 P2N     -0.161000
     16 C16        -3.0630    1.2960   -1.2140 c2        1 P2N     -0.168000
     17 C17        -1.8100    0.9990   -2.1040 c3        1 P2N     -0.006000
     18 O1         -0.6290    0.9190   -1.2740 os        1 P2N     -0.277000
     19 O2         -0.5130   -1.3100   -1.8580 o         1 P2N     -0.328000
     20 O3          1.6410   -0.3650   -4.0000 oh        1 P2N     -0.238000
     21 O4          5.8480   -0.4490   -1.5730 oh        1 P2N     -0.239000
     22 CL1         4.6150   -0.2990    1.1420 cl        1 P2N     -0.004000
     23 O5          1.1560   -2.4480    1.0250 o         1 P2N     -0.271000
     24 H4          4.2240   -0.5150   -3.6210 ha        1 P2N      0.164000
     25 H8C1        2.2150    0.0880    1.7020 hc        1 P2N      0.134000
     26 H8C2        0.9820    0.6960    0.8960 hc        1 P2N      0.134000
     27 H101        0.0910   -0.2050    2.9710 hc        1 P2N      0.105000
     28 H102        0.3390   -1.7330    3.3520 hc        1 P2N      0.105000
     29 H111       -1.7330   -1.5970    1.5330 hc        1 P2N      0.095000
     30 H112       -1.8040   -2.2130    3.0020 hc        1 P2N      0.095000
     31 H121       -2.9960   -0.4640    3.6780 hc        1 P2N      0.081500
     32 H122       -1.7970    0.5070    3.2800 hc        1 P2N      0.081500
     33 H131       -3.1150   -0.2090    0.9750 hc        1 P2N      0.088500
     34 H132       -4.1900    0.3690    1.9990 hc        1 P2N      0.088500
     35 H14        -2.5370    2.4210    2.1390 ha        1 P2N      0.118000
     36 H15        -2.3780    3.1750   -0.2820 ha        1 P2N      0.120000
     37 H161       -3.3960    0.4620   -0.8310 ha        1 P2N      0.109000
     38 H162       -3.7610    1.7050   -1.7600 ha        1 P2N      0.109000
     39 H171       -1.9370    0.1500   -2.5700 h1        1 P2N      0.103000
     40 H172       -1.6990    1.7140   -2.7590 h1        1 P2N      0.103000
     41 H3          2.1200   -0.7790   -4.6230 ho        1 P2N      0.232000
     42 HA          6.1390    0.3750   -1.7290 ho        1 P2N      0.237000
@<TRIPOS>BOND
     1    1   18 1   
     2    1   19 1   
     3    2    3 1   
     4    2    7 1   
     5    3    4 1   
     6    3   20 1   
     7    4   24 1   
     8    5    6 1   
     9    5   21 1   
    10    6   22 1   
    11    7    8 1   
    12    8    9 1   
    13    8   25 1   
    14    8   26 1   
    15    9   10 1   
    16    9   23 1   
    17   10   11 1   
    18   10   27 1   
    19   10   28 1   
    20   11   12 1   
    21   11   29 1   
    22   11   30 1   
    23   12   13 1   
    24   12   31 1   
    25   12   32 1   
    26   13   14 1   
    27   13   33 1   
    28   13   34 1   
    29   14   15 1   
    30   14   35 1   
    31   15   36 1   
    32   16   17 1   
    33   16   37 1   
    34   16   38 1   
    35   17   18 1   
    36   17   39 1   
    37   17   40 1   
    38   20   41 1   
    39   21   42 1   
@<TRIPOS>SUBSTRUCTURE
     1 P2N         1 TEMP              0 ****  ****    0 ROOT
