@<TRIPOS>MOLECULE
P2O
   16    16     1     0     0
SMALL
bcc


@<TRIPOS>ATOM
      1 C13         0.1860    0.2200    0.1210 c3        1 P2O      0.108400
      2 C9          3.2990   -0.0140    2.0710 c3        1 P2O      0.161100
      3 C11         0.8480   -0.2280    2.2920 c         1 P2O      0.797600
      4 C8          3.6420    1.3890    2.0030 c1        1 P2O     -0.195100
      5 C7          3.9590    2.5430    1.9740 c1        1 P2O     -0.115500
      6 C14         1.7110   -0.0400    0.1340 c3        1 P2O      0.024000
      7 O11         0.6460   -0.3720    3.4950 o         1 P2O     -0.577500
      8 N10         2.0250   -0.4020    1.5130 n         1 P2O     -0.429800
      9 O12        -0.2470    0.0790    1.4920 os        1 P2O     -0.398900
     10 H131       -0.3720   -0.5390   -0.4790 h1        1 P2O      0.070700
     11 H132       -0.0740    1.2570   -0.2000 h1        1 P2O      0.070700
     12 H91         3.3030   -0.3410    3.1560 h1        1 P2O      0.089700
     13 H92         4.0870   -0.6060    1.5150 h1        1 P2O      0.089700
     14 H7          4.2420    3.5650    1.9530 ha        1 P2O      0.169500
     15 H141        2.2800    0.8670   -0.2040 h1        1 P2O      0.068200
     16 H142        1.9770   -0.9050   -0.5290 h1        1 P2O      0.068200
@<TRIPOS>BOND
     1    1    6 1   
     2    1    9 1   
     3    1   10 1   
     4    1   11 1   
     5    2    4 1   
     6    2    8 1   
     7    2   12 1   
     8    2   13 1   
     9    3    7 2   
    10    3    8 1   
    11    3    9 1   
    12    4    5 3   
    13    5   14 1   
    14    6    8 1   
    15    6   15 1   
    16    6   16 1   
@<TRIPOS>SUBSTRUCTURE
     1 P2O         1 TEMP              0 ****  ****    0 ROOT
