@<TRIPOS>MOLECULE
P2O
   16    16     1     0     0
SMALL
bcc


@<TRIPOS>ATOM
      1 C13         0.0880    0.1870    0.0880 c3        1 P2O      0.108400
      2 C9          3.2030   -0.0450    2.0340 c3        1 P2O      0.161100
      3 C11         0.7520   -0.2460    2.2610 c         1 P2O      0.797600
      4 C8          3.5530    1.3560    1.9540 c1        1 P2O     -0.195100
      5 C7          3.8760    2.5070    1.9140 c1        1 P2O     -0.115500
      6 C14         1.6120   -0.0790    0.1000 c3        1 P2O      0.024000
      7 O11         0.5510   -0.3800    3.4660 o         1 P2O     -0.577500
      8 N10         1.9260   -0.4320    1.4820 n         1 P2O     -0.429800
      9 O12        -0.3430    0.0590    1.4610 os        1 P2O     -0.398900
     10 H131       -0.4740   -0.5740   -0.5050 h1        1 P2O      0.070700
     11 H132       -0.1680    1.2230   -0.2410 h1        1 P2O      0.070700
     12 H91         3.9880   -0.6450    1.4820 h1        1 P2O      0.089700
     13 H92         3.2080   -0.3630    3.1220 h1        1 P2O      0.089700
     14 H7          4.1630    3.5280    1.8840 ha        1 P2O      0.169500
     15 H141        1.8730   -0.9520   -0.5560 h1        1 P2O      0.068200
     16 H142        2.1850    0.8220   -0.2460 h1        1 P2O      0.068200
@<TRIPOS>BOND
     1    1    6 1   
     2    1    9 1   
     3    1   10 1   
     4    1   11 1   
     5    2    4 1   
     6    2    8 1   
     7    2   12 1   
     8    2   13 1   
     9    3    7 2   
    10    3    8 1   
    11    3    9 1   
    12    4    5 3   
    13    5   14 1   
    14    6    8 1   
    15    6   15 1   
    16    6   16 1   
@<TRIPOS>SUBSTRUCTURE
     1 P2O         1 TEMP              0 ****  ****    0 ROOT
