@<TRIPOS>MOLECULE
P2O
   16    14     1     0     0
SMALL
bcc


@<TRIPOS>ATOM
      1 C13        -1.8400    0.1790   -1.3820 c3        1 P2O     -0.042000
      2 C9          1.3800    0.5040    0.4600 c3        1 P2O      0.072000
      3 C11        -1.1680    0.3110    0.7900 c1        1 P2O      0.365000
      4 C8          1.8130   -0.6530    1.3180 c1        1 P2O     -0.222000
      5 C7          2.1440   -1.5470    1.9820 c1        1 P2O     -0.173000
      6 C14        -0.3500    0.1530   -1.3570 c3        1 P2O     -0.092000
      7 O11        -1.2190    0.2380    2.0190 o         1 P2O     -0.302000
      8 N10         0.0350    0.2720   -0.0170 n2        1 P2O     -0.288000
      9 O12        -2.2670    0.4630   -0.0720 os        1 P2O     -0.237000
     10 H131       -2.1310   -0.7310   -1.5780 h1        1 P2O      0.110000
     11 H132       -2.0900    0.9290   -1.9180 h1        1 P2O      0.110000
     12 H91         2.0080    0.5940   -0.3280 h1        1 P2O      0.129000
     13 H92         1.4000    1.3370    0.9960 h1        1 P2O      0.129000
     14 H7          2.4200   -2.2960    2.5380 DU        1 P2O      0.227000
     15 H141       -0.0470    0.9740   -1.8100 h1        1 P2O      0.107500
     16 H142       -0.0880   -0.7260   -1.6410 h1        1 P2O      0.107500
@<TRIPOS>BOND
     1    1    6 1   
     2    1    9 1   
     3    1   10 1   
     4    1   11 1   
     5    2    4 1   
     6    2    8 1   
     7    2   12 1   
     8    2   13 1   
     9    3    7 1   
    10    3    9 1   
    11    4    5 1   
    12    6    8 1   
    13    6   15 1   
    14    6   16 1   
@<TRIPOS>SUBSTRUCTURE
     1 P2O         1 TEMP              0 ****  ****    0 ROOT
