@<TRIPOS>MOLECULE
P2O
   16    16     1     0     0
SMALL
bcc


@<TRIPOS>ATOM
      1 C13         1.8730    1.0560   -0.5230 c3        1 P2O      0.108400
      2 C9         -1.3040    0.0320    1.0270 c3        1 P2O      0.161100
      3 C11         0.8610   -0.8720    0.2560 c         1 P2O      0.797600
      4 C8         -2.1410    0.2910   -0.1240 c1        1 P2O     -0.195100
      5 C7         -2.8660    0.4880   -1.0550 c1        1 P2O     -0.115500
      6 C14         0.6390    1.4480    0.3230 c3        1 P2O      0.024000
      7 O11         0.7560   -2.0920    0.3660 o         1 P2O     -0.577500
      8 N10         0.1200    0.1870    0.8470 n         1 P2O     -0.429800
      9 O12         1.9210   -0.3880   -0.5000 os        1 P2O     -0.398900
     10 H131        2.8300    1.4240   -0.0810 h1        1 P2O      0.070700
     11 H132        1.7800    1.3640   -1.5930 h1        1 P2O      0.070700
     12 H91        -1.4840   -1.0290    1.3800 h1        1 P2O      0.089700
     13 H92        -1.6030    0.7420    1.8570 h1        1 P2O      0.089700
     14 H7         -3.5130    0.6570   -1.8790 ha        1 P2O      0.169500
     15 H141        0.9350    2.0960    1.1900 h1        1 P2O      0.068200
     16 H142       -0.1230    1.9920   -0.2960 h1        1 P2O      0.068200
@<TRIPOS>BOND
     1    1    6 1   
     2    1    9 1   
     3    1   10 1   
     4    1   11 1   
     5    2    4 1   
     6    2    8 1   
     7    2   12 1   
     8    2   13 1   
     9    3    7 2   
    10    3    8 1   
    11    3    9 1   
    12    4    5 3   
    13    5   14 1   
    14    6    8 1   
    15    6   15 1   
    16    6   16 1   
@<TRIPOS>SUBSTRUCTURE
     1 P2O         1 TEMP              0 ****  ****    0 ROOT
