@<TRIPOS>MOLECULE
P2O
   16    16     1     0     0
SMALL
bcc


@<TRIPOS>ATOM
      1 C13         0.1810    0.2320    0.1270 c3        1 P2O      0.108400
      2 C9          3.3060   -0.0170    2.0540 c3        1 P2O      0.161100
      3 C11         0.8580   -0.2380    2.2880 c         1 P2O      0.797600
      4 C8          3.6470    1.3870    1.9990 c1        1 P2O     -0.195100
      5 C7          3.9620    2.5410    1.9790 c1        1 P2O     -0.115500
      6 C14         1.7060   -0.0250    0.1270 c3        1 P2O      0.024000
      7 O11         0.6630   -0.3960    3.4910 o         1 P2O     -0.577500
      8 N10         2.0300   -0.4020    1.5000 n         1 P2O     -0.429800
      9 O12        -0.2430    0.0760    1.4990 os        1 P2O     -0.398900
     10 H131       -0.3800   -0.5200   -0.4780 h1        1 P2O      0.070700
     11 H132       -0.0830    1.2730   -0.1810 h1        1 P2O      0.070700
     12 H91         3.3180   -0.3550    3.1350 h1        1 P2O      0.089700
     13 H92         4.0920   -0.6020    1.4870 h1        1 P2O      0.089700
     14 H7          4.2440    3.5640    1.9670 ha        1 P2O      0.169500
     15 H141        2.2720    0.8860   -0.2050 h1        1 P2O      0.068200
     16 H142        1.9690   -0.8830   -0.5470 h1        1 P2O      0.068200
@<TRIPOS>BOND
     1    1    6 1   
     2    1    9 1   
     3    1   10 1   
     4    1   11 1   
     5    2    4 1   
     6    2    8 1   
     7    2   12 1   
     8    2   13 1   
     9    3    7 2   
    10    3    8 1   
    11    3    9 1   
    12    4    5 3   
    13    5   14 1   
    14    6    8 1   
    15    6   15 1   
    16    6   16 1   
@<TRIPOS>SUBSTRUCTURE
     1 P2O         1 TEMP              0 ****  ****    0 ROOT
