@<TRIPOS>MOLECULE
P2P
   34    30     1     0     0
SMALL
bcc


@<TRIPOS>ATOM
      1 P           1.8830   -4.0740    3.2530 p4        1 P2P      1.701200
      2 O1P         3.3680   -3.9750    3.0030 o         1 P2P     -0.939500
      3 O2P         1.6060   -3.9040    4.7360 os        1 P2P     -1.219000
      4 O3P         1.3850   -5.4260    2.8000 o         1 P2P     -0.988300
      5 O6'         1.1310   -2.9300    2.4370 os        1 P2P     -0.561200
      6 C5'         1.4880   -2.7260    1.0680 c3        1 P2P      0.225400
      7 C4'         0.5900   -1.6310    0.4610 c3        1 P2P      0.053100
      8 O5'         0.8130   -0.4910    1.0440 os        1 P2P     -0.424600
      9 C3'         0.9470   -1.4030   -1.0130 c3        1 P2P      0.088100
     10 O3'        -0.0380   -1.8590   -1.8100 oh        1 P2P     -0.702800
     11 C2'         1.1010    0.1400   -1.1700 c3        1 P2P      0.111100
     12 O2'         0.3190    0.6190   -2.3360 oh        1 P2P     -0.610800
     13 C1'         0.6250    0.6330   -0.0850 c3        1 P2P      0.356300
     14 C8         -1.8510    0.1590    0.0000 c1        1 P2P      0.466800
     15 N9         -2.9390    0.9380   -0.0980 ne        1 P2P     -0.454400
     16 C4         -2.5250    2.2040   -0.4090 cg        1 P2P      0.407800
     17 C5         -1.1850    2.1920   -0.5000 c1        1 P2P     -0.156000
     18 N7         -0.7590    0.9300   -0.2480 n2        1 P2P     -0.499600
     19 N3         -3.2170    3.3840   -0.5920 n1        1 P2P     -0.528800
     20 C2         -2.5410    4.5350   -0.8650 c1        1 P2P      0.463400
     21 N1         -1.1830    4.5230   -0.9570 n1        1 P2P     -0.511800
     22 C6         -0.5000    3.3640   -0.7770 c1        1 P2P      0.054500
     23 O11        -3.2690    5.6670   -1.2320 oh        1 P2P     -0.469600
     24 H5'1        1.3650   -3.5660    0.5680 h1        1 P2P      0.010700
     25 H5'2        2.4470   -2.4410    1.0120 h1        1 P2P      0.010700
     26 H4'        -0.3730   -1.8820    0.5490 h1        1 P2P      0.057700
     27 H3'         1.7920   -1.8500   -1.2300 h1        1 P2P      0.176700
     28 HO3'        0.2930   -2.4580   -2.3770 ho        1 P2P      0.513000
     29 H2'         2.0410    0.3800   -1.2690 h1        1 P2P      0.080700
     30 HO2'        0.8600    0.7600   -3.0120 ho        1 P2P      0.429000
     31 H1'         1.1150    1.4410    0.1610 h2        1 P2P      0.067700
     32 H8         -1.8420   -0.7860    0.2350 DU        1 P2P      0.257000
     33 H6          0.4680    3.3560   -0.8420 ha        1 P2P      0.107500
     34 HO11       -3.4140    6.1790   -0.5060 ho        1 P2P      0.429000
@<TRIPOS>BOND
     1    1    2 1   
     2    1    4 2   
     3    1    5 1   
     4    5    6 1   
     5    6    7 1   
     6    6   24 1   
     7    6   25 1   
     8    7    8 1   
     9    7    9 1   
    10    7   26 1   
    11    8   13 1   
    12    9   10 1   
    13    9   11 1   
    14    9   27 1   
    15   10   28 1   
    16   11   12 1   
    17   11   13 1   
    18   11   29 1   
    19   12   30 1   
    20   13   18 1   
    21   13   31 1   
    22   14   15 2   
    23   14   18 2   
    24   15   16 1   
    25   16   19 3   
    26   17   22 3   
    27   20   21 3   
    28   20   23 1   
    29   22   33 1   
    30   23   34 1   
@<TRIPOS>SUBSTRUCTURE
     1 P2P         1 TEMP              0 ****  ****    0 ROOT
