@<TRIPOS>MOLECULE
P2P
   34    36     1     0     0
SMALL
bcc


@<TRIPOS>ATOM
      1 P           0.8210    0.3130   -4.6370 p5        1 P2P      1.332900
      2 O1P         2.0000   -0.6050   -4.4660 o         1 P2P     -0.926167
      3 O2P         0.1930    0.4390   -5.9860 o         1 P2P     -0.926167
      4 O3P         0.9540    1.5660   -3.7910 o         1 P2P     -0.926167
      5 O6'        -0.3960   -0.5020   -3.6870 os        1 P2P     -0.561200
      6 C5'         0.0490   -1.2330   -2.6220 c3        1 P2P      0.225400
      7 C4'         0.0210   -0.3880   -1.3220 c3        1 P2P      0.053100
      8 O5'         0.0780   -1.2780   -0.1760 os        1 P2P     -0.424600
      9 C3'         1.2360    0.5580   -1.2380 c3        1 P2P      0.088100
     10 O3'         0.8160    1.8970   -1.0730 oh        1 P2P     -0.702800
     11 C2'         2.0040    0.1170    0.0220 c3        1 P2P      0.111100
     12 O2'         2.5650    1.1490    0.7900 oh        1 P2P     -0.610800
     13 C1'         0.9580   -0.7540    0.8040 c3        1 P2P      0.211800
     14 C8         -0.4650    1.1940    1.6690 cc        1 P2P      0.481700
     15 N9         -1.1070    1.6230    2.7810 nd        1 P2P     -0.688700
     16 C4         -0.8590    0.6260    3.7490 ca        1 P2P      0.577300
     17 C5         -0.0230   -0.4300    3.1350 ca        1 P2P     -0.331800
     18 N7          0.2130   -0.0210    1.8240 na        1 P2P     -0.128300
     19 N3         -1.2590    0.5420    5.0480 nb        1 P2P     -0.729000
     20 C2         -0.8210   -0.5840    5.6870 ca        1 P2P      0.805300
     21 N1         -0.0460   -1.6240    5.2100 nb        1 P2P     -0.712000
     22 C6          0.3440   -1.5280    3.9290 ca        1 P2P      0.462200
     23 O11        -1.1880   -0.7420    7.0170 oh        1 P2P     -0.611300
     24 H5'1        1.0980   -1.6090   -2.7920 h1        1 P2P      0.010700
     25 H5'2       -0.6410   -2.1100   -2.4540 h1        1 P2P      0.010700
     26 H4'        -0.9390    0.1880   -1.2500 h1        1 P2P      0.057700
     27 H3'         1.8450    0.4690   -2.1980 h1        1 P2P      0.176700
     28 HO3'        0.7300    2.2500   -1.9920 ho        1 P2P      0.513000
     29 H2'         2.8550   -0.5640   -0.2550 h1        1 P2P      0.080700
     30 HO2'        2.1160    1.9740    0.5510 ho        1 P2P      0.429000
     31 H1'         1.4310   -1.6380    1.3170 h2        1 P2P      0.067700
     32 H8         -0.4380    1.7260    0.6930 h5        1 P2P      0.127800
     33 H6          0.9600   -2.3570    3.5410 h4        1 P2P      0.028100
     34 HO11       -1.7340    0.0230    7.2610 ho        1 P2P      0.429000
@<TRIPOS>BOND
     1    1    2 1   
     2    1    3 1   
     3    1    4 1   
     4    1    5 1   
     5    5    6 1   
     6    6    7 1   
     7    6   24 1   
     8    6   25 1   
     9    7    8 1   
    10    7    9 1   
    11    7   26 1   
    12    8   13 1   
    13    9   10 1   
    14    9   11 1   
    15    9   27 1   
    16   10   28 1   
    17   11   12 1   
    18   11   13 1   
    19   11   29 1   
    20   12   30 1   
    21   13   18 1   
    22   13   31 1   
    23   14   15 2   
    24   14   18 1   
    25   14   32 1   
    26   15   16 1   
    27   16   17 ar  
    28   16   19 ar  
    29   17   18 1   
    30   17   22 ar  
    31   19   20 ar  
    32   20   21 ar  
    33   20   23 1   
    34   21   22 ar  
    35   22   33 1   
    36   23   34 1   
@<TRIPOS>SUBSTRUCTURE
     1 P2P         1 TEMP              0 ****  ****    0 ROOT
