@<TRIPOS>MOLECULE
P2P
   34    36     1     0     0
SMALL
bcc


@<TRIPOS>ATOM
      1 P           0.4700   -0.4170   -1.3550 p5        1 P2P      1.332900
      2 O1P         1.8130   -0.1110   -1.9590 o         1 P2P     -0.926167
      3 O2P         0.3880   -1.4140   -0.2450 o         1 P2P     -0.926167
      4 O3P        -0.6320   -0.4180   -2.3980 o         1 P2P     -0.926167
      5 O6'         0.0820    1.0980   -0.5820 os        1 P2P     -0.561200
      6 C5'         0.5900    2.2270   -1.1600 c3        1 P2P      0.225400
      7 C4'        -0.4340    2.8500   -2.1440 c3        1 P2P      0.053100
      8 O5'        -0.0620    4.2300   -2.4050 os        1 P2P     -0.424600
      9 C3'        -0.4420    2.1070   -3.4960 c3        1 P2P      0.088100
     10 O3'        -1.7420    1.6530   -3.8090 oh        1 P2P     -0.702800
     11 C2'        -0.0140    3.1580   -4.5370 c3        1 P2P      0.111100
     12 O2'        -0.6730    3.0970   -5.7750 oh        1 P2P     -0.610800
     13 C1'        -0.2110    4.5210   -3.7840 c3        1 P2P      0.211800
     14 C8         -2.7680    4.5830   -3.9430 cc        1 P2P      0.481700
     15 N9         -3.7920    5.4320   -4.1960 nd        1 P2P     -0.688700
     16 C4         -3.1750    6.6730   -4.4670 ca        1 P2P      0.577300
     17 C5         -1.7080    6.5040   -4.3570 ca        1 P2P     -0.331800
     18 N7         -1.4970    5.1650   -4.0380 na        1 P2P     -0.128300
     19 N3         -3.7240    7.8760   -4.7880 nb        1 P2P     -0.729000
     20 C2         -2.8020    8.8670   -4.9840 ca        1 P2P      0.805300
     21 N1         -1.4230    8.8170   -4.9040 nb        1 P2P     -0.712000
     22 C6         -0.8950    7.6240   -4.5880 ca        1 P2P      0.462200
     23 O11        -3.2850   10.1260   -5.3160 oh        1 P2P     -0.611300
     24 H5'1        1.5460    2.0090   -1.7150 h1        1 P2P      0.010700
     25 H5'2        0.7860    3.0020   -0.3630 h1        1 P2P      0.010700
     26 H4'        -1.4580    2.8620   -1.6900 h1        1 P2P      0.057700
     27 H3'         0.2640    1.2130   -3.4330 h1        1 P2P      0.176700
     28 HO3'       -1.7950    0.7460   -3.4210 ho        1 P2P      0.513000
     29 H2'         1.0830    3.0630   -4.7630 h1        1 P2P      0.080700
     30 HO2'       -1.4900    2.5910   -5.6510 ho        1 P2P      0.429000
     31 H1'         0.5860    5.2740   -4.0420 h2        1 P2P      0.067700
     32 H8         -2.8700    3.5070   -3.6850 h5        1 P2P      0.127800
     33 H6          0.2060    7.5780   -4.5200 h4        1 P2P      0.028100
     34 HO11       -4.2540   10.0690   -5.3400 ho        1 P2P      0.429000
@<TRIPOS>BOND
     1    1    2 1   
     2    1    3 1   
     3    1    4 1   
     4    1    5 1   
     5    5    6 1   
     6    6    7 1   
     7    6   24 1   
     8    6   25 1   
     9    7    8 1   
    10    7    9 1   
    11    7   26 1   
    12    8   13 1   
    13    9   10 1   
    14    9   11 1   
    15    9   27 1   
    16   10   28 1   
    17   11   12 1   
    18   11   13 1   
    19   11   29 1   
    20   12   30 1   
    21   13   18 1   
    22   13   31 1   
    23   14   15 2   
    24   14   18 1   
    25   14   32 1   
    26   15   16 1   
    27   16   17 ar  
    28   16   19 ar  
    29   17   18 1   
    30   17   22 ar  
    31   19   20 ar  
    32   20   21 ar  
    33   20   23 1   
    34   21   22 ar  
    35   22   33 1   
    36   23   34 1   
@<TRIPOS>SUBSTRUCTURE
     1 P2P         1 TEMP              0 ****  ****    0 ROOT
