@<TRIPOS>MOLECULE
P2Q
   49    44     1     0     0
SMALL
bcc


@<TRIPOS>ATOM
      1 C          -1.2830   -6.5290    0.0970 c1        1 P2Q      0.316000
      2 N          -1.3180   -6.3630   -2.2930 n3        1 P2Q     -0.353000
      3 O          -0.3680   -6.4590    0.9600 o         1 P2Q     -0.567000
      4 C1          0.4870    0.0980    0.9500 c3        1 P2Q     -0.069000
      5 C2          0.6940    0.7110    2.3180 c2        1 P2Q     -0.144000
      6 C3          1.1290    1.9880    2.4290 c1        1 P2Q     -0.179000
      7 C4          1.4100    2.8040    1.1840 c2        1 P2Q     -0.007000
      8 C5          1.4930   -1.0120    0.7380 c2        1 P2Q      0.154000
      9 C6          2.3440    4.9640    1.3040 c1        1 P2Q      0.083000
     10 C7          2.4750    5.7520    2.4370 c1        1 P2Q     -0.167000
     11 C8          2.3450    7.1280    2.3430 c1        1 P2Q     -0.141000
     12 C9          2.0840    7.7170    1.1160 c1        1 P2Q     -0.141000
     13 CA         -1.2710   -5.5990   -1.0930 c2        1 P2Q     -0.137000
     14 CB         -2.4730   -4.6850   -1.0300 c3        1 P2Q     -0.117000
     15 CG         -2.0260   -3.2510   -1.2100 c2        1 P2Q     -0.124000
     16 CZ         -1.3270   -0.5860   -1.5090 c1        1 P2Q      0.082000
     17 C10         1.9540    6.9300   -0.0170 c1        1 P2Q     -0.096000
     18 C11         2.0840    5.5540    0.0770 c2        1 P2Q     -0.192000
     19 OAD        -2.6750   -3.3540   -3.5370 oh        1 P2Q     -0.290000
     20 NAS        -0.8280   -0.4320    0.8620 n3        1 P2Q     -0.227000
     21 OAT         2.5680    3.5800    1.3830 o         1 P2Q     -0.221000
     22 OAZ        -1.4510    0.7110   -2.0360 o         1 P2Q     -0.270000
     23 OC5         1.4540   -2.0100    1.4340 o         1 P2Q     -0.296000
     24 CD1        -1.5610   -2.5290   -0.1220 c2        1 P2Q     -0.110000
     25 CD2        -2.1410   -2.6400   -2.4480 c2        1 P2Q      0.134000
     26 CE1        -1.2120   -1.1960   -0.2720 c2        1 P2Q     -0.080000
     27 CE2        -1.7920   -1.3080   -2.5980 c2        1 P2Q     -0.252000
     28 OXT        -2.2070   -7.3740    0.2270 o         1 P2Q     -0.567000
     29 H          -0.5070   -6.3150   -2.7180 hn        1 P2Q      0.143000
     30 HNA        -1.5060   -7.2370   -2.0920 hn        1 P2Q      0.143000
     31 H1          0.6090    0.7820    0.2650 h1        1 P2Q      0.145000
     32 H2          0.5130    0.1850    3.1220 ha        1 P2Q      0.134000
     33 H3          1.2620    2.3830    3.3110 ha        1 P2Q      0.133000
     34 H4          1.5480    2.2030    0.4250 h4        1 P2Q      0.122500
     35 H4A         0.6490    3.3930    1.0000 h4        1 P2Q      0.122500
     36 H5          2.1700   -0.9310    0.0370 h4        1 P2Q      0.111000
     37 H7          2.6640    5.3370    3.3010 ha        1 P2Q      0.140000
     38 H8          2.4360    7.6820    3.1410 ha        1 P2Q      0.124000
     39 H9          1.9930    8.6860    1.0500 ha        1 P2Q      0.124000
     40 HA         -0.4530   -5.0630   -1.0800 h4        1 P2Q      0.083000
     41 HB         -3.1010   -4.9220   -1.7420 hc        1 P2Q      0.104500
     42 HBA        -2.9120   -4.7830   -0.1610 hc        1 P2Q      0.104500
     43 H10         1.7710    7.3460   -0.8820 ha        1 P2Q      0.133000
     44 H11         1.9910    5.0000   -0.7210 ha        1 P2Q      0.165000
     45 HOAD       -2.2200   -3.1540   -4.2730 ho        1 P2Q      0.278000
     46 HNAS       -1.4250   -0.2830    1.5350 hn        1 P2Q      0.167000
     47 HOAZ       -0.7150    0.9180   -2.4890 ho        1 P2Q      0.213000
     48 HD1        -1.4800   -2.9590    0.7500 ha        1 P2Q      0.146000
     49 HE2        -1.8730   -0.8780   -3.4710 ha        1 P2Q      0.140000
@<TRIPOS>BOND
     1    1    3 1   
     2    1   28 1   
     3    2   13 1   
     4    2   29 1   
     5    2   30 1   
     6    4    5 1   
     7    4    8 1   
     8    4   20 1   
     9    4   31 1   
    10    5    6 1   
    11    5   32 1   
    12    6   33 1   
    13    7   21 1   
    14    7   34 1   
    15    7   35 1   
    16    8   23 1   
    17    8   36 1   
    18    9   10 1   
    19    9   18 1   
    20   10   37 1   
    21   11   12 1   
    22   11   38 1   
    23   12   39 1   
    24   13   14 1   
    25   13   40 1   
    26   14   15 1   
    27   14   41 1   
    28   14   42 1   
    29   15   24 1   
    30   15   25 1   
    31   16   26 1   
    32   16   27 1   
    33   17   18 1   
    34   17   43 1   
    35   18   44 1   
    36   19   25 1   
    37   19   45 1   
    38   20   26 1   
    39   20   46 1   
    40   22   47 1   
    41   24   26 1   
    42   24   48 1   
    43   25   27 1   
    44   27   49 1   
@<TRIPOS>SUBSTRUCTURE
     1 P2Q         1 TEMP              0 ****  ****    0 ROOT
