@<TRIPOS>MOLECULE
P2Q
   49    50     1     0     0
SMALL
bcc


@<TRIPOS>ATOM
      1 C          -7.3900    0.2080   -0.3050 c         1 P2Q      0.884600
      2 N          -6.0140   -0.4930   -2.3210 n3        1 P2Q     -0.882800
      3 O          -8.3960    0.1980   -1.0620 o         1 P2Q     -0.835800
      4 C1          0.8580    0.6620   -0.3430 c3        1 P2Q      0.088700
      5 C2          2.2320    0.1850   -0.7370 c2        1 P2Q     -0.149200
      6 C3          3.2360    0.0920    0.1370 c2        1 P2Q     -0.172200
      7 C4          4.5840   -0.3960   -0.2630 c3        1 P2Q      0.160600
      8 C5          0.6990    2.0520   -0.9590 c         1 P2Q      0.545900
      9 C6          6.8110   -0.3260    0.5880 ca        1 P2Q      0.132100
     10 C7          7.2970   -1.0870   -0.4820 ca        1 P2Q     -0.182000
     11 C8          8.6560   -1.4010   -0.5300 ca        1 P2Q     -0.098500
     12 C9          9.5210   -0.9660    0.4700 ca        1 P2Q     -0.170000
     13 CA         -5.9980   -0.1860   -0.8970 c3        1 P2Q      0.015500
     14 CB         -4.9820    0.9110   -0.5330 c3        1 P2Q     -0.027100
     15 CG         -3.7660    0.3580    0.1240 ca        1 P2Q     -0.150300
     16 CZ         -1.4490   -0.6510    1.3540 ca        1 P2Q      0.139100
     17 C10         9.0280   -0.2070    1.5350 ca        1 P2Q     -0.098500
     18 C11         7.6800    0.1190    1.6060 ca        1 P2Q     -0.182000
     19 NAS        -0.1640   -0.3120   -0.7220 nh        1 P2Q     -0.680600
     20 OAT         5.4950    0.0540    0.7530 os        1 P2Q     -0.327900
     21 OAZ        -0.3440   -1.1130    2.0440 oh        1 P2Q     -0.523100
     22 CD1        -2.5620    0.3030   -0.5710 ca        1 P2Q     -0.088000
     23 CD2        -3.8060   -0.1040    1.4610 ca        1 P2Q      0.189100
     24 CE1        -1.3800   -0.1910    0.0170 ca        1 P2Q     -0.064400
     25 CE2        -2.6460   -0.6070    2.0720 ca        1 P2Q     -0.209000
     26 OXT        -7.4250    0.5000    0.9290 o         1 P2Q     -0.835800
     27 H          -6.7720   -1.1370   -2.4780 hn        1 P2Q      0.333800
     28 HNA        -6.2490    0.3450   -2.8250 hn        1 P2Q      0.333800
     29 H1          0.8080    0.7800    0.7840 h1        1 P2Q      0.091700
     30 H2          2.3510   -0.0910   -1.7980 ha        1 P2Q      0.132000
     31 H3          3.1260    0.3590    1.2010 ha        1 P2Q      0.150000
     32 H4          4.5980   -1.5190   -0.3020 h1        1 P2Q      0.048700
     33 H4A         4.9020    0.0210   -1.2560 h1        1 P2Q      0.048700
     34 H5          1.0350    2.8910   -0.3120 h4        1 P2Q      0.000200
     35 H7          6.6290   -1.4390   -1.2800 ha        1 P2Q      0.143500
     36 H8          9.0410   -1.9990   -1.3690 ha        1 P2Q      0.129500
     37 H9         10.5890   -1.2190    0.4240 ha        1 P2Q      0.129000
     38 HA         -5.7000   -1.1390   -0.3680 h1        1 P2Q      0.050700
     39 HB         -4.6840    1.5000   -1.4400 hc        1 P2Q      0.056200
     40 HBA        -5.4790    1.6330    0.1760 hc        1 P2Q      0.056200
     41 H10         9.7120    0.1360    2.3260 ha        1 P2Q      0.129500
     42 H11         7.2760    0.7140    2.4370 ha        1 P2Q      0.143500
     43 HOAD       -5.7150    0.1510    1.7100 ho        1 P2Q      0.500000
     44 HNAS       -0.3450   -0.2530   -1.7090 hn        1 P2Q      0.382800
     45 HOAZ        0.2380   -1.5490    1.4060 ho        1 P2Q      0.422000
     46 HD1        -2.5420    0.6540   -1.6170 ha        1 P2Q      0.138000
     47 HE2        -2.6810   -0.9640    3.1100 ha        1 P2Q      0.154000
     48 OAD        -4.9190   -0.0870    2.2460 oh        1 P2Q     -0.529100
     49 OC5         0.2480    2.2400   -2.0880 o         1 P2Q     -0.525100
@<TRIPOS>BOND
     1    1    3 1   
     2    1   13 1   
     3    1   26 1   
     4    2   13 1   
     5    2   27 1   
     6    2   28 1   
     7    4    5 1   
     8    4    8 1   
     9    4   19 1   
    10    4   29 1   
    11    5    6 2   
    12    5   30 1   
    13    6    7 1   
    14    6   31 1   
    15    7   20 1   
    16    7   32 1   
    17    7   33 1   
    18    8   34 1   
    19    8   49 2   
    20    9   10 ar  
    21    9   18 ar  
    22    9   20 1   
    23   10   11 ar  
    24   10   35 1   
    25   11   12 ar  
    26   11   36 1   
    27   12   17 ar  
    28   12   37 1   
    29   13   14 1   
    30   13   38 1   
    31   14   15 1   
    32   14   39 1   
    33   14   40 1   
    34   15   22 ar  
    35   15   23 ar  
    36   16   21 1   
    37   16   24 ar  
    38   16   25 ar  
    39   17   18 ar  
    40   17   41 1   
    41   18   42 1   
    42   19   24 1   
    43   19   44 1   
    44   21   45 1   
    45   22   24 ar  
    46   22   46 1   
    47   23   25 ar  
    48   23   48 1   
    49   25   47 1   
    50   43   48 1   
@<TRIPOS>SUBSTRUCTURE
     1 P2Q         1 TEMP              0 ****  ****    0 ROOT
