@<TRIPOS>MOLECULE
P2S
   37    36     1     0     0
SMALL
bcc


@<TRIPOS>ATOM
      1 OP3         0.4430    0.9860    0.9460 o         1 P2S     -0.908000
      2 P           1.7880    0.5860    0.4250 p5        1 P2S      1.701600
      3 OP1         2.6600    0.7800    1.8340 oh        1 P2S     -0.804400
      4 OP2         2.4640    1.4560   -0.5810 o         1 P2S     -0.908000
      5 NS          1.8840   -0.9520    0.0580 n2        1 P2S     -1.126700
      6 S           2.0080   -2.2640   -0.3070 s6        1 P2S      1.309700
      7 OS          1.2150   -3.2940    0.3090 o         1 P2S     -0.685800
      8 CD          1.8470   -2.4580   -2.0380 c3        1 P2S     -0.274600
      9 CE          0.5040   -2.9670   -2.5330 c3        1 P2S     -0.139700
     10 C2          0.6400   -3.7250   -3.8780 c         1 P2S      0.912600
     11 O2T        -0.3180   -4.4780   -4.2370 o         1 P2S     -0.867300
     12 O2          1.6830   -3.5860   -4.5810 o         1 P2S     -0.867300
     13 CF         -0.4840   -1.8200   -2.6960 c3        1 P2S     -0.060400
     14 CH         -1.9060   -2.3130   -2.7800 c3        1 P2S     -0.093100
     15 CG          3.6680   -2.8160   -0.2190 c3        1 P2S     -0.269600
     16 CB          4.2990   -2.9360    1.1560 c3        1 P2S     -0.038400
     17 CA          4.0630   -4.3010    1.8200 c3        1 P2S      0.061500
     18 N           2.8970   -4.2790    2.6880 n3        1 P2S     -0.917800
     19 C1          5.3240   -4.8350    2.5720 c         1 P2S      0.914600
     20 O1          6.4520   -4.2970    2.3820 o         1 P2S     -0.868300
     21 O1T         5.1740   -5.8600    3.3070 o         1 P2S     -0.868300
     22 HD1         2.0710   -1.5020   -2.5810 h1        1 P2S      0.109200
     23 HD2         2.6110   -3.1810   -2.4370 h1        1 P2S      0.109200
     24 HE          0.0950   -3.7030   -1.7850 hc        1 P2S      0.062700
     25 HF1        -0.2260   -1.2500   -3.6270 hc        1 P2S      0.031200
     26 HF2        -0.3900   -1.1090   -1.8340 hc        1 P2S      0.031200
     27 HH1        -1.9800   -3.1250   -3.5480 hc        1 P2S      0.023700
     28 HH2        -2.2350   -2.7260   -1.7960 hc        1 P2S      0.023700
     29 HH3        -2.5940   -1.4770   -3.0570 hc        1 P2S      0.023700
     30 HG1         4.3150   -2.1310   -0.8260 h1        1 P2S      0.082200
     31 HG2         3.7330   -3.8200   -0.7150 h1        1 P2S      0.082200
     32 HB1         3.9420   -2.1020    1.8150 hc        1 P2S      0.064200
     33 HB2         5.4120   -2.8140    1.0500 hc        1 P2S      0.064200
     34 HA          3.9250   -5.0620    0.9850 h1        1 P2S     -0.008300
     35 HN1         2.9060   -5.1030    3.2590 hn        1 P2S      0.346800
     36 HN2         2.0710    0.8620    2.5730 ho        1 P2S      0.403000
     37 HN3         2.0610   -4.2650    2.1330 hn        1 P2S      0.346800
@<TRIPOS>BOND
     1    1    2 1   
     2    2    3 1   
     3    2    4 1   
     4    2    5 1   
     5    3   36 1   
     6    5    6 2   
     7    6    7 2   
     8    6    8 1   
     9    6   15 1   
    10    8    9 1   
    11    8   22 1   
    12    8   23 1   
    13    9   10 1   
    14    9   13 1   
    15    9   24 1   
    16   10   11 1   
    17   10   12 1   
    18   13   14 1   
    19   13   25 1   
    20   13   26 1   
    21   14   27 1   
    22   14   28 1   
    23   14   29 1   
    24   15   16 1   
    25   15   30 1   
    26   15   31 1   
    27   16   17 1   
    28   16   32 1   
    29   16   33 1   
    30   17   18 1   
    31   17   19 1   
    32   17   34 1   
    33   18   35 1   
    34   18   37 1   
    35   19   20 1   
    36   19   21 1   
@<TRIPOS>SUBSTRUCTURE
     1 P2S         1 TEMP              0 ****  ****    0 ROOT
