@<TRIPOS>MOLECULE
P2S
   36    32     1     0     0
SMALL
bcc


@<TRIPOS>ATOM
      1 OP3        -3.8470    2.1310   -0.4950 o         1 P2S     -1.285500
      2 P          -2.3520    2.0060   -0.3250 p3        1 P2S      2.630000
      3 OP1        -2.0110    1.9960    1.1460 os        1 P2S     -1.291000
      4 OP2        -1.6700    3.1770   -0.9920 o         1 P2S     -1.285500
      5 NS         -1.8340    0.5990   -1.0200 n2        1 P2S     -1.576000
      6 S          -0.4060    0.0440   -0.6940 ss        1 P2S      2.842000
      7 OS         -0.0740   -0.9560   -1.6710 o         1 P2S     -0.995000
      8 CD          0.7490    1.1460    0.0780 c2        1 P2S     -0.780000
      9 CE          1.8530    1.4850   -0.8990 c3        1 P2S     -0.106000
     10 C2          2.8630    0.3600   -0.9300 c2        1 P2S      0.330000
     11 O2T         2.9100   -0.4170   -1.9200 o         1 P2S     -0.627000
     12 O2          3.6580    0.2010    0.0330 o         1 P2S     -0.627000
     13 CF          2.5350    2.7640   -0.4650 c3        1 P2S     -0.163000
     14 CH          3.2490    3.3820   -1.6470 c3        1 P2S     -0.196000
     15 CG         -0.7370   -0.9950    0.7030 c2        1 P2S     -0.800000
     16 CB         -1.5540   -2.1890    0.2610 c3        1 P2S     -0.088000
     17 CA         -1.7080   -3.1500    1.4180 c3        1 P2S     -0.087000
     18 N          -1.4540   -4.4760    0.9700 n3        1 P2S     -0.330000
     19 C1         -3.1150   -3.0630    1.9610 c2        1 P2S      0.335000
     20 O1         -3.3500   -2.3830    2.9950 o         1 P2S     -0.615000
     21 O1T        -4.0530   -3.6710    1.3810 o         1 P2S     -0.615000
     22 HD1         0.2880    1.9650    0.3470 ha        1 P2S      0.121500
     23 HD2         1.1340    0.7140    0.8670 ha        1 P2S      0.121500
     24 HE          1.4730    1.6060   -1.7900 hc        1 P2S      0.088000
     25 HF1         3.1840    2.5640    0.2390 hc        1 P2S      0.100000
     26 HF2         1.8660    3.3910   -0.1240 hc        1 P2S      0.100000
     27 HH1         4.1620    3.0290   -1.6980 hc        1 P2S      0.047000
     28 HH2         3.2800    4.3550   -1.5380 hc        1 P2S      0.047000
     29 HH3         2.7670    3.1610   -2.4720 hc        1 P2S      0.047000
     30 HG1         0.1080   -1.3020    1.0890 ha        1 P2S      0.106500
     31 HG2        -1.2370   -0.4890    1.3750 ha        1 P2S      0.106500
     32 HB1        -1.0990   -2.6400   -0.4780 hc        1 P2S      0.091000
     33 HB2        -2.4370   -1.8900   -0.0330 hc        1 P2S      0.091000
     34 HA         -1.0710   -2.9170    2.1220 h1        1 P2S      0.028000
     35 HN1        -1.4080   -5.0390    1.6910 hn        1 P2S      0.117000
     36 HN2        -0.6590   -4.4980    0.5150 hn        1 P2S      0.117000
@<TRIPOS>BOND
     1    1    2 1   
     2    2    4 1   
     3    2    5 1   
     4    5    6 1   
     5    6    7 1   
     6    8    9 1   
     7    8   22 1   
     8    8   23 1   
     9    9   10 1   
    10    9   13 1   
    11    9   24 1   
    12   10   11 1   
    13   10   12 1   
    14   13   14 1   
    15   13   25 1   
    16   13   26 1   
    17   14   27 1   
    18   14   28 1   
    19   14   29 1   
    20   15   16 1   
    21   15   30 1   
    22   15   31 1   
    23   16   17 1   
    24   16   32 1   
    25   16   33 1   
    26   17   18 1   
    27   17   19 1   
    28   17   34 1   
    29   18   35 1   
    30   18   36 1   
    31   19   20 1   
    32   19   21 1   
@<TRIPOS>SUBSTRUCTURE
     1 P2S         1 TEMP              0 ****  ****    0 ROOT
