@<TRIPOS>MOLECULE
P2S
   37    36     1     0     0
SMALL
bcc


@<TRIPOS>ATOM
      1 OP3         0.3360    0.8620    1.1270 o         1 P2S     -0.908000
      2 P           1.6910    0.5310    0.5850 p5        1 P2S      1.701600
      3 OP1         2.5620    0.6820    2.0000 oh        1 P2S     -0.804400
      4 OP2         2.3370    1.4720   -0.3770 o         1 P2S     -0.908000
      5 NS          1.8350   -0.9820    0.1400 n2        1 P2S     -1.126700
      6 S           1.9980   -2.2690   -0.2910 s6        1 P2S      1.309700
      7 OS          1.2420   -3.3540    0.2760 o         1 P2S     -0.685800
      8 CD          1.8350   -2.3820   -2.0280 c3        1 P2S     -0.274600
      9 CE          0.5060   -2.9080   -2.5440 c3        1 P2S     -0.139700
     10 C2          0.6600   -3.5920   -3.9260 c         1 P2S      0.912600
     11 O2T        -0.2750   -4.3570   -4.3190 o         1 P2S     -0.867300
     12 O2          1.6930   -3.3830   -4.6260 o         1 P2S     -0.867300
     13 CF         -0.5190   -1.7870   -2.6450 c3        1 P2S     -0.060400
     14 CH         -1.9250   -2.3210   -2.7490 c3        1 P2S     -0.093100
     15 CG          3.6750   -2.7720   -0.2360 c3        1 P2S     -0.269600
     16 CB          4.3170   -2.9410    1.1280 c3        1 P2S     -0.038400
     17 CA          4.1280   -4.3450    1.7230 c3        1 P2S      0.061500
     18 N           2.9660   -4.4040    2.5950 n3        1 P2S     -0.917800
     19 C1          5.4090   -4.8760    2.4420 c         1 P2S      0.914600
     20 O1          6.5180   -4.2920    2.2760 o         1 P2S     -0.868300
     21 O1T         5.2960   -5.9410    3.1250 o         1 P2S     -0.868300
     22 HD1         2.0250   -1.3930   -2.5240 h1        1 P2S      0.109200
     23 HD2         2.6190   -3.0590   -2.4660 h1        1 P2S      0.109200
     24 HE          0.1250   -3.6930   -1.8330 hc        1 P2S      0.062700
     25 HF1        -0.2850   -1.1620   -3.5460 hc        1 P2S      0.031200
     26 HF2        -0.4440   -1.1170   -1.7480 hc        1 P2S      0.031200
     27 HH1        -2.2360   -2.7940   -1.7860 hc        1 P2S      0.023700
     28 HH2        -2.6410   -1.4950   -2.9810 hc        1 P2S      0.023700
     29 HH3        -1.9770   -3.0950   -3.5570 hc        1 P2S      0.023700
     30 HG1         3.7700   -3.7470   -0.7840 h1        1 P2S      0.082200
     31 HG2         4.2970   -2.0360   -0.8100 h1        1 P2S      0.082200
     32 HB1         5.4250   -2.7780    1.0250 hc        1 P2S      0.064200
     33 HB2         3.9370   -2.1530    1.8300 hc        1 P2S      0.064200
     34 HA          4.0100   -5.0660    0.8510 h1        1 P2S     -0.008300
     35 HN1         2.1280   -4.3890    2.0440 hn        1 P2S      0.346800
     36 HN2         3.0040   -5.2550    3.1230 hn        1 P2S      0.346800
     37 HN3         1.9730    0.7080    2.7430 ho        1 P2S      0.403000
@<TRIPOS>BOND
     1    1    2 1   
     2    2    3 1   
     3    2    4 1   
     4    2    5 1   
     5    3   37 1   
     6    5    6 2   
     7    6    7 2   
     8    6    8 1   
     9    6   15 1   
    10    8    9 1   
    11    8   22 1   
    12    8   23 1   
    13    9   10 1   
    14    9   13 1   
    15    9   24 1   
    16   10   11 1   
    17   10   12 1   
    18   13   14 1   
    19   13   25 1   
    20   13   26 1   
    21   14   27 1   
    22   14   28 1   
    23   14   29 1   
    24   15   16 1   
    25   15   30 1   
    26   15   31 1   
    27   16   17 1   
    28   16   32 1   
    29   16   33 1   
    30   17   18 1   
    31   17   19 1   
    32   17   34 1   
    33   18   35 1   
    34   18   36 1   
    35   19   20 1   
    36   19   21 1   
@<TRIPOS>SUBSTRUCTURE
     1 P2S         1 TEMP              0 ****  ****    0 ROOT
