@<TRIPOS>MOLECULE
P2S
   36    35     1     0     0
SMALL
bcc


@<TRIPOS>ATOM
      1 OP3        -0.2850   -4.3890   -0.5720 o         1 P2S     -0.966167
      2 P           0.5320   -3.3300   -1.2980 p5        1 P2S      1.520700
      3 OP1         0.0580   -3.1200   -2.7280 o         1 P2S     -0.966167
      4 OP2         2.0290   -3.5890   -1.2090 o         1 P2S     -0.966167
      5 NS          0.2570   -1.8630   -0.4760 n2        1 P2S     -0.994700
      6 S          -0.0120   -0.6860    0.1210 s6        1 P2S      1.213700
      7 OS         -0.0760   -0.5240    1.5640 o         1 P2S     -0.717800
      8 CD          0.9790    0.6750   -0.4340 c3        1 P2S     -0.240600
      9 CE          2.3180    0.8810    0.2470 c3        1 P2S     -0.116700
     10 C2          2.8430    2.3270    0.1020 c         1 P2S      0.909600
     11 O2T         2.6720    2.9820   -0.9700 o         1 P2S     -0.892300
     12 O2          3.4930    2.8350    1.0750 o         1 P2S     -0.892300
     13 CF          3.3750   -0.0680   -0.3070 c3        1 P2S     -0.084400
     14 CH          4.5940   -0.1160    0.5810 c3        1 P2S     -0.078100
     15 CG         -1.5740   -0.0070   -0.4630 c3        1 P2S     -0.256600
     16 CB         -2.3300    0.9000    0.4780 c3        1 P2S     -0.040400
     17 CA         -3.5780    1.5320   -0.1710 c3        1 P2S      0.044500
     18 N          -3.2900    2.5460   -1.1790 n3        1 P2S     -0.912800
     19 C1         -4.5420    2.0830    0.9220 c         1 P2S      0.912600
     20 O1         -5.4650    1.3270    1.3490 o         1 P2S     -0.880300
     21 O1T        -4.4180    3.2810    1.3250 o         1 P2S     -0.880300
     22 HD1         0.3960    1.6210   -0.2840 h1        1 P2S      0.079700
     23 HD2         1.1600    0.5980   -1.5360 h1        1 P2S      0.079700
     24 HE          2.1880    0.6830    1.3480 hc        1 P2S      0.048700
     25 HF1         3.6710    0.2870   -1.3300 hc        1 P2S      0.061200
     26 HF2         2.9570   -1.1050   -0.4230 hc        1 P2S      0.061200
     27 HH1         4.9300    0.9210    0.8320 hc        1 P2S      0.008033
     28 HH2         4.3600   -0.6490    1.5340 hc        1 P2S      0.008033
     29 HH3         5.4280   -0.6600    0.0750 hc        1 P2S      0.008033
     30 HG1        -1.3830    0.5180   -1.4300 h1        1 P2S      0.069700
     31 HG2        -2.2430   -0.8710   -0.7180 h1        1 P2S      0.069700
     32 HB1        -2.6660    0.3080    1.3690 hc        1 P2S      0.044200
     33 HB2        -1.6500    1.7080    0.8570 hc        1 P2S      0.044200
     34 HA         -4.1310    0.7050   -0.7060 h1        1 P2S      0.041700
     35 HN1        -3.2760    3.4460   -0.7290 hn        1 P2S      0.329300
     36 HN2        -2.3730    2.3870   -1.5570 hn        1 P2S      0.329300
@<TRIPOS>BOND
     1    1    2 1   
     2    2    3 1   
     3    2    4 1   
     4    2    5 1   
     5    5    6 2   
     6    6    7 2   
     7    6    8 1   
     8    6   15 1   
     9    8    9 1   
    10    8   22 1   
    11    8   23 1   
    12    9   10 1   
    13    9   13 1   
    14    9   24 1   
    15   10   11 1   
    16   10   12 1   
    17   13   14 1   
    18   13   25 1   
    19   13   26 1   
    20   14   27 1   
    21   14   28 1   
    22   14   29 1   
    23   15   16 1   
    24   15   30 1   
    25   15   31 1   
    26   16   17 1   
    27   16   32 1   
    28   16   33 1   
    29   17   18 1   
    30   17   19 1   
    31   17   34 1   
    32   18   35 1   
    33   18   36 1   
    34   19   20 1   
    35   19   21 1   
@<TRIPOS>SUBSTRUCTURE
     1 P2S         1 TEMP              0 ****  ****    0 ROOT
