@<TRIPOS>MOLECULE
P2S
   37    36     1     0     0
SMALL
bcc


@<TRIPOS>ATOM
      1 OP3         0.5120    1.0000    0.9830 o         1 P2S     -0.908000
      2 P           1.8500    0.5790    0.4610 p5        1 P2S      1.701600
      3 OP1         2.7220    0.7400    1.8740 oh        1 P2S     -0.804400
      4 OP2         2.5460    1.4460   -0.5330 o         1 P2S     -0.908000
      5 NS          1.9170   -0.9560    0.0760 n2        1 P2S     -1.126700
      6 S           2.0140   -2.2660   -0.3040 s6        1 P2S      1.309700
      7 OS          1.2010   -3.2880    0.3010 o         1 P2S     -0.685800
      8 CD          1.8510   -2.4380   -2.0360 c3        1 P2S     -0.274600
      9 CE          0.4990   -2.9150   -2.5380 c3        1 P2S     -0.139700
     10 C2          0.6210   -3.6590   -3.8910 c         1 P2S      0.912600
     11 O2T        -0.3500   -4.3910   -4.2590 o         1 P2S     -0.867300
     12 O2          1.6660   -3.5310   -4.5930 o         1 P2S     -0.867300
     13 CF         -0.4670   -1.7480   -2.6870 c3        1 P2S     -0.060400
     14 CH         -1.8990   -2.2120   -2.7790 c3        1 P2S     -0.093100
     15 CG          3.6630   -2.8520   -0.2210 c3        1 P2S     -0.269600
     16 CB          4.2900   -3.0010    1.1530 c3        1 P2S     -0.038400
     17 CA          4.0270   -4.3680    1.8010 c3        1 P2S      0.061500
     18 N           2.8610   -4.3340    2.6680 n8        1 P2S     -0.917800
     19 C1          5.2770   -4.9360    2.5470 c         1 P2S      0.914600
     20 O1          6.4150   -4.4170    2.3650 o         1 P2S     -0.868300
     21 O1T         5.1070   -5.9670    3.2700 o         1 P2S     -0.868300
     22 HD1         2.0940   -1.4800   -2.5680 h1        1 P2S      0.109200
     23 HD2         2.6010   -3.1710   -2.4430 h1        1 P2S      0.109200
     24 HE          0.0750   -3.6510   -1.7990 hc        1 P2S      0.062700
     25 HF1        -0.1980   -1.1710   -3.6110 hc        1 P2S      0.031200
     26 HF2        -0.3600   -1.0480   -1.8170 hc        1 P2S      0.031200
     27 HH1        -2.2360   -2.6300   -1.8000 hc        1 P2S      0.023700
     28 HH2        -2.5700   -1.3600   -3.0460 hc        1 P2S      0.023700
     29 HH3        -1.9870   -3.0130   -3.5550 hc        1 P2S      0.023700
     30 HG1         3.7090   -3.8510   -0.7290 h1        1 P2S      0.082200
     31 HG2         4.3240   -2.1720   -0.8190 h1        1 P2S      0.082200
     32 HB1         5.4050   -2.9000    1.0500 hc        1 P2S      0.064200
     33 HB2         3.9490   -2.1680    1.8220 hc        1 P2S      0.064200
     34 HA          3.8750   -5.1160    0.9570 h1        1 P2S     -0.008300
     35 HN1         2.0260   -4.2970    2.1130 hn        1 P2S      0.346800
     36 HN2         2.8530   -5.1650    3.2300 hn        1 P2S      0.346800
     37 HN3         2.1330    0.8250    2.6120 ho        1 P2S      0.403000
@<TRIPOS>BOND
     1    1    2 1   
     2    2    3 1   
     3    2    4 1   
     4    2    5 1   
     5    3   37 1   
     6    5    6 2   
     7    6    7 2   
     8    6    8 1   
     9    6   15 1   
    10    8    9 1   
    11    8   22 1   
    12    8   23 1   
    13    9   10 1   
    14    9   13 1   
    15    9   24 1   
    16   10   11 1   
    17   10   12 1   
    18   13   14 1   
    19   13   25 1   
    20   13   26 1   
    21   14   27 1   
    22   14   28 1   
    23   14   29 1   
    24   15   16 1   
    25   15   30 1   
    26   15   31 1   
    27   16   17 1   
    28   16   32 1   
    29   16   33 1   
    30   17   18 1   
    31   17   19 1   
    32   17   34 1   
    33   18   35 1   
    34   18   36 1   
    35   19   20 1   
    36   19   21 1   
@<TRIPOS>SUBSTRUCTURE
     1 P2S         1 TEMP              0 ****  ****    0 ROOT
