@<TRIPOS>MOLECULE
P2T
   44    45     1     0     0
SMALL
bcc


@<TRIPOS>ATOM
      1 P           3.8270   -1.0250   -3.5580 p5        1 P2T      1.427800
      2 OP1         5.1890   -1.5300   -3.8370 o         1 P2T     -0.843000
      3 OP2         3.4280   -0.2740   -4.9570 oh        1 P2T     -0.780400
      4 O5'         3.9810    0.3200   -2.6180 os        1 P2T     -0.585200
      5 C5'         2.8130    0.8790   -2.0970 c3        1 P2T      0.182400
      6 C4'         2.8150    0.7630   -0.5640 c3        1 P2T      0.090100
      7 O4'         2.3420    1.9890    0.0150 os        1 P2T     -0.434600
      8 C1'         1.1070    1.7960    0.7400 c3        1 P2T      0.331500
      9 N1          0.0970    2.7600    0.3480 n         1 P2T     -0.319400
     10 C6         -0.8350    2.4500   -0.6120 c1        1 P2T     -0.081900
     11 C2          0.1380    4.0330    0.9780 c         1 P2T      0.722100
     12 O2          0.9400    4.3380    1.9040 o         1 P2T     -0.709100
     13 N3         -0.8050    4.9870    0.5700 n         1 P2T     -0.595500
     14 C4         -1.7870    4.7250   -0.4180 c         1 P2T      0.676300
     15 O4         -2.5670    5.6770   -0.6830 o         1 P2T     -0.724100
     16 C5         -1.7750    3.3980   -0.9890 ce        1 P2T     -0.499500
     17 C5M        -2.7950    3.0770   -2.0020 c3        1 P2T      0.044100
     18 C2'         0.6830    0.3120    0.5260 c3        1 P2T      0.073100
     19 O2'         0.3590   -0.1900    1.8240 os        1 P2T     -0.429600
     20 CB'        -0.3300   -1.4370    1.7600 c3        1 P2T      0.131400
     21 CC'        -0.6590   -1.8260    3.1910 c3        1 P2T     -0.086400
     22 CD'        -1.4000   -3.1360    3.2310 c3        1 P2T     -0.088100
     23 C3'         1.9360   -0.3870   -0.0420 c3        1 P2T      0.078100
     24 O3'         2.6020   -1.1430    0.9540 oh        1 P2T     -0.599800
     25 OP3         2.6740   -1.8020   -3.0610 o         1 P2T     -0.843000
     26 H5'         2.7990    1.9740   -2.3620 h1        1 P2T      0.046700
     27 H5''        1.9080    0.3740   -2.5340 h1        1 P2T      0.046700
     28 H4'         3.8740    0.6480   -0.2010 h1        1 P2T      0.069700
     29 H1'         1.3690    1.9840    1.8260 h2        1 P2T      0.075700
     30 H6          4.2000   -0.0450   -5.4600 ho        1 P2T      0.418000
     31 HN3        -0.7620    5.8820    0.9970 hn        1 P2T      0.300500
     32 H71        -2.5780    2.0880   -2.4750 hc        1 P2T      0.000700
     33 H72        -2.8220    3.8600   -2.8010 hc        1 P2T      0.000700
     34 H73        -3.8170    3.0330   -1.5430 hc        1 P2T      0.000700
     35 H2'        -0.1900    0.2280   -0.1760 h1        1 P2T      0.126700
     36 HB'1        0.3360   -2.2010    1.2750 h1        1 P2T      0.039200
     37 HB'2       -1.2680   -1.3220    1.1530 h1        1 P2T      0.039200
     38 HC'1        0.2930   -1.9020    3.7790 hc        1 P2T      0.045200
     39 HC'2       -1.2750   -1.0160    3.6610 hc        1 P2T      0.045200
     40 HD'1       -0.7870   -3.9500    2.7730 hc        1 P2T      0.024367
     41 HD'2       -1.6330   -3.4200    4.2850 hc        1 P2T      0.024367
     42 HD'3       -2.3610   -3.0630    2.6650 hc        1 P2T      0.024367
     43 H3'         1.7000   -1.1310   -0.8550 h1        1 P2T      0.142700
     44 HO3'        2.6810   -0.5740    1.7300 ho        1 P2T      0.391000
@<TRIPOS>BOND
     1    1    2 1   
     2    1    3 1   
     3    1    4 1   
     4    1   25 1   
     5    3   30 1   
     6    4    5 1   
     7    5    6 1   
     8    5   26 1   
     9    5   27 1   
    10    6    7 1   
    11    6   23 1   
    12    6   28 1   
    13    7    8 1   
    14    8    9 1   
    15    8   18 1   
    16    8   29 1   
    17    9   10 2   
    18    9   11 1   
    19   10   16 2   
    20   11   12 2   
    21   11   13 1   
    22   13   14 1   
    23   13   31 1   
    24   14   15 2   
    25   14   16 1   
    26   16   17 1   
    27   17   32 1   
    28   17   33 1   
    29   17   34 1   
    30   18   19 1   
    31   18   23 1   
    32   18   35 1   
    33   19   20 1   
    34   20   21 1   
    35   20   36 1   
    36   20   37 1   
    37   21   22 1   
    38   21   38 1   
    39   21   39 1   
    40   22   40 1   
    41   22   41 1   
    42   22   42 1   
    43   23   24 1   
    44   23   43 1   
    45   24   44 1   
@<TRIPOS>SUBSTRUCTURE
     1 P2T         1 TEMP              0 ****  ****    0 ROOT
