@<TRIPOS>MOLECULE
P2T
   44    44     1     0     0
SMALL
bcc


@<TRIPOS>ATOM
      1 P           1.8920    4.8620    1.0430 p4        1 P2T      1.710200
      2 OP1         2.5400    4.7620    2.4030 o         1 P2T     -0.922500
      3 OP2         0.4940    5.4130    1.1900 os        1 P2T     -1.247000
      4 O5'         1.8260    3.4270    0.3850 os        1 P2T     -0.568200
      5 C5'         0.8980    2.4990    0.8940 c3        1 P2T      0.222400
      6 C4'         0.1180    2.0090   -0.1420 c3        1 P2T      0.064100
      7 O4'         0.9770    1.1950   -1.1150 os        1 P2T     -0.431600
      8 C1'         0.6380   -0.0560   -0.9020 c3        1 P2T      0.272500
      9 N1          1.4910   -0.6310    0.0590 n         1 P2T     -0.370000
     10 C6          1.1180   -1.8370    0.7090 cc        1 P2T      0.053600
     11 C2          2.7610    0.0120    0.3870 c         1 P2T      0.794500
     12 O2          3.0340    1.0960   -0.0910 o         1 P2T     -0.713500
     13 N3          3.7180   -0.6600    1.2630 n         1 P2T     -0.598500
     14 C4          3.3500   -1.8590    1.9270 c         1 P2T      0.716700
     15 O4          4.0840   -2.3370    2.7690 o         1 P2T     -0.687500
     16 C5          2.0400   -2.4710    1.6620 cd        1 P2T     -0.291400
     17 C5M         1.6910   -3.8090    2.2770 c3        1 P2T     -0.044900
     18 C2'        -0.8730   -0.0290   -0.3540 c3        1 P2T      0.100100
     19 O2'        -1.8100    0.0870   -1.4700 os        1 P2T     -0.383600
     20 CB'        -2.5790   -1.0720   -1.6920 c3        1 P2T      0.122400
     21 CC'        -3.8190   -0.7110   -2.4790 c3        1 P2T     -0.085400
     22 CD'        -4.2210   -1.8810   -3.3510 c3        1 P2T     -0.088100
     23 C3'        -0.9600    1.0160    0.4110 c3        1 P2T      0.117100
     24 O3'        -2.3070    1.6150    0.3100 oh        1 P2T     -0.626800
     25 OP3         2.7060    5.7800    0.1640 o         1 P2T     -0.971300
     26 H5'         1.3780    1.7570    1.3200 h1        1 P2T     -0.000800
     27 H5''        0.3230    2.9390    1.5560 h1        1 P2T     -0.000800
     28 H4'        -0.3160    2.7480   -0.6140 h1        1 P2T      0.052700
     29 H1'         0.6830   -0.5630   -1.7380 h2        1 P2T      0.095700
     30 H6          0.2470   -2.2390    0.5300 h4        1 P2T      0.304000
     31 HN3         4.5420   -0.2960    1.4040 hn        1 P2T      0.319500
     32 H71         2.3850   -4.4630    2.0500 hc        1 P2T      0.059033
     33 H72         1.6340   -3.7160    3.2510 hc        1 P2T      0.059033
     34 H73         0.8280   -4.1140    1.9270 hc        1 P2T      0.059033
     35 H2'        -1.0600   -0.8390    0.1610 h1        1 P2T      0.059700
     36 HB'1       -2.8400   -1.4600   -0.8320 h1        1 P2T      0.022700
     37 HB'2       -2.0500   -1.7240   -2.1970 h1        1 P2T      0.022700
     38 HC'1       -3.6320    0.0660   -3.0430 hc        1 P2T      0.051700
     39 HC'2       -4.5470   -0.4990   -1.8620 hc        1 P2T      0.051700
     40 HD'1       -5.0880   -1.6940   -3.7690 hc        1 P2T      0.023033
     41 HD'2       -4.2920   -2.6900   -2.8010 hc        1 P2T      0.023033
     42 HD'3       -3.5450   -2.0180   -4.0470 hc        1 P2T      0.023033
     43 H3'        -0.7600    0.7780    1.3370 h1        1 P2T      0.153700
     44 HO3'       -2.6940    1.6090    1.1100 ho        1 P2T      0.476000
@<TRIPOS>BOND
     1    1    2 1   
     2    1    4 1   
     3    1   25 2   
     4    4    5 1   
     5    5    6 1   
     6    5   26 1   
     7    5   27 1   
     8    6    7 1   
     9    6   23 1   
    10    6   28 1   
    11    7    8 1   
    12    8    9 1   
    13    8   18 1   
    14    8   29 1   
    15    9   10 1   
    16    9   11 1   
    17   10   16 2   
    18   10   30 1   
    19   11   12 2   
    20   11   13 1   
    21   13   14 1   
    22   13   31 1   
    23   14   15 2   
    24   14   16 1   
    25   16   17 1   
    26   17   32 1   
    27   17   33 1   
    28   17   34 1   
    29   18   19 1   
    30   18   23 1   
    31   18   35 1   
    32   19   20 1   
    33   20   21 1   
    34   20   36 1   
    35   20   37 1   
    36   21   22 1   
    37   21   38 1   
    38   21   39 1   
    39   22   40 1   
    40   22   41 1   
    41   22   42 1   
    42   23   24 1   
    43   23   43 1   
    44   24   44 1   
@<TRIPOS>SUBSTRUCTURE
     1 P2T         1 TEMP              0 ****  ****    0 ROOT
