@<TRIPOS>MOLECULE
P2U
   31    32     1     0     0
SMALL
bcc


@<TRIPOS>ATOM
      1 N1          0.4200   -1.7170   -2.7610 n         1 P2U     -0.440100
      2 C2          1.8830   -1.7510   -2.7840 c         1 P2U      0.784500
      3 N3          2.6410   -1.6990   -1.5290 n         1 P2U     -0.597500
      4 C4          1.9560   -1.5480   -0.2890 c         1 P2U      0.719700
      5 C5          0.4820   -1.5110   -0.2610 cc        1 P2U     -0.337400
      6 C6         -0.2730   -1.5630   -1.5220 cd        1 P2U      0.093600
      7 O2          2.4770   -1.8210   -3.8550 o         1 P2U     -0.706500
      8 O4          2.5830   -1.5050    0.7480 o         1 P2U     -0.684500
      9 C1'        -0.2300   -1.6210    1.0240 c3        1 P2U      0.223300
     10 C2'         0.4510   -0.6370    2.1120 c3        1 P2U     -0.097400
     11 C3'        -0.4660    0.5560    2.2390 c3        1 P2U      0.108100
     12 C4'        -1.2930    0.4570    1.2620 c3        1 P2U      0.077100
     13 O3'        -1.2100    0.5030    3.5610 oh        1 P2U     -0.631800
     14 O4'        -1.4200   -1.1030    0.9130 os        1 P2U     -0.431600
     15 C5'        -0.7610    1.2240    0.0440 c3        1 P2U      0.190400
     16 O5'        -1.0130    2.6330    0.2150 os        1 P2U     -0.557200
     17 P          -1.4350    3.4950   -1.0650 p5        1 P2U      1.326900
     18 OP1        -0.3110    3.4750   -2.0800 o         1 P2U     -0.927167
     19 OP2        -2.6770    2.9070   -1.6800 o         1 P2U     -0.927167
     20 OP3        -1.7090    4.9300   -0.6420 o         1 P2U     -0.927167
     21 HN1        -0.0480   -1.7490   -3.5430 hn        1 P2U      0.380500
     22 HN3         3.5550   -1.7210   -1.5460 hn        1 P2U      0.323500
     23 H6         -1.2510   -1.5390   -1.5080 h4        1 P2U      0.318000
     24 H1'        -0.1720   -2.5820    1.1890 h1        1 P2U      0.058700
     25 H2'         1.3340   -0.3510    1.8000 hc        1 P2U      0.054200
     26 H2''        0.5310   -1.0920    2.9730 hc        1 P2U      0.054200
     27 H3'         0.0430    1.3820    2.1700 h1        1 P2U      0.086700
     28 H4'        -2.1620    0.8110    1.5240 h1        1 P2U      0.061700
     29 HO3'       -0.9180    1.1570    4.0930 ho        1 P2U      0.396000
     30 H5'         0.2050    1.0730   -0.0400 h1        1 P2U      0.004200
     31 H5''       -1.2120    0.9070   -0.7650 h1        1 P2U      0.004200
@<TRIPOS>BOND
     1    1    2 1   
     2    1    6 1   
     3    1   21 1   
     4    2    3 1   
     5    2    7 2   
     6    3    4 1   
     7    3   22 1   
     8    4    5 1   
     9    4    8 2   
    10    5    6 2   
    11    5    9 1   
    12    6   23 1   
    13    9   10 1   
    14    9   14 1   
    15    9   24 1   
    16   10   11 1   
    17   10   25 1   
    18   10   26 1   
    19   11   12 1   
    20   11   13 1   
    21   11   27 1   
    22   12   14 1   
    23   12   15 1   
    24   12   28 1   
    25   13   29 1   
    26   15   16 1   
    27   15   30 1   
    28   15   31 1   
    29   16   17 1   
    30   17   18 1   
    31   17   19 1   
    32   17   20 1   
@<TRIPOS>SUBSTRUCTURE
     1 P2U         1 TEMP              0 ****  ****    0 ROOT
