@<TRIPOS>MOLECULE
P2U
   31    32     1     0     0
SMALL
bcc


@<TRIPOS>ATOM
      1 N1         -1.1530   -0.9540    4.0820 n         1 P2U     -0.415500
      2 C2         -0.7520   -0.2950    5.2590 c         1 P2U      0.699100
      3 N3          0.4560    0.4070    5.2200 n         1 P2U     -0.594500
      4 C4          1.2540    0.4870    4.0420 c         1 P2U      0.681300
      5 C5          0.7430   -0.1910    2.8680 ce        1 P2U     -0.488500
      6 C6         -0.4480   -0.9070    2.9130 c1        1 P2U     -0.073900
      7 O2         -1.4320   -0.3330    6.3270 o         1 P2U     -0.743100
      8 O4          2.3320    1.1170    4.1750 o         1 P2U     -0.702100
      9 C1'         1.5400   -0.0900    1.6200 c3        1 P2U      0.255300
     10 C2'         1.5530   -1.3760    0.7820 c3        1 P2U     -0.102400
     11 C3'         1.2690   -0.9410   -0.6580 c3        1 P2U      0.136100
     12 C4'         1.1810    0.6010   -0.6030 c3        1 P2U      0.083100
     13 O3'         2.3270   -1.3820   -1.4900 oh        1 P2U     -0.645800
     14 O4'         1.0230    0.9680    0.7730 os        1 P2U     -0.426600
     15 C5'        -0.0050    1.1840   -1.3860 c3        1 P2U      0.200400
     16 O5'         0.4090    1.8410   -2.5470 os        1 P2U     -0.581200
     17 P           0.2070    1.0700   -3.9840 p5        1 P2U      1.439800
     18 OP1        -1.4100    0.8080   -3.9540 oh        1 P2U     -0.789400
     19 OP2         0.5450    2.0030   -5.0740 o         1 P2U     -0.849500
     20 OP3         0.7360   -0.3060   -3.8090 o         1 P2U     -0.849500
     21 HN1        -2.0160   -1.4370    4.1190 hn        1 P2U      0.314500
     22 HN3         0.7500    0.8730    6.0440 hn        1 P2U      0.299500
     23 H6         -1.6160   -0.0880   -3.7130 ho        1 P2U      0.423000
     24 H1'         2.5970    0.2150    1.8740 h1        1 P2U      0.030700
     25 H2'         0.7610   -2.0810    1.1360 hc        1 P2U      0.053200
     26 H2''        2.5460   -1.8820    0.8540 hc        1 P2U      0.053200
     27 H3'         0.3020   -1.3790   -1.0270 h1        1 P2U      0.038700
     28 H4'         2.1410    1.0510   -0.9760 h1        1 P2U      0.051700
     29 HO3'        2.0610   -1.1740   -2.4010 ho        1 P2U      0.452000
     30 H5'        -0.7360    0.3710   -1.6510 h1        1 P2U      0.026200
     31 H5''       -0.5210    1.9460   -0.7360 h1        1 P2U      0.026200
@<TRIPOS>BOND
     1    1    2 1   
     2    1    6 2   
     3    1   21 1   
     4    2    3 1   
     5    2    7 2   
     6    3    4 1   
     7    3   22 1   
     8    4    5 1   
     9    4    8 2   
    10    5    6 2   
    11    5    9 1   
    12    9   10 1   
    13    9   14 1   
    14    9   24 1   
    15   10   11 1   
    16   10   25 1   
    17   10   26 1   
    18   11   12 1   
    19   11   13 1   
    20   11   27 1   
    21   12   14 1   
    22   12   15 1   
    23   12   28 1   
    24   13   29 1   
    25   15   16 1   
    26   15   30 1   
    27   15   31 1   
    28   16   17 1   
    29   17   18 1   
    30   17   19 1   
    31   17   20 1   
    32   18   23 1   
@<TRIPOS>SUBSTRUCTURE
     1 P2U         1 TEMP              0 ****  ****    0 ROOT
