@<TRIPOS>MOLECULE
P2X
   39    42     1     0     0
SMALL
bcc


@<TRIPOS>ATOM
      1 O1         -0.0210    0.0340    0.1110 oh        1 P2X     -0.501100
      2 C22         1.3570    0.0900    0.0640 ca        1 P2X      0.093100
      3 C20         2.0240   -0.0950    1.2760 ca        1 P2X     -0.111000
      4 C17         3.4160   -0.0440    1.2670 ca        1 P2X     -0.070800
      5 C18         4.1240    0.1860    0.0250 ca        1 P2X     -0.071200
      6 C21         3.4300    0.3680   -1.1810 ca        1 P2X     -0.110000
      7 C23         2.0460    0.3190   -1.1490 ca        1 P2X     -0.183000
      8 C16         4.4220   -0.1780    2.2940 cc        1 P2X     -0.149200
      9 C12         5.6650   -0.0390    1.6730 cd        1 P2X     -0.087700
     10 N5          5.4970    0.1460    0.2870 na        1 P2X     -0.186400
     11 C9          6.9750   -0.0700    2.2890 cd        1 P2X      0.424200
     12 C10         8.1190   -0.8600    1.8770 ca        1 P2X     -0.483500
     13 C11         9.1670   -0.4900    2.8170 ca        1 P2X      0.467800
     14 N2          8.5850    0.4430    3.6970 na        1 P2X      0.004200
     15 C8          9.2730    1.0870    4.8220 c3        1 P2X      0.078000
     16 C13         9.3510    2.6050    4.6620 c3        1 P2X     -0.110100
     17 C14         8.6260    0.7520    6.1650 c3        1 P2X     -0.110100
     18 N3          7.3030    0.6820    3.3740 nc        1 P2X     -0.484100
     19 N4         10.4380   -0.9990    2.7740 nb        1 P2X     -0.733000
     20 C19        10.6110   -1.8900    1.7740 ca        1 P2X      0.691900
     21 N6          9.7210   -2.3500    0.8510 nb        1 P2X     -0.792000
     22 C15         8.4470   -1.8390    0.8900 ca        1 P2X      0.738200
     23 N7          7.5100   -2.2260   -0.0550 nh        1 P2X     -0.935500
     24 H1         -0.3550    0.1910   -0.7830 ho        1 P2X      0.415000
     25 H2          1.4620   -0.2710    2.2030 ha        1 P2X      0.155000
     26 H3          3.9660    0.5450   -2.1230 ha        1 P2X      0.137000
     27 H4          1.4720    0.4620   -2.0760 ha        1 P2X      0.133000
     28 H5          4.2420   -0.3520    3.3510 ha        1 P2X      0.167000
     29 H6          6.2060    0.4430   -0.3300 hn        1 P2X      0.305700
     30 H7         10.3250    0.6700    4.8150 h1        1 P2X      0.087700
     31 H8          8.3340    3.0640    4.6900 hc        1 P2X      0.051533
     32 H9          9.8440    2.8830    3.7010 hc        1 P2X      0.051533
     33 H10         9.9550    3.0170    5.5060 hc        1 P2X      0.051533
     34 H11         8.5770   -0.3510    6.3240 hc        1 P2X      0.051533
     35 H12         7.5930    1.1700    6.2290 hc        1 P2X      0.051533
     36 H13         9.2470    1.2020    6.9770 hc        1 P2X      0.051533
     37 H14        11.6300   -2.3290    1.6940 h5        1 P2X      0.054100
     38 H15         6.5600   -2.1680    0.2300 hn        1 P2X      0.428800
     39 H16         7.7410   -2.9990   -0.6380 hn        1 P2X      0.428800
@<TRIPOS>BOND
     1    1    2 1   
     2    1   24 1   
     3    2    3 ar  
     4    2    7 ar  
     5    3    4 ar  
     6    3   25 1   
     7    4    5 ar  
     8    4    8 1   
     9    5    6 ar  
    10    5   10 1   
    11    6    7 ar  
    12    6   26 1   
    13    7   27 1   
    14    8    9 2   
    15    8   28 1   
    16    9   10 1   
    17    9   11 1   
    18   10   29 1   
    19   11   12 1   
    20   11   18 2   
    21   12   13 ar  
    22   12   22 ar  
    23   13   14 1   
    24   13   19 ar  
    25   14   15 1   
    26   14   18 1   
    27   15   16 1   
    28   15   17 1   
    29   15   30 1   
    30   16   31 1   
    31   16   32 1   
    32   16   33 1   
    33   17   34 1   
    34   17   35 1   
    35   17   36 1   
    36   19   20 ar  
    37   20   21 ar  
    38   20   37 1   
    39   21   22 ar  
    40   22   23 1   
    41   23   38 1   
    42   23   39 1   
@<TRIPOS>SUBSTRUCTURE
     1 P2X         1 TEMP              0 ****  ****    0 ROOT
