@<TRIPOS>MOLECULE
P2X
   39    29     1     0     0
SMALL
bcc


@<TRIPOS>ATOM
      1 O1         -6.5070   -0.8210   -2.2620 oh        1 P2X     -0.255000
      2 C22        -5.1430   -0.4960   -2.1340 c1        1 P2X      0.051000
      3 C20        -4.3010   -1.0600   -1.1920 c1        1 P2X     -0.111000
      4 C17        -3.0020   -0.5560   -1.0210 c1        1 P2X     -0.041000
      5 C18        -2.5690    0.4940   -1.7860 c1        1 P2X     -0.041000
      6 C21        -3.4230    1.0650   -2.7400 c1        1 P2X     -0.111000
      7 C23        -4.7050    0.5660   -2.9090 c1        1 P2X     -0.184000
      8 C16        -1.9540   -0.9580   -0.2180 c1        1 P2X     -0.202000
      9 C12        -0.8710   -0.1490   -0.4940 c1        1 P2X      0.044000
     10 N5         -1.2460    0.7460   -1.4580 n1        1 P2X     -0.195000
     11 C9          0.5620   -0.1840    0.0610 c1        1 P2X     -0.032000
     12 C10         1.8260   -0.7040   -0.2050 c1        1 P2X     -0.273000
     13 C11         2.6650   -0.2730    0.7600 c1        1 P2X      0.083000
     14 N2          1.9440    0.5130    1.6310 n1        1 P2X     -0.129000
     15 C8          2.5850    1.0950    2.7780 c2        1 P2X      0.057000
     16 C13         2.4960    2.6400    2.6910 c3        1 P2X     -0.227500
     17 C14         1.8750    0.6050    4.0750 c3        1 P2X     -0.227500
     18 N3          0.6450    0.5590    1.1870 n2        1 P2X     -0.043000
     19 N4          3.9720   -0.6560    0.7460 n1        1 P2X     -0.219000
     20 C19         4.4350   -1.4770   -0.2450 c1        1 P2X      0.036000
     21 N6          3.5900   -1.9120   -1.2190 n1        1 P2X     -0.276000
     22 C15         2.2950   -1.5350   -1.2070 c1        1 P2X      0.247000
     23 N7          2.0630   -2.2610   -2.4090 n3        1 P2X     -0.359000
     24 H1         -6.9730   -0.4080   -1.6230 ho        1 P2X      0.215000
     25 H2         -4.6430   -1.7440   -0.5800 ha        1 P2X      0.145500
     26 H3         -3.1150    1.8110   -3.2850 ha        1 P2X      0.145500
     27 H4         -5.2830    0.9380   -3.5930 ha        1 P2X      0.133000
     28 H5         -1.9750   -1.6810    0.4250 DU        1 P2X      0.212000
     29 H6         -0.7240    1.3860   -1.8170 DU        1 P2X      0.212000
     30 H7          3.5250    0.8240    2.7980 ha        1 P2X      0.128000
     31 H8          2.9250    3.0410    3.4880 hc        1 P2X      0.090000
     32 H9          1.5540    2.9120    2.6560 hc        1 P2X      0.090000
     33 H10         2.9560    2.9500    1.8810 hc        1 P2X      0.090000
     34 H11         1.7010   -0.3640    4.0080 hc        1 P2X      0.090000
     35 H12         2.4540    0.7820    4.8520 hc        1 P2X      0.090000
     36 H13         1.0260    1.0830    4.1840 hc        1 P2X      0.090000
     37 H14         5.3800   -1.7530   -0.2550 ha        1 P2X      0.190000
     38 H15         1.3140   -2.1010   -2.8970 hn        1 P2X      0.244000
     39 H16         2.6490   -2.9170   -2.6700 hn        1 P2X      0.244000
@<TRIPOS>BOND
     1    1    2 1   
     2    1   24 1   
     3    2    7 1   
     4    3    4 1   
     5    3   25 1   
     6    5    6 1   
     7    6   26 1   
     8    7   27 1   
     9    8    9 1   
    10    9   10 1   
    11   11   12 1   
    12   11   18 1   
    13   12   22 1   
    14   13   19 1   
    15   14   18 1   
    16   15   16 1   
    17   15   17 1   
    18   15   30 1   
    19   16   31 1   
    20   16   32 1   
    21   16   33 1   
    22   17   34 1   
    23   17   35 1   
    24   17   36 1   
    25   20   21 1   
    26   20   37 1   
    27   22   23 1   
    28   23   38 1   
    29   23   39 1   
@<TRIPOS>SUBSTRUCTURE
     1 P2X         1 TEMP              0 ****  ****    0 ROOT
