@<TRIPOS>MOLECULE
P2X
   40    43     1     0     0
SMALL
bcc


@<TRIPOS>ATOM
      1 O1          0.0700   -0.1190   -0.2750 oh        1 P2X     -0.480100
      2 C22         1.4310   -0.0250   -0.1290 ca        1 P2X      0.133100
      3 C20         2.0700   -0.1700    1.1100 ca        1 P2X     -0.164000
      4 C17         3.4540   -0.0590    1.1370 ca        1 P2X     -0.073800
      5 C18         4.1940    0.1810   -0.0720 ca        1 P2X     -0.120200
      6 C21         3.5380    0.3270   -1.2980 ca        1 P2X     -0.099000
      7 C23         2.1540    0.2230   -1.3190 ca        1 P2X     -0.118000
      8 C16         4.4330   -0.1360    2.2130 cc        1 P2X     -0.059200
      9 C12         5.6790    0.0410    1.6450 cd        1 P2X     -0.193700
     10 N5          5.5970    0.1730    0.2090 na        1 P2X     -0.205400
     11 C9          6.9680    0.0110    2.2960 cd        1 P2X      0.417200
     12 C10         8.0740   -0.8390    1.9080 ca        1 P2X     -0.427500
     13 C11         9.1380   -0.5150    2.8730 ca        1 P2X      0.457800
     14 N2          8.5890    0.4580    3.7240 na        1 P2X      0.038200
     15 C8          9.3010    1.0970    4.8560 c3        1 P2X      0.073000
     16 C13         9.4710    2.5980    4.6460 c3        1 P2X     -0.116600
     17 C14         8.6030    0.8350    6.1860 c3        1 P2X     -0.116600
     18 N3          7.3300    0.7560    3.3760 nc        1 P2X     -0.419100
     19 N4         10.3640   -1.1170    2.8460 nb        1 P2X     -0.624000
     20 C19        10.5070   -2.0360    1.8710 ca        1 P2X      0.682900
     21 N6          9.5910   -2.4390    0.9280 nb        1 P2X     -0.696000
     22 C15         8.3840   -1.8330    0.9670 ca        1 P2X      0.563200
     23 N7          7.3540   -2.2340   -0.0130 n4        1 P2X     -0.821300
     24 H1         -0.3270   -0.2370    0.6010 ho        1 P2X      0.432000
     25 H2          1.4960   -0.3590    2.0280 ha        1 P2X      0.156000
     26 H3          4.0930    0.5310   -2.2250 ha        1 P2X      0.148000
     27 H4          1.5950    0.3380   -2.2610 ha        1 P2X      0.171000
     28 H5          4.2030   -0.3090    3.2640 ha        1 P2X      0.179000
     29 H6          6.0990    0.9570   -0.1620 hn        1 P2X      0.265700
     30 H7         10.3230    0.6090    4.8740 h1        1 P2X      0.095700
     31 H8          8.4850    3.1220    4.6470 hc        1 P2X      0.063867
     32 H9          9.9970    2.8180    3.6870 hc        1 P2X      0.063867
     33 H10        10.0880    2.9980    5.4890 hc        1 P2X      0.063867
     34 H11         7.6010    1.3260    6.2210 hc        1 P2X      0.063867
     35 H12         9.2380    1.2630    7.0010 hc        1 P2X      0.063867
     36 H13         8.4770   -0.2580    6.3730 hc        1 P2X      0.063867
     37 H14        11.4950   -2.5510    1.8120 h5        1 P2X      0.099100
     38 H15         7.3240   -1.5360   -0.7680 hn        1 P2X      0.479800
     39 H16         6.4400   -2.2500    0.4620 hn        1 P2X      0.479800
     40 H73         7.5590   -3.1580   -0.4110 hn        1 P2X      0.479800
@<TRIPOS>BOND
     1    1    2 1   
     2    1   24 1   
     3    2    3 ar  
     4    2    7 ar  
     5    3    4 ar  
     6    3   25 1   
     7    4    5 ar  
     8    4    8 1   
     9    5    6 ar  
    10    5   10 1   
    11    6    7 ar  
    12    6   26 1   
    13    7   27 1   
    14    8    9 2   
    15    8   28 1   
    16    9   10 1   
    17    9   11 1   
    18   10   29 1   
    19   11   12 1   
    20   11   18 2   
    21   12   13 ar  
    22   12   22 ar  
    23   13   14 1   
    24   13   19 ar  
    25   14   15 1   
    26   14   18 1   
    27   15   16 1   
    28   15   17 1   
    29   15   30 1   
    30   16   31 1   
    31   16   32 1   
    32   16   33 1   
    33   17   34 1   
    34   17   35 1   
    35   17   36 1   
    36   19   20 ar  
    37   20   21 ar  
    38   20   37 1   
    39   21   22 ar  
    40   22   23 1   
    41   23   38 1   
    42   23   39 1   
    43   23   40 1   
@<TRIPOS>SUBSTRUCTURE
     1 P2X         1 TEMP              0 ****  ****    0 ROOT
