@<TRIPOS>MOLECULE
P2X
   39    42     1     0     0
SMALL
bcc


@<TRIPOS>ATOM
      1 O1          6.5640   -0.8330    0.5340 oh        1 P2X     -0.502100
      2 C22         5.2730   -0.4790    0.2000 ca        1 P2X      0.099100
      3 C20         4.1590   -1.0500    0.8110 ca        1 P2X     -0.171000
      4 C17         2.8960   -0.6230    0.4000 ca        1 P2X     -0.067800
      5 C18         2.7790    0.3890   -0.6260 ca        1 P2X     -0.071200
      6 C21         3.9190    0.9500   -1.2270 ca        1 P2X     -0.114000
      7 C23         5.1610    0.5100   -0.8090 ca        1 P2X     -0.129000
      8 C16         1.5520   -0.9770    0.7850 cc        1 P2X     -0.152200
      9 C12         0.6850   -0.1950    0.0170 cd        1 P2X     -0.089700
     10 N5          1.4220    0.6580   -0.8240 na        1 P2X     -0.183400
     11 C9         -0.7630   -0.2040    0.0240 cd        1 P2X      0.425200
     12 C10        -1.6450    0.9420    0.1380 ca        1 P2X     -0.483500
     13 C11        -2.9830    0.3720    0.0620 ca        1 P2X      0.467800
     14 N2         -2.8030   -1.0190   -0.0650 na        1 P2X      0.004200
     15 C8         -3.8860   -2.0040   -0.1780 c3        1 P2X      0.078000
     16 C13        -3.8650   -2.7390   -1.5180 c3        1 P2X     -0.109600
     17 C14        -3.8630   -3.0250    0.9590 c3        1 P2X     -0.109600
     18 N3         -1.4990   -1.3420   -0.0910 nc        1 P2X     -0.484100
     19 N4         -4.1290    1.1200    0.1120 nb        1 P2X     -0.732000
     20 C19        -3.8850    2.4410    0.2510 ca        1 P2X      0.691900
     21 N6         -2.7000    3.1030    0.3670 nb        1 P2X     -0.791000
     22 C15        -1.5500    2.3560    0.3140 ca        1 P2X      0.737200
     23 N7         -0.3110    2.9740    0.3720 nh        1 P2X     -0.935500
     24 H1          6.5170   -1.5200    1.2140 ho        1 P2X      0.417000
     25 H2          4.2640   -1.8160    1.5910 ha        1 P2X      0.139000
     26 H3          3.8270    1.7160   -2.0090 ha        1 P2X      0.138000
     27 H4          6.0820    0.9160   -1.2510 ha        1 P2X      0.151000
     28 H5          1.2680   -1.7130    1.5310 ha        1 P2X      0.165000
     29 H6          1.0430    1.1960   -1.5580 hn        1 P2X      0.307700
     30 H7         -4.8470   -1.4100   -0.1080 h1        1 P2X      0.087700
     31 H8         -2.9430   -3.3600   -1.6200 hc        1 P2X      0.051367
     32 H9         -4.7570   -3.4080   -1.5670 hc        1 P2X      0.051367
     33 H10        -3.9100   -2.0200   -2.3700 hc        1 P2X      0.051367
     34 H11        -3.9010   -2.5200    1.9530 hc        1 P2X      0.051367
     35 H12        -4.7580   -3.6850    0.8580 hc        1 P2X      0.051367
     36 H13        -2.9430   -3.6560    0.9120 hc        1 P2X      0.051367
     37 H14        -4.7860    3.0920    0.2910 h5        1 P2X      0.054100
     38 H15        -0.2930    3.9380    0.6210 hn        1 P2X      0.428300
     39 H16         0.4300    2.4210    0.7380 hn        1 P2X      0.428300
@<TRIPOS>BOND
     1    1    2 1   
     2    1   24 1   
     3    2    3 ar  
     4    2    7 ar  
     5    3    4 ar  
     6    3   25 1   
     7    4    5 ar  
     8    4    8 1   
     9    5    6 ar  
    10    5   10 1   
    11    6    7 ar  
    12    6   26 1   
    13    7   27 1   
    14    8    9 2   
    15    8   28 1   
    16    9   10 1   
    17    9   11 1   
    18   10   29 1   
    19   11   12 1   
    20   11   18 2   
    21   12   13 ar  
    22   12   22 ar  
    23   13   14 1   
    24   13   19 ar  
    25   14   15 1   
    26   14   18 1   
    27   15   16 1   
    28   15   17 1   
    29   15   30 1   
    30   16   31 1   
    31   16   32 1   
    32   16   33 1   
    33   17   34 1   
    34   17   35 1   
    35   17   36 1   
    36   19   20 ar  
    37   20   21 ar  
    38   20   37 1   
    39   21   22 ar  
    40   22   23 1   
    41   23   38 1   
    42   23   39 1   
@<TRIPOS>SUBSTRUCTURE
     1 P2X         1 TEMP              0 ****  ****    0 ROOT
