@<TRIPOS>MOLECULE
P2Y
   19    19     1     0     0
SMALL
bcc


@<TRIPOS>ATOM
      1 NA         -2.1070    0.5470   -1.7790 n3        1 P2Y     -0.899800
      2 C          -0.7570    0.0620   -1.6230 c3        1 P2Y      0.168800
      3 CA         -0.3940    0.0740   -0.1360 c3        1 P2Y      0.112500
      4 N          -0.3500   -1.1280    0.3200 n3        1 P2Y     -0.800200
      5 CD          0.7580   -1.1040    1.4030 c3        1 P2Y      0.145800
      6 CG          1.5080    0.2660    1.2100 c3        1 P2Y     -0.104400
      7 CB          1.0970    0.7080    0.0830 c3        1 P2Y     -0.096400
      8 HNA1       -2.1400    1.4160   -1.5570 hn        1 P2Y      0.348800
      9 HNA2       -2.7090    0.0350   -1.1910 hn        1 P2Y      0.348800
     10 H1         -0.6890   -0.9240   -1.9940 h1        1 P2Y      0.049700
     11 H2         -0.1410    0.6390   -2.1190 h1        1 P2Y      0.049700
     12 HA         -1.0880    0.6220    0.3900 h1        1 P2Y      0.039700
     13 H          -1.1790   -1.3510    0.7180 hn        1 P2Y      0.348800
     14 HD3         1.3930   -1.8780    1.2680 h1        1 P2Y      0.047700
     15 HD2         0.3230   -1.1500    2.3730 h1        1 P2Y      0.047700
     16 HG3         1.2450    0.9500    1.9960 hc        1 P2Y      0.047700
     17 HG2         2.4700    0.1280    1.1900 hc        1 P2Y      0.047700
     18 HB2         1.7110    0.4010   -0.6520 hc        1 P2Y      0.048700
     19 HB3         1.0490    1.6860    0.0980 hc        1 P2Y      0.048700
@<TRIPOS>BOND
     1    1    2 1   
     2    1    8 1   
     3    1    9 1   
     4    2    3 1   
     5    2   10 1   
     6    2   11 1   
     7    3    4 1   
     8    3    7 1   
     9    3   12 1   
    10    4    5 1   
    11    4   13 1   
    12    5    6 1   
    13    5   14 1   
    14    5   15 1   
    15    6    7 1   
    16    6   16 1   
    17    6   17 1   
    18    7   18 1   
    19    7   19 1   
@<TRIPOS>SUBSTRUCTURE
     1 P2Y         1 TEMP              0 ****  ****    0 ROOT
