@<TRIPOS>MOLECULE
P2Y
   19    19     1     0     0
SMALL
bcc


@<TRIPOS>ATOM
      1 NA         -0.2880    0.1290    2.6680 n3        1 P2Y     -0.915800
      2 C           0.5280    0.4060    1.5120 c3        1 P2Y      0.173800
      3 CA          0.2580   -0.5490    0.3260 c3        1 P2Y      0.155500
      4 N          -1.1070   -0.3990   -0.1980 n3        1 P2Y     -0.807200
      5 CD         -1.0280    0.1590   -1.5430 c3        1 P2Y      0.148800
      6 CG          0.4300    0.1240   -2.0300 c3        1 P2Y     -0.103400
      7 CB          1.2640   -0.2520   -0.8110 c3        1 P2Y     -0.097400
      8 HNA1       -0.1960    0.8690    3.3360 hn        1 P2Y      0.352300
      9 HNA2       -1.2540    0.0370    2.4200 hn        1 P2Y      0.352300
     10 H1          1.6040    0.2630    1.8190 h1        1 P2Y      0.026200
     11 H2          0.4200    1.4690    1.1450 h1        1 P2Y      0.026200
     12 HA          0.4150   -1.6040    0.6950 h1        1 P2Y      0.053700
     13 H          -1.5640   -1.2910   -0.2120 hn        1 P2Y      0.354800
     14 HD3        -1.3850    1.2240   -1.4850 h1        1 P2Y      0.045200
     15 HD2        -1.7000   -0.3880   -2.2560 h1        1 P2Y      0.045200
     16 HG3         0.7320    1.1190   -2.4360 hc        1 P2Y      0.046700
     17 HG2         0.5540   -0.6290   -2.8460 hc        1 P2Y      0.046700
     18 HB2         1.9520    0.5810   -0.5280 hc        1 P2Y      0.049200
     19 HB3         1.8900   -1.1550   -1.0150 hc        1 P2Y      0.049200
@<TRIPOS>BOND
     1    1    2 1   
     2    1    8 1   
     3    1    9 1   
     4    2    3 1   
     5    2   10 1   
     6    2   11 1   
     7    3    4 1   
     8    3    7 1   
     9    3   12 1   
    10    4    5 1   
    11    4   13 1   
    12    5    6 1   
    13    5   14 1   
    14    5   15 1   
    15    6    7 1   
    16    6   16 1   
    17    6   17 1   
    18    7   18 1   
    19    7   19 1   
@<TRIPOS>SUBSTRUCTURE
     1 P2Y         1 TEMP              0 ****  ****    0 ROOT
