@<TRIPOS>MOLECULE
P2Z
   41    43     1     0     0
SMALL
bcc


@<TRIPOS>ATOM
      1 C16        -0.0530    0.0800    0.2890 c3        1 P2Z      0.081100
      2 N2          1.4230    0.0450    0.1190 nx        1 P2Z     -0.680400
      3 C15         2.1010   -0.0130    1.4410 c3        1 P2Z      0.081100
      4 C14         1.8500   -1.1090   -0.7460 c3        1 P2Z      0.109800
      5 C13         1.5650   -0.8860   -2.2230 c3        1 P2Z     -0.159400
      6 C12         2.1400   -2.0810   -3.0140 c3        1 P2Z      0.062300
      7 N1          1.8860   -2.0610   -4.4250 na        1 P2Z     -0.173100
      8 C1          2.7570   -1.3290   -5.2680 ca        1 P2Z      0.062200
      9 C17         3.6990   -0.4190   -4.7430 ca        1 P2Z     -0.185000
     10 C5          4.5940    0.2430   -5.5800 ca        1 P2Z     -0.099500
     11 C6          4.5650    0.0340   -6.9560 ca        1 P2Z     -0.131000
     12 C7          3.6280   -0.8440   -7.4920 ca        1 P2Z     -0.078500
     13 C2          2.7320   -1.5320   -6.6700 ca        1 P2Z     -0.018600
     14 S1          1.6830   -2.6050   -7.4470 ss        1 P2Z     -0.116800
     15 C3          0.4840   -2.8520   -6.2810 ca        1 P2Z     -0.018600
     16 C4          0.6530   -2.5660   -4.9040 ca        1 P2Z      0.062200
     17 C11        -0.4210   -2.8410   -4.0310 ca        1 P2Z     -0.185000
     18 C10        -1.6040   -3.4000   -4.5080 ca        1 P2Z     -0.099500
     19 C9         -1.7580   -3.6820   -5.8630 ca        1 P2Z     -0.131000
     20 C8         -0.7180   -3.3960   -6.7410 ca        1 P2Z     -0.078500
     21 H1         -0.3370    0.9870    0.8880 hx        1 P2Z      0.106867
     22 H2         -0.5440    0.1270   -0.7200 hx        1 P2Z      0.106867
     23 H3         -0.3920   -0.8450    0.8280 hx        1 P2Z      0.106867
     24 H5          3.2120    0.0590    1.2950 hx        1 P2Z      0.106867
     25 H6          1.7490    0.8440    2.0760 hx        1 P2Z      0.106867
     26 H7          1.8510   -0.9830    1.9480 hx        1 P2Z      0.106867
     27 H8          2.9590   -1.2540   -0.5940 hx        1 P2Z      0.103700
     28 H9          1.3150   -2.0300   -0.3780 hx        1 P2Z      0.103700
     29 H10         0.4620   -0.8040   -2.4090 hc        1 P2Z      0.076700
     30 H11         2.0370    0.0660   -2.5830 hc        1 P2Z      0.076700
     31 H12         1.7080   -3.0330   -2.5870 h1        1 P2Z      0.069200
     32 H13         3.2560   -2.1130   -2.8510 h1        1 P2Z      0.069200
     33 H14         3.7640   -0.2210   -3.6640 ha        1 P2Z      0.108500
     34 H15         5.3300    0.9370   -5.1450 ha        1 P2Z      0.137500
     35 H16         5.2730    0.5570   -7.6160 ha        1 P2Z      0.151000
     36 H17         3.5880   -1.0090   -8.5820 ha        1 P2Z      0.156000
     37 H18        -0.3460   -2.6410   -2.9530 ha        1 P2Z      0.108500
     38 H19        -2.4210   -3.6210   -3.8040 ha        1 P2Z      0.137500
     39 H20        -2.6940   -4.1230   -6.2380 ha        1 P2Z      0.151000
     40 H21        -0.8340   -3.6040   -7.8190 ha        1 P2Z      0.156000
     41 H211        1.7090    0.9140   -0.3550 hn        1 P2Z      0.452800
@<TRIPOS>BOND
     1    1    2 1   
     2    1   21 1   
     3    1   22 1   
     4    1   23 1   
     5    2    3 1   
     6    2    4 1   
     7    2   41 1   
     8    3   24 1   
     9    3   25 1   
    10    3   26 1   
    11    4    5 1   
    12    4   27 1   
    13    4   28 1   
    14    5    6 1   
    15    5   29 1   
    16    5   30 1   
    17    6    7 1   
    18    6   31 1   
    19    6   32 1   
    20    7    8 1   
    21    7   16 1   
    22    8    9 ar  
    23    8   13 ar  
    24    9   10 ar  
    25    9   33 1   
    26   10   11 ar  
    27   10   34 1   
    28   11   12 ar  
    29   11   35 1   
    30   12   13 ar  
    31   12   36 1   
    32   13   14 1   
    33   14   15 1   
    34   15   16 ar  
    35   15   20 ar  
    36   16   17 ar  
    37   17   18 ar  
    38   17   37 1   
    39   18   19 ar  
    40   18   38 1   
    41   19   20 ar  
    42   19   39 1   
    43   20   40 1   
@<TRIPOS>SUBSTRUCTURE
     1 P2Z         1 TEMP              0 ****  ****    0 ROOT
