@<TRIPOS>MOLECULE
P2Z
   40    36     1     0     0
SMALL
bcc


@<TRIPOS>ATOM
      1 C16        -1.7780    2.0730    4.0370 c3        1 P2Z     -0.121000
      2 N2         -0.6060    1.9830    3.1790 n3        1 P2Z     -0.263000
      3 C15         0.5760    2.2360    3.9510 c3        1 P2Z     -0.121000
      4 C14        -0.5290    0.6730    2.6060 c3        1 P2Z     -0.064000
      5 C13        -0.7260    0.7730    1.0690 c3        1 P2Z     -0.198000
      6 C12         0.0100   -0.4070    0.3700 c3        1 P2Z     -0.021000
      7 N1         -0.0640   -0.2420   -1.0420 n3        1 P2Z     -0.235000
      8 C1          1.4090    0.0440   -1.6200 c2        1 P2Z      0.101000
      9 C17         2.2200    1.0170   -0.9970 c2        1 P2Z     -0.175000
     10 C5          3.4190    1.4040   -1.5890 c1        1 P2Z     -0.100000
     11 C6          3.8230    0.8260   -2.8040 c1        1 P2Z     -0.122750
     12 C7          3.0240   -0.1320   -3.4170 c1        1 P2Z     -0.122750
     13 C2          1.8070   -0.5250   -2.8180 c1        1 P2Z     -0.293000
     14 S1          0.8330   -1.6190   -3.5590 s         1 P2Z      0.373000
     15 C3         -0.6050   -2.0230   -2.8630 c1        1 P2Z     -0.292000
     16 C4         -0.9820   -1.4190   -1.6820 c1        1 P2Z      0.102000
     17 C11        -2.1780   -1.8010   -1.0500 c1        1 P2Z     -0.177000
     18 C10        -2.9780   -2.7840   -1.6130 c1        1 P2Z     -0.122750
     19 C9         -2.5960   -3.3980   -2.8130 c1        1 P2Z     -0.122750
     20 C8         -1.4200   -3.0230   -3.4360 c1        1 P2Z     -0.087000
     21 H1         -1.8090    2.9910    4.4750 h1        1 P2Z      0.071333
     22 H2         -1.7300    1.3870    4.7260 h1        1 P2Z      0.071333
     23 H3         -2.5870    1.9400    3.4980 h1        1 P2Z      0.071333
     24 H5          0.5400    3.1430    4.3160 h1        1 P2Z      0.071333
     25 H6          0.6300    1.5910    4.6870 h1        1 P2Z      0.071333
     26 H7          1.3570    2.1460    3.3840 h1        1 P2Z      0.071333
     27 H8          0.3710    0.2740    2.8030 h1        1 P2Z      0.068500
     28 H9         -1.2230    0.1100    2.9870 h1        1 P2Z      0.068500
     29 H10        -1.6930    0.7320    0.8570 hc        1 P2Z      0.099500
     30 H11        -0.3490    1.6410    0.7410 hc        1 P2Z      0.099500
     31 H12        -0.4250   -1.2760    0.6310 h1        1 P2Z      0.099500
     32 H13         0.9580   -0.4150    0.6500 h1        1 P2Z      0.099500
     33 H14         1.9370    1.4210   -0.1480 ha        1 P2Z      0.140000
     34 H15         3.9840    2.0790   -1.1570 ha        1 P2Z      0.134000
     35 H16         4.6590    1.0960   -3.2140 ha        1 P2Z      0.136500
     36 H17         3.3080   -0.5380   -4.2730 ha        1 P2Z      0.136500
     37 H18        -2.4550   -1.3590   -0.1850 ha        1 P2Z      0.137000
     38 H19        -3.8100   -3.0490   -1.1720 ha        1 P2Z      0.136500
     39 H20        -3.1760   -4.1110   -3.2220 ha        1 P2Z      0.136500
     40 H21        -1.1450   -3.4600   -4.2940 ha        1 P2Z      0.142000
@<TRIPOS>BOND
     1    1    2 1   
     2    1   21 1   
     3    1   22 1   
     4    1   23 1   
     5    2    3 1   
     6    2    4 1   
     7    3   24 1   
     8    3   25 1   
     9    3   26 1   
    10    4    5 1   
    11    4   27 1   
    12    4   28 1   
    13    5    6 1   
    14    5   29 1   
    15    5   30 1   
    16    6    7 1   
    17    6   31 1   
    18    6   32 1   
    19    7    8 1   
    20    7   16 1   
    21    8    9 1   
    22    8   13 1   
    23    9   10 1   
    24    9   33 1   
    25   10   34 1   
    26   11   12 1   
    27   11   35 1   
    28   12   36 1   
    29   14   15 1   
    30   15   20 1   
    31   16   17 1   
    32   17   37 1   
    33   18   19 1   
    34   18   38 1   
    35   19   39 1   
    36   20   40 1   
@<TRIPOS>SUBSTRUCTURE
     1 P2Z         1 TEMP              0 ****  ****    0 ROOT
