@<TRIPOS>MOLECULE
P2Z
   40    42     1     0     0
SMALL
bcc


@<TRIPOS>ATOM
      1 C16         4.7870   -0.5330    1.3620 c3        1 P2Z      0.155100
      2 N2          4.7040    0.3670    0.2350 n3        1 P2Z     -0.737600
      3 C15         5.9490    0.4730   -0.4940 c3        1 P2Z      0.155100
      4 C14         3.5770    0.0950   -0.6480 c3        1 P2Z      0.172800
      5 C13         2.2160    0.1750    0.0400 c3        1 P2Z     -0.119400
      6 C12         1.1260    0.1920   -1.0360 c3        1 P2Z      0.038300
      7 N1         -0.2400    0.0790   -0.5770 na        1 P2Z     -0.167100
      8 C1         -0.9070    1.2390   -0.1280 ca        1 P2Z      0.077200
      9 C17        -0.2180    2.4550    0.0840 ca        1 P2Z     -0.176000
     10 C5         -0.9040    3.6090    0.4500 ca        1 P2Z     -0.100500
     11 C6         -2.2840    3.5880    0.6360 ca        1 P2Z     -0.151500
     12 C7         -2.9760    2.3950    0.4560 ca        1 P2Z     -0.087000
     13 C2         -2.3110    1.2300    0.0700 ca        1 P2Z     -0.022600
     14 S1         -3.2770   -0.1410   -0.1690 ss        1 P2Z     -0.166800
     15 C3         -2.1440   -1.3980   -0.0980 ca        1 P2Z     -0.022600
     16 C4         -0.7520   -1.2040   -0.2870 ca        1 P2Z      0.077200
     17 C11         0.0860   -2.3410   -0.2310 ca        1 P2Z     -0.176000
     18 C10        -0.4460   -3.6100   -0.0210 ca        1 P2Z     -0.100500
     19 C9         -1.8150   -3.7870    0.1590 ca        1 P2Z     -0.151500
     20 C8         -2.6530   -2.6770    0.1310 ca        1 P2Z     -0.087000
     21 H1          5.6780   -0.2580    1.9860 h1        1 P2Z      0.032033
     22 H2          3.8640   -0.4160    1.9880 h1        1 P2Z      0.032033
     23 H3          4.8820   -1.6130    1.0620 h1        1 P2Z      0.032033
     24 H5          6.2500   -0.4850   -1.0000 h1        1 P2Z      0.032033
     25 H6          5.8490    1.2720   -1.2740 h1        1 P2Z      0.032033
     26 H7          6.7610    0.7690    0.2200 h1        1 P2Z      0.032033
     27 H8          3.6080    0.8640   -1.4720 h1        1 P2Z      0.029200
     28 H9          3.6690   -0.9230   -1.1340 h1        1 P2Z      0.029200
     29 H10         2.0780   -0.7030    0.7240 hc        1 P2Z      0.060200
     30 H11         2.1520    1.0960    0.6750 hc        1 P2Z      0.060200
     31 H12         1.2120    1.1500   -1.6270 h1        1 P2Z      0.060200
     32 H13         1.3120   -0.6550   -1.7600 h1        1 P2Z      0.060200
     33 H14         0.8740    2.5180   -0.0400 ha        1 P2Z      0.138500
     34 H15        -0.3430    4.5440    0.5970 ha        1 P2Z      0.133000
     35 H16        -2.8220    4.5010    0.9270 ha        1 P2Z      0.136000
     36 H17        -4.0660    2.3600    0.6150 ha        1 P2Z      0.142000
     37 H18         1.1750   -2.2490   -0.3590 ha        1 P2Z      0.138500
     38 H19         0.2300   -4.4780    0.0050 ha        1 P2Z      0.133000
     39 H20        -2.2310   -4.7900    0.3270 ha        1 P2Z      0.136000
     40 H21        -3.7370   -2.8010    0.2860 ha        1 P2Z      0.142000
@<TRIPOS>BOND
     1    1    2 1   
     2    1   21 1   
     3    1   22 1   
     4    1   23 1   
     5    2    3 1   
     6    2    4 1   
     7    3   24 1   
     8    3   25 1   
     9    3   26 1   
    10    4    5 1   
    11    4   27 1   
    12    4   28 1   
    13    5    6 1   
    14    5   29 1   
    15    5   30 1   
    16    6    7 1   
    17    6   31 1   
    18    6   32 1   
    19    7    8 1   
    20    7   16 1   
    21    8    9 ar  
    22    8   13 ar  
    23    9   10 ar  
    24    9   33 1   
    25   10   11 ar  
    26   10   34 1   
    27   11   12 ar  
    28   11   35 1   
    29   12   13 ar  
    30   12   36 1   
    31   13   14 1   
    32   14   15 1   
    33   15   16 ar  
    34   15   20 ar  
    35   16   17 ar  
    36   17   18 ar  
    37   17   37 1   
    38   18   19 ar  
    39   18   38 1   
    40   19   20 ar  
    41   19   39 1   
    42   20   40 1   
@<TRIPOS>SUBSTRUCTURE
     1 P2Z         1 TEMP              0 ****  ****    0 ROOT
