@<TRIPOS>MOLECULE
P2Z
   41    43     1     0     0
SMALL
bcc


@<TRIPOS>ATOM
      1 C16        -0.0520    0.0770    0.2930 c3        1 P2Z      0.081100
      2 N2          1.4240    0.0460    0.1180 n4        1 P2Z     -0.680400
      3 C15         2.1050   -0.0090    1.4380 c3        1 P2Z      0.081100
      4 C14         1.8520   -1.1080   -0.7470 c3        1 P2Z      0.109800
      5 C13         1.5640   -0.8870   -2.2230 c3        1 P2Z     -0.159400
      6 C12         2.1370   -2.0830   -3.0140 c3        1 P2Z      0.062300
      7 N1          1.8840   -2.0610   -4.4250 na        1 P2Z     -0.173100
      8 C1          2.7560   -1.3300   -5.2670 ca        1 P2Z      0.062200
      9 C17         3.6990   -0.4210   -4.7420 ca        1 P2Z     -0.185000
     10 C5          4.5950    0.2400   -5.5790 ca        1 P2Z     -0.099500
     11 C6          4.5660    0.0310   -6.9550 ca        1 P2Z     -0.131000
     12 C7          3.6290   -0.8460   -7.4910 ca        1 P2Z     -0.078500
     13 C2          2.7320   -1.5330   -6.6690 ca        1 P2Z     -0.018600
     14 S1          1.6820   -2.6050   -7.4470 ss        1 P2Z     -0.116800
     15 C3          0.4820   -2.8510   -6.2820 ca        1 P2Z     -0.018600
     16 C4          0.6510   -2.5650   -4.9050 ca        1 P2Z      0.062200
     17 C11        -0.4240   -2.8400   -4.0320 ca        1 P2Z     -0.185000
     18 C10        -1.6070   -3.3980   -4.5100 ca        1 P2Z     -0.099500
     19 C9         -1.7610   -3.6790   -5.8650 ca        1 P2Z     -0.131000
     20 C8         -0.7200   -3.3940   -6.7430 ca        1 P2Z     -0.078500
     21 H1         -0.3360    0.9840    0.8910 hx        1 P2Z      0.106867
     22 H2         -0.5450    0.1220   -0.7160 hx        1 P2Z      0.106867
     23 H3         -0.3870   -0.8480    0.8340 hx        1 P2Z      0.106867
     24 H5          3.2160    0.0660    1.2900 hx        1 P2Z      0.106867
     25 H6          1.7530    0.8480    2.0740 hx        1 P2Z      0.106867
     26 H7          1.8590   -0.9790    1.9470 hx        1 P2Z      0.106867
     27 H8          2.9620   -1.2510   -0.5970 hx        1 P2Z      0.103700
     28 H9          1.3190   -2.0300   -0.3770 hx        1 P2Z      0.103700
     29 H10         0.4600   -0.8060   -2.4070 hc        1 P2Z      0.076700
     30 H11         2.0350    0.0650   -2.5840 hc        1 P2Z      0.076700
     31 H12         1.7040   -3.0340   -2.5870 h1        1 P2Z      0.069200
     32 H13         3.2540   -2.1150   -2.8500 h1        1 P2Z      0.069200
     33 H14         3.7630   -0.2240   -3.6630 ha        1 P2Z      0.108500
     34 H15         5.3310    0.9330   -5.1430 ha        1 P2Z      0.137500
     35 H16         5.2750    0.5540   -7.6140 ha        1 P2Z      0.151000
     36 H17         3.5890   -1.0100   -8.5820 ha        1 P2Z      0.156000
     37 H18        -0.3490   -2.6400   -2.9540 ha        1 P2Z      0.108500
     38 H19        -2.4240   -3.6180   -3.8060 ha        1 P2Z      0.137500
     39 H20        -2.6960   -4.1190   -6.2410 ha        1 P2Z      0.151000
     40 H21        -0.8350   -3.6010   -7.8200 ha        1 P2Z      0.156000
     41 H211        1.7070    0.9150   -0.3570 hn        1 P2Z      0.452800
@<TRIPOS>BOND
     1    1    2 1   
     2    1   21 1   
     3    1   22 1   
     4    1   23 1   
     5    2    3 1   
     6    2    4 1   
     7    2   41 1   
     8    3   24 1   
     9    3   25 1   
    10    3   26 1   
    11    4    5 1   
    12    4   27 1   
    13    4   28 1   
    14    5    6 1   
    15    5   29 1   
    16    5   30 1   
    17    6    7 1   
    18    6   31 1   
    19    6   32 1   
    20    7    8 1   
    21    7   16 1   
    22    8    9 ar  
    23    8   13 ar  
    24    9   10 ar  
    25    9   33 1   
    26   10   11 ar  
    27   10   34 1   
    28   11   12 ar  
    29   11   35 1   
    30   12   13 ar  
    31   12   36 1   
    32   13   14 1   
    33   14   15 1   
    34   15   16 ar  
    35   15   20 ar  
    36   16   17 ar  
    37   17   18 ar  
    38   17   37 1   
    39   18   19 ar  
    40   18   38 1   
    41   19   20 ar  
    42   19   39 1   
    43   20   40 1   
@<TRIPOS>SUBSTRUCTURE
     1 P2Z         1 TEMP              0 ****  ****    0 ROOT
