@<TRIPOS>MOLECULE
P30
   72    77     1     0     0
SMALL
bcc


@<TRIPOS>ATOM
      1 N1          0.1220    0.1220    0.3890 ns        1 P30     -0.530400
      2 C3          1.5160    0.3640    0.4780 c         1 P30      0.778100
      3 O4          2.0940    0.4190    1.5830 o         1 P30     -0.601100
      4 N5          2.1990    0.5380   -0.7420 ns        1 P30     -0.458100
      5 C7          3.6060    0.5280   -0.8430 ca        1 P30      0.058600
      6 C8          5.5760    0.0820   -2.1970 ca        1 P30     -0.092000
      7 C10         4.1990    0.0400   -2.0310 ca        1 P30     -0.157500
      8 C12         6.4080    0.5950   -1.1920 ca        1 P30     -0.121500
      9 C13         4.4430    1.0490    0.1650 ca        1 P30     -0.157500
     10 C15         5.8220    1.0770   -0.0130 ca        1 P30     -0.092000
     11 C17         7.8460    0.6160   -1.3800 cc        1 P30      0.367800
     12 C18         8.5680   -0.1760   -2.3130 cd        1 P30     -0.211600
     13 N20         9.8980    0.1680   -2.1470 na        1 P30     -0.118000
     14 C21         9.9500    1.1630   -1.1140 cd        1 P30      0.426800
     15 N22         8.7190    1.4400   -0.6430 nc        1 P30     -0.616000
     16 S23        11.5460    1.6810   -0.8070 ss        1 P30     -0.028200
     17 C24        11.1620   -0.1440   -2.6570 ca        1 P30     -0.043200
     18 C25        12.1810    0.6260   -2.0010 ca        1 P30     -0.042100
     19 C26        11.4900   -1.0590   -3.6590 ca        1 P30     -0.081000
     20 C28        12.8270   -1.2150   -4.0180 ca        1 P30     -0.188000
     21 C30        13.5080    0.4610   -2.3630 ca        1 P30     -0.113000
     22 C32        13.8240   -0.4630   -3.3770 ca        1 P30      0.134100
     23 O33        15.1660   -0.5300   -3.6830 os        1 P30     -0.320900
     24 C34        15.5620   -1.6000   -4.5510 c3        1 P30      0.128400
     25 C37        17.0970   -1.5600   -4.5820 c3        1 P30      0.171800
     26 N40        17.7060   -2.3210   -3.5050 n3        1 P30     -0.732600
     27 C41        18.9660   -1.7480   -3.0480 c3        1 P30      0.137300
     28 C44        19.6170   -2.5830   -1.9390 c3        1 P30      0.126400
     29 O47        19.7490   -3.9490   -2.3160 os        1 P30     -0.414600
     30 C48        18.5000   -4.5260   -2.6790 c3        1 P30      0.126400
     31 C51        17.8250   -3.7400   -3.8090 c3        1 P30      0.137300
     32 C54        -0.7020    0.1700    1.5130 cc        1 P30      0.433200
     33 N55        -2.0590    0.3560    1.4700 nd        1 P30     -0.420300
     34 O56        -2.5290    0.2790    2.6960 os        1 P30     -0.115100
     35 C57        -1.4780    0.0490    3.6200 cd        1 P30      0.276000
     36 C58        -0.2980   -0.0300    2.9150 cc        1 P30     -0.340600
     37 C60        -1.8530   -0.0540    5.0530 c3        1 P30     -0.085300
     38 C61        -0.6020   -0.3040    5.8870 c3        1 P30     -0.089767
     39 C65        -2.5120    1.2480    5.4990 c3        1 P30     -0.089767
     40 C69        -2.8320   -1.2090    5.2410 c3        1 P30     -0.089767
     41 H1         -0.3340    0.2660   -0.4870 hn        1 P30      0.325500
     42 H2          1.7250    0.2850   -1.5830 hn        1 P30      0.310500
     43 H3          6.0150   -0.2920   -3.1350 ha        1 P30      0.143500
     44 H4          3.5760   -0.3710   -2.8410 ha        1 P30      0.149000
     45 H5          4.0130    1.4290    1.1070 ha        1 P30      0.149000
     46 H6          6.4560    1.4880    0.7890 ha        1 P30      0.143500
     47 H7          8.2330   -0.9220   -3.0310 h4        1 P30      0.185000
     48 H8         10.7090   -1.6490   -4.1610 ha        1 P30      0.146000
     49 H9         13.0860   -1.9310   -4.8100 ha        1 P30      0.144000
     50 H10        14.3130    1.0330   -1.8790 ha        1 P30      0.164000
     51 H11        15.1620   -1.3980   -5.5800 h1        1 P30      0.045700
     52 H12        15.1620   -2.5740   -4.1690 h1        1 P30      0.045700
     53 H13        17.4110   -0.4800   -4.4980 h1        1 P30      0.051700
     54 H14        17.4180   -1.9360   -5.5970 h1        1 P30      0.051700
     55 H16        19.7040   -1.6410   -3.8950 h1        1 P30      0.039950
     56 H17        18.7500   -0.7220   -2.6400 h1        1 P30      0.039950
     57 H18        20.6700   -2.2380   -1.7660 h1        1 P30      0.055700
     58 H19        19.0250   -2.5110   -0.9890 h1        1 P30      0.055700
     59 H20        17.8340   -4.5790   -1.7790 h1        1 P30      0.055700
     60 H21        18.7600   -5.5590   -3.0300 h1        1 P30      0.055700
     61 H22        18.4080   -3.9140   -4.7610 h1        1 P30      0.039950
     62 H23        16.7870   -4.1480   -3.9590 h1        1 P30      0.039950
     63 H24         0.7190   -0.1860    3.2680 ha        1 P30      0.205000
     64 H25         0.1260    0.5330    5.7590 hc        1 P30      0.045033
     65 H26        -0.8800   -0.3790    6.9650 hc        1 P30      0.045033
     66 H27        -0.1090   -1.2560    5.5740 hc        1 P30      0.045033
     67 H28        -1.7980    2.0990    5.3990 hc        1 P30      0.045033
     68 H29        -2.8250    1.1650    6.5670 hc        1 P30      0.045033
     69 H30        -3.4110    1.4560    4.8720 hc        1 P30      0.045033
     70 H31        -2.3540   -2.1740    4.9490 hc        1 P30      0.045033
     71 H32        -3.1420   -1.2700    6.3110 hc        1 P30      0.045033
     72 H33        -3.7380   -1.0490    4.6080 hc        1 P30      0.045033
@<TRIPOS>BOND
     1    1    2 1   
     2    1   32 1   
     3    1   41 1   
     4    2    3 2   
     5    2    4 1   
     6    4    5 1   
     7    4   42 1   
     8    5    7 ar  
     9    5    9 ar  
    10    6    7 ar  
    11    6    8 ar  
    12    6   43 1   
    13    7   44 1   
    14    8   10 ar  
    15    8   11 1   
    16    9   10 ar  
    17    9   45 1   
    18   10   46 1   
    19   11   12 2   
    20   11   15 1   
    21   12   13 1   
    22   12   47 1   
    23   13   14 1   
    24   13   17 1   
    25   14   15 2   
    26   14   16 1   
    27   16   18 1   
    28   17   18 ar  
    29   17   19 ar  
    30   18   21 ar  
    31   19   20 ar  
    32   19   48 1   
    33   20   22 ar  
    34   20   49 1   
    35   21   22 ar  
    36   21   50 1   
    37   22   23 1   
    38   23   24 1   
    39   24   25 1   
    40   24   51 1   
    41   24   52 1   
    42   25   26 1   
    43   25   53 1   
    44   25   54 1   
    45   26   27 1   
    46   26   31 1   
    47   27   28 1   
    48   27   55 1   
    49   27   56 1   
    50   28   29 1   
    51   28   57 1   
    52   28   58 1   
    53   29   30 1   
    54   30   31 1   
    55   30   59 1   
    56   30   60 1   
    57   31   61 1   
    58   31   62 1   
    59   32   33 2   
    60   32   36 1   
    61   33   34 1   
    62   34   35 1   
    63   35   36 2   
    64   35   37 1   
    65   36   63 1   
    66   37   38 1   
    67   37   39 1   
    68   37   40 1   
    69   38   64 1   
    70   38   65 1   
    71   38   66 1   
    72   39   67 1   
    73   39   68 1   
    74   39   69 1   
    75   40   70 1   
    76   40   71 1   
    77   40   72 1   
@<TRIPOS>SUBSTRUCTURE
     1 P30         1 TEMP              0 ****  ****    0 ROOT
