@<TRIPOS>MOLECULE
P31
   44    47     1     0     0
SMALL
bcc


@<TRIPOS>ATOM
      1 C1         -0.4900    0.7590    0.0370 ca        1 P31     -0.131900
      2 C2          0.8770    0.5690   -0.3180 ca        1 P31      0.424200
      3 N4          1.8310    0.1660    0.5230 nb        1 P31     -0.658000
      4 C5         -0.9180    0.5210    1.3380 ca        1 P31     -0.047000
      5 C7          0.0370    0.0970    2.2630 ca        1 P31     -0.189100
      6 C8          1.4130   -0.0680    1.8050 ca        1 P31      0.420800
      7 N9          2.1790   -0.4910    2.9000 na        1 P31     -0.281100
      8 C11         0.0270   -0.2480    3.6660 cc        1 P31     -0.131400
      9 C12        -1.1360   -0.2120    4.5670 c3        1 P31      0.047100
     10 C15        -1.8350   -1.5190    4.6870 ca        1 P31     -0.231600
     11 C16        -2.2440   -2.2330    3.5400 ca        1 P31      0.441200
     12 N18        -2.8970   -3.3990    3.5630 nb        1 P31     -0.710000
     13 C19        -3.2090   -3.9340    4.7920 ca        1 P31      0.615200
     14 C20        -2.8220   -3.2880    6.0010 ca        1 P31     -0.286300
     15 C22        -2.1360   -2.0780    5.9310 ca        1 P31     -0.065000
     16 N24        -4.0000   -5.1050    4.8290 nh        1 P31     -0.828900
     17 C26        -3.7520   -6.0210    5.9250 c3        1 P31      0.231100
     18 C29        -4.2080   -7.4200    5.6490 ca        1 P31     -0.193600
     19 C30         1.3360   -0.5970    4.0070 cd        1 P31     -0.088100
     20 C32        -3.3580   -8.5100    5.9440 ca        1 P31      0.405200
     21 N34        -3.7040   -9.7930    5.7640 nb        1 P31     -0.619000
     22 C35        -4.9390  -10.0360    5.2640 ca        1 P31      0.327600
     23 C36        -5.8570   -9.0250    4.9350 ca        1 P31     -0.196300
     24 C38        -5.4780   -7.6940    5.1360 ca        1 P31     -0.084000
     25 C40        -5.3270  -11.5140    5.0580 c3        1 P31      0.599600
     26 F41        -6.5910  -11.6880    4.5490 f         1 P31     -0.228300
     27 F42        -4.5130  -12.1900    4.1880 f         1 P31     -0.228300
     28 F43        -5.3180  -12.2590    6.2080 f         1 P31     -0.228300
     29 CL1        -1.5820    1.2760   -1.1510 cl        1 P31     -0.080400
     30 H1          1.2110    0.7590   -1.3560 h4        1 P31      0.037100
     31 H2         -1.9680    0.6590    1.6370 ha        1 P31      0.154000
     32 H3          3.1440   -0.6900    2.8780 hn        1 P31      0.313700
     33 H4         -1.8710    0.5520    4.1830 hc        1 P31      0.056700
     34 H5         -0.8040    0.1330    5.5860 hc        1 P31      0.056700
     35 H6         -2.0140   -1.8370    2.5310 h4        1 P31      0.030100
     36 H7         -3.0710   -3.7230    6.9770 ha        1 P31      0.142000
     37 H8         -1.8390   -1.5650    6.8590 ha        1 P31      0.136000
     38 H9         -4.1010   -5.5600    3.9420 hn        1 P31      0.414800
     39 H10        -4.3270   -5.6350    6.8200 h1        1 P31      0.056700
     40 H11        -2.6580   -6.0360    6.2120 h1        1 P31      0.056700
     41 H12         1.7330   -0.9150    4.9740 h4        1 P31      0.172000
     42 H13        -2.3420   -8.3460    6.3500 h4        1 P31      0.036100
     43 H14        -6.8490   -9.2780    4.5320 ha        1 P31      0.168000
     44 H15        -6.1770   -6.8770    4.8950 ha        1 P31      0.163000
@<TRIPOS>BOND
     1    1    2 ar  
     2    1    4 ar  
     3    1   29 1   
     4    2    3 ar  
     5    2   30 1   
     6    3    6 ar  
     7    4    5 ar  
     8    4   31 1   
     9    5    6 ar  
    10    5    8 1   
    11    6    7 1   
    12    7   19 1   
    13    7   32 1   
    14    8    9 1   
    15    8   19 2   
    16    9   10 1   
    17    9   33 1   
    18    9   34 1   
    19   10   11 ar  
    20   10   15 ar  
    21   11   12 ar  
    22   11   35 1   
    23   12   13 ar  
    24   13   14 ar  
    25   13   16 1   
    26   14   15 ar  
    27   14   36 1   
    28   15   37 1   
    29   16   17 1   
    30   16   38 1   
    31   17   18 1   
    32   17   39 1   
    33   17   40 1   
    34   18   20 ar  
    35   18   24 ar  
    36   19   41 1   
    37   20   21 ar  
    38   20   42 1   
    39   21   22 ar  
    40   22   23 ar  
    41   22   25 1   
    42   23   24 ar  
    43   23   43 1   
    44   24   44 1   
    45   25   26 1   
    46   25   27 1   
    47   25   28 1   
@<TRIPOS>SUBSTRUCTURE
     1 P31         1 TEMP              0 ****  ****    0 ROOT
