@<TRIPOS>MOLECULE
P31
   44    47     1     0     0
SMALL
bcc


@<TRIPOS>ATOM
      1 C1         -0.4620    0.7520    0.0460 ca        1 P31     -0.131900
      2 C2          0.9070    0.5600   -0.3020 ca        1 P31      0.424200
      3 N4          1.8560    0.1550    0.5440 nb        1 P31     -0.658000
      4 C5         -0.8960    0.5160    1.3460 ca        1 P31     -0.047000
      5 C7          0.0540    0.0910    2.2760 ca        1 P31     -0.189100
      6 C8          1.4310   -0.0770    1.8240 ca        1 P31      0.420800
      7 N9          2.1910   -0.5020    2.9220 na        1 P31     -0.281100
      8 C11         0.0370   -0.2530    3.6780 cc        1 P31     -0.131400
      9 C12        -1.1300   -0.2140    4.5740 c3        1 P31      0.047100
     10 C15        -1.8330   -1.5190    4.6910 ca        1 P31     -0.231600
     11 C16        -2.2410   -2.2310    3.5420 ca        1 P31      0.441200
     12 N18        -2.8970   -3.3960    3.5620 nb        1 P31     -0.710000
     13 C19        -3.2130   -3.9310    4.7900 ca        1 P31      0.615200
     14 C20        -2.8280   -3.2870    6.0000 ca        1 P31     -0.286300
     15 C22        -2.1390   -2.0790    5.9340 ca        1 P31     -0.065000
     16 N24        -4.0080   -5.1000    4.8240 nu        1 P31     -0.828900
     17 C26        -3.7640   -6.0180    5.9180 c3        1 P31      0.231100
     18 C29        -4.2220   -7.4150    5.6380 ca        1 P31     -0.193600
     19 C30         1.3440   -0.6040    4.0260 cd        1 P31     -0.088100
     20 C32        -3.3740   -8.5080    5.9340 ca        1 P31      0.405200
     21 N34        -3.7230   -9.7900    5.7500 nb        1 P31     -0.619000
     22 C35        -4.9570  -10.0300    5.2480 ca        1 P31      0.327600
     23 C36        -5.8730   -9.0170    4.9190 ca        1 P31     -0.196300
     24 C38        -5.4920   -7.6870    5.1220 ca        1 P31     -0.084000
     25 C40        -5.3470  -11.5070    5.0380 c3        1 P31      0.599600
     26 F41        -6.6100  -11.6780    4.5260 f         1 P31     -0.228300
     27 F42        -4.5330  -12.1820    4.1670 f         1 P31     -0.228300
     28 F43        -5.3410  -12.2540    6.1860 f         1 P31     -0.228300
     29 Cl1        -1.5470    1.2720   -1.1470 cl        1 P31     -0.080400
     30 H1          1.2450    0.7480   -1.3390 h4        1 P31      0.037100
     31 H2         -1.9470    0.6580    1.6400 ha        1 P31      0.154000
     32 H3          3.1560   -0.7030    2.9050 hn        1 P31      0.313700
     33 H4         -0.8020    0.1300    5.5950 hc        1 P31      0.056700
     34 H5         -1.8620    0.5510    4.1870 hc        1 P31      0.056700
     35 H6         -2.0080   -1.8340    2.5340 h4        1 P31      0.030100
     36 H7         -3.0800   -3.7230    6.9750 ha        1 P31      0.142000
     37 H8         -1.8420   -1.5680    6.8630 ha        1 P31      0.136000
     38 H9         -4.1080   -5.5530    3.9360 hn        1 P31      0.414800
     39 H10        -4.3410   -5.6330    6.8120 h1        1 P31      0.056700
     40 H11        -2.6710   -6.0350    6.2080 h1        1 P31      0.056700
     41 H12         1.7360   -0.9230    4.9940 h4        1 P31      0.172000
     42 H13        -2.3590   -8.3460    6.3420 h4        1 P31      0.036100
     43 H14        -6.8650   -9.2670    4.5130 ha        1 P31      0.168000
     44 H15        -6.1880   -6.8680    4.8820 ha        1 P31      0.163000
@<TRIPOS>BOND
     1    1    2 ar  
     2    1    4 ar  
     3    1   29 1   
     4    2    3 ar  
     5    2   30 1   
     6    3    6 ar  
     7    4    5 ar  
     8    4   31 1   
     9    5    6 ar  
    10    5    8 1   
    11    6    7 1   
    12    7   19 1   
    13    7   32 1   
    14    8    9 1   
    15    8   19 2   
    16    9   10 1   
    17    9   33 1   
    18    9   34 1   
    19   10   11 ar  
    20   10   15 ar  
    21   11   12 ar  
    22   11   35 1   
    23   12   13 ar  
    24   13   14 ar  
    25   13   16 1   
    26   14   15 ar  
    27   14   36 1   
    28   15   37 1   
    29   16   17 1   
    30   16   38 1   
    31   17   18 1   
    32   17   39 1   
    33   17   40 1   
    34   18   20 ar  
    35   18   24 ar  
    36   19   41 1   
    37   20   21 ar  
    38   20   42 1   
    39   21   22 ar  
    40   22   23 ar  
    41   22   25 1   
    42   23   24 ar  
    43   23   43 1   
    44   24   44 1   
    45   25   26 1   
    46   25   27 1   
    47   25   28 1   
@<TRIPOS>SUBSTRUCTURE
     1 P31         1 TEMP              0 ****  ****    0 ROOT
