@<TRIPOS>MOLECULE
P32
   42    38     1     0     0
SMALL
bcc


@<TRIPOS>ATOM
      1 O2         -0.6460   -0.9460   -1.1430 oh        1 P32     -0.344000
      2 C10         0.7230   -0.8500   -1.0260 c3        1 P32      0.013000
      3 N3         -5.9660   -2.2660    3.3830 n1        1 P32     -0.006000
      4 C11         1.2090    0.4360   -1.7140 c3        1 P32     -0.103000
      5 N2          0.2750    0.8150   -2.7450 n3        1 P32     -0.295000
      6 C12         0.8180    1.9120   -3.4890 c3        1 P32      0.026000
      7 C15        -0.1980    2.3770   -4.5400 c3        1 P32     -0.218333
      8 C13         2.0660    1.4710   -4.1650 c3        1 P32     -0.218333
      9 C9          1.1070   -0.8190    0.4640 c3        1 P32     -0.023000
     10 O1          0.2540   -1.7290    1.1940 os        1 P32     -0.224000
     11 C4          0.1650   -1.4350    2.6540 c1        1 P32      0.082000
     12 C5          1.2040   -0.9590    3.5620 c1        1 P32     -0.125000
     13 C6          0.9090   -0.7700    4.9660 c1        1 P32     -0.125000
     14 C7         -0.3920   -1.0490    5.4650 c1        1 P32     -0.087000
     15 C8         -1.4150   -1.5170    4.5780 c1        1 P32     -0.051000
     16 C3         -1.1150   -1.7100    3.1390 c1        1 P32     -0.138000
     17 N1         -2.7740   -1.9160    4.7190 n1        1 P32     -0.052000
     18 C1         -3.3440   -2.3190    3.6230 c1        1 P32      0.021000
     19 C2         -2.5310   -2.2750    2.4790 c2        1 P32     -0.117000
     20 C16        -4.8320   -2.2880    3.4880 c1        1 P32     -0.083000
     21 C14         1.1280    3.0510   -2.5570 c3        1 P32     -0.218333
     22 H1         -2.8820   -1.6240    1.8370 ha        1 P32      0.147000
     23 H2         -2.4910   -3.0770    1.9360 ha        1 P32      0.147000
     24 H5          2.0980   -0.7680    3.2210 ha        1 P32      0.145500
     25 H6          1.6340   -0.4370    5.5980 ha        1 P32      0.145500
     26 H7         -0.5950   -0.9170    6.4400 ha        1 P32      0.154000
     27 H9C1        0.9900    0.0980    0.8180 h1        1 P32      0.099500
     28 H9C2        2.1010   -1.1090    0.5740 h1        1 P32      0.099500
     29 H10         1.1740   -1.6860   -1.4880 h1        1 P32      0.112000
     30 HA         -0.8520   -1.6950   -1.5480 ho        1 P32      0.212000
     31 H111        1.2740    1.1550   -1.0530 h1        1 P32      0.080000
     32 H112        2.0970    0.2780   -2.1160 h1        1 P32      0.080000
     33 HB         -0.5780    1.0850   -2.3330 hn        1 P32      0.153000
     34 H131        2.2200    2.0220   -4.9630 hc        1 P32      0.079111
     35 H132        2.8390    1.5700   -3.5370 hc        1 P32      0.079111
     36 H133        1.9790    0.5340   -4.4290 hc        1 P32      0.079111
     37 H141        2.0940    2.9450   -2.1890 hc        1 P32      0.079111
     38 H142        0.4980    3.0460   -1.8190 hc        1 P32      0.079111
     39 H143        1.0540    3.8990   -3.0430 hc        1 P32      0.079111
     40 H151        0.2340    2.9710   -5.1610 hc        1 P32      0.079111
     41 H152       -0.9920    2.8840   -4.0640 hc        1 P32      0.079111
     42 H153       -0.5420    1.6110   -5.0150 hc        1 P32      0.079111
@<TRIPOS>BOND
     1    1    2 1   
     2    1   30 1   
     3    2    4 1   
     4    2    9 1   
     5    2   29 1   
     6    3   20 1   
     7    4    5 1   
     8    4   31 1   
     9    4   32 1   
    10    5    6 1   
    11    5   33 1   
    12    6    7 1   
    13    6    8 1   
    14    6   21 1   
    15    7   40 1   
    16    7   41 1   
    17    7   42 1   
    18    8   34 1   
    19    8   35 1   
    20    8   36 1   
    21    9   10 1   
    22    9   27 1   
    23    9   28 1   
    24   10   11 1   
    25   11   16 1   
    26   12   13 1   
    27   12   24 1   
    28   13   25 1   
    29   14   15 1   
    30   14   26 1   
    31   15   16 1   
    32   17   18 1   
    33   18   19 1   
    34   19   22 1   
    35   19   23 1   
    36   21   37 1   
    37   21   38 1   
    38   21   39 1   
@<TRIPOS>SUBSTRUCTURE
     1 P32         1 TEMP              0 ****  ****    0 ROOT
