@<TRIPOS>MOLECULE
P32
   42    43     1     0     0
SMALL
bcc


@<TRIPOS>ATOM
      1 O2          9.9430   22.6360   26.0570 oh        1 P32     -0.589800
      2 C10         9.4080   22.2690   24.7990 c3        1 P32      0.095100
      3 N3          5.5210   17.5640   18.8560 n1        1 P32     -0.326800
      4 C11         9.2550   23.4860   23.8660 c3        1 P32      0.135800
      5 N2          8.4960   24.5930   24.3880 n3        1 P32     -0.812200
      6 C12         7.0700   24.6510   24.0300 c3        1 P32      0.182200
      7 C15         6.3900   25.7780   24.8320 c3        1 P32     -0.101100
      8 C13         6.2940   23.3550   24.3220 c3        1 P32     -0.101100
      9 C9         10.3070   21.2080   24.1520 c3        1 P32      0.095400
     10 O1          9.4990   20.5650   23.1600 os        1 P32     -0.326900
     11 C4         10.0920   19.5090   22.4970 ca        1 P32      0.152100
     12 C5         11.4210   19.0830   22.6860 ca        1 P32     -0.187000
     13 C6         11.9250   18.0080   21.9580 ca        1 P32     -0.097000
     14 C7         11.1480   17.3170   21.0230 ca        1 P32     -0.105000
     15 C8          9.8340   17.7350   20.8320 ca        1 P32      0.106400
     16 C3          9.2970   18.8400   21.5740 ca        1 P32     -0.149300
     17 N1          8.8560   17.1890   19.9390 ne        1 P32     -0.477100
     18 C1          7.7580   17.9030   20.1010 cf        1 P32      0.417200
     19 C2          7.8760   19.0280   21.1380 c3        1 P32     -0.100400
     20 C16         6.5330   17.7060   19.4100 ch        1 P32      0.208600
     21 C14         6.8910   24.9770   22.5390 c3        1 P32     -0.101100
     22 H1          7.1520   18.8840   21.9770 hc        1 P32      0.099200
     23 H2          7.7030   20.0300   20.6720 hc        1 P32      0.099200
     24 H5         12.0710   19.5950   23.4100 ha        1 P32      0.142000
     25 H6         12.9670   17.6920   22.1240 ha        1 P32      0.140000
     26 H7         11.5640   16.4710   20.4580 ha        1 P32      0.156000
     27 H9C1       10.6340   20.4630   24.9240 h1        1 P32      0.050200
     28 H9C2       11.2020   21.6750   23.6660 h1        1 P32      0.050200
     29 H10         8.4030   21.8200   25.0430 h1        1 P32      0.096700
     30 HA         10.7530   23.1360   25.8940 ho        1 P32      0.402000
     31 H111       10.2890   23.8890   23.6530 h1        1 P32      0.059700
     32 H112        8.8240   23.1160   22.8950 h1        1 P32      0.059700
     33 HB          8.5900   24.6330   25.3880 hn        1 P32      0.369800
     34 H131        6.3750   23.0800   25.4000 hc        1 P32      0.039367
     35 H132        5.2160   23.5020   24.0740 hc        1 P32      0.039367
     36 H133        6.6860   22.5120   23.7030 hc        1 P32      0.039367
     37 H141        5.8040   25.1040   22.3220 hc        1 P32      0.039367
     38 H142        7.4220   25.9230   22.2770 hc        1 P32      0.039367
     39 H143        7.2850   24.1540   21.8970 hc        1 P32      0.039367
     40 H151        6.4270   25.5630   25.9260 hc        1 P32      0.039367
     41 H152        6.8910   26.7560   24.6370 hc        1 P32      0.039367
     42 H153        5.3220   25.8540   24.5210 hc        1 P32      0.039367
@<TRIPOS>BOND
     1    1    2 1   
     2    1   30 1   
     3    2    4 1   
     4    2    9 1   
     5    2   29 1   
     6    3   20 3   
     7    4    5 1   
     8    4   31 1   
     9    4   32 1   
    10    5    6 1   
    11    5   33 1   
    12    6    7 1   
    13    6    8 1   
    14    6   21 1   
    15    7   40 1   
    16    7   41 1   
    17    7   42 1   
    18    8   34 1   
    19    8   35 1   
    20    8   36 1   
    21    9   10 1   
    22    9   27 1   
    23    9   28 1   
    24   10   11 1   
    25   11   12 ar  
    26   11   16 ar  
    27   12   13 ar  
    28   12   24 1   
    29   13   14 ar  
    30   13   25 1   
    31   14   15 ar  
    32   14   26 1   
    33   15   16 ar  
    34   15   17 1   
    35   16   19 1   
    36   17   18 2   
    37   18   19 1   
    38   18   20 1   
    39   19   22 1   
    40   19   23 1   
    41   21   37 1   
    42   21   38 1   
    43   21   39 1   
@<TRIPOS>SUBSTRUCTURE
     1 P32         1 TEMP              0 ****  ****    0 ROOT
