@<TRIPOS>MOLECULE
P32
   43    44     1     0     0
SMALL
bcc


@<TRIPOS>ATOM
      1 O2          0.1020    0.0290   -0.0540 oh        1 P32     -0.623800
      2 C10         1.5190    0.0350    0.0040 c3        1 P32      0.119100
      3 N3          9.5450   -2.1970    0.3490 n1        1 P32     -0.297800
      4 C11         1.9750    1.3330   -0.6890 c3        1 P32      0.101800
      5 N2          1.4210    1.4580   -2.0620 n4        1 P32     -0.762000
      6 C12         1.7420    2.7800   -2.7610 c3        1 P32      0.153200
      7 C15         1.2490    2.6790   -4.2100 c3        1 P32     -0.128433
      8 C13         3.2490    3.0360   -2.7590 c3        1 P32     -0.128433
      9 C9          2.0200    0.0400    1.4540 c3        1 P32      0.098400
     10 O1          3.4420    0.1400    1.3710 os        1 P32     -0.353900
     11 C4          4.1210   -0.2580    2.5200 ca        1 P32      0.117100
     12 C5          3.5860   -0.1250    3.8150 ca        1 P32     -0.173000
     13 C6          4.3470   -0.4810    4.9240 ca        1 P32     -0.094000
     14 C7          5.6530   -0.9720    4.7960 ca        1 P32     -0.079000
     15 C8          6.1810   -1.1000    3.5150 ca        1 P32      0.109400
     16 C3          5.4070   -0.7450    2.3560 ca        1 P32     -0.137300
     17 N1          7.4810   -1.5720    3.1440 ne        1 P32     -0.462100
     18 C1          7.5400   -1.5220    1.8270 cf        1 P32      0.430200
     19 C2          6.2620   -1.0010    1.1520 c3        1 P32     -0.107400
     20 C16         8.6490   -1.8970    1.0260 ch        1 P32      0.194600
     21 C14         1.0210    3.9350   -2.0660 c3        1 P32     -0.128433
     22 H1          6.4690   -0.0690    0.5710 hc        1 P32      0.093200
     23 H2          5.8240   -1.7730    0.4740 hc        1 P32      0.093200
     24 H5          2.5680    0.2660    3.9550 ha        1 P32      0.140000
     25 H6          3.9140   -0.3710    5.9310 ha        1 P32      0.154000
     26 H7          6.2420   -1.2470    5.6850 ha        1 P32      0.172000
     27 H9C1        1.6150    0.9270    2.0090 h1        1 P32      0.069700
     28 H9C2        1.7100   -0.9060    1.9700 h1        1 P32      0.069700
     29 H10         1.9250   -0.8660   -0.5360 h1        1 P32      0.071700
     30 HA         -0.2210   -0.6690    0.5330 ho        1 P32      0.450000
     31 H111        1.6250    2.2190   -0.0860 hx        1 P32      0.121200
     32 H112        3.1020    1.3350   -0.7320 hx        1 P32      0.121200
     33 HB          0.3980    1.3620   -2.0070 hn        1 P32      0.453300
     34 H131        3.6270    3.2380   -1.7270 hc        1 P32      0.076367
     35 H132        3.8120    2.1780   -3.1990 hc        1 P32      0.076367
     36 H133        3.4510    3.9420   -3.3840 hc        1 P32      0.076367
     37 H141       -0.0810    3.7590   -2.0130 hc        1 P32      0.076367
     38 H142        1.1960    4.8660   -2.6630 hc        1 P32      0.076367
     39 H143        1.4170    4.1080   -1.0370 hc        1 P32      0.076367
     40 H151        1.7800    1.8690   -4.7660 hc        1 P32      0.076367
     41 H152        0.1470    2.5020   -4.2550 hc        1 P32      0.076367
     42 H153        1.4640    3.6500   -4.7240 hc        1 P32      0.076367
     43 H22         1.7840    0.6940   -2.6410 hn        1 P32      0.453300
@<TRIPOS>BOND
     1    1    2 1   
     2    1   30 1   
     3    2    4 1   
     4    2    9 1   
     5    2   29 1   
     6    3   20 3   
     7    4    5 1   
     8    4   31 1   
     9    4   32 1   
    10    5    6 1   
    11    5   33 1   
    12    5   43 1   
    13    6    7 1   
    14    6    8 1   
    15    6   21 1   
    16    7   40 1   
    17    7   41 1   
    18    7   42 1   
    19    8   34 1   
    20    8   35 1   
    21    8   36 1   
    22    9   10 1   
    23    9   27 1   
    24    9   28 1   
    25   10   11 1   
    26   11   12 ar  
    27   11   16 ar  
    28   12   13 ar  
    29   12   24 1   
    30   13   14 ar  
    31   13   25 1   
    32   14   15 ar  
    33   14   26 1   
    34   15   16 ar  
    35   15   17 1   
    36   16   19 1   
    37   17   18 2   
    38   18   19 1   
    39   18   20 1   
    40   19   22 1   
    41   19   23 1   
    42   21   37 1   
    43   21   38 1   
    44   21   39 1   
@<TRIPOS>SUBSTRUCTURE
     1 P32         1 TEMP              0 ****  ****    0 ROOT
