@<TRIPOS>MOLECULE
P32
   43    44     1     0     0
SMALL
bcc


@<TRIPOS>ATOM
      1 O2          0.0000    0.0000    0.0000 oh        1 P32     -0.592800
      2 C10         1.4020    0.0000    0.0000 c3        1 P32      0.168100
      3 N3          9.2590   -0.2530    0.1190 n1        1 P32     -0.323800
      4 C11         1.9990    1.2780   -0.6330 c3        1 P32     -0.055200
      5 N2          1.3470    1.5470   -1.9130 ny        1 P32      0.031000
      6 C12         2.0340    2.6000   -2.6860 c3        1 P32     -0.088800
      7 C15         1.0710    3.0440   -3.8080 c3        1 P32      0.004233
      8 C13         3.3450    2.0410   -3.3090 c3        1 P32      0.004233
      9 C9          1.8480    0.0000    1.4550 c3        1 P32      0.190400
     10 O1          3.0390   -0.7620    1.4630 os        1 P32     -0.343900
     11 C4          3.8480   -0.7630    2.5420 ca        1 P32      0.136100
     12 C5          3.3150   -0.9030    3.8110 ca        1 P32     -0.148000
     13 C6          4.1730   -0.9570    4.9020 ca        1 P32     -0.060000
     14 C7          5.5570   -0.8780    4.7350 ca        1 P32     -0.044000
     15 C8          6.0800   -0.7360    3.4560 ca        1 P32      0.095400
     16 C3          5.2190   -0.6760    2.3630 ca        1 P32     -0.185300
     17 N1          7.3170   -0.6360    2.9810 ne        1 P32     -0.395100
     18 C1          7.2250   -0.5380    1.6660 cf        1 P32      0.423200
     19 C2          5.9490   -0.5430    1.2630 c3        1 P32     -0.054400
     20 C16         8.3380   -0.4400    0.7600 ch        1 P32      0.176600
     21 C14         2.3310    3.8310   -1.7910 c3        1 P32      0.004233
     22 H1          5.7110    0.3910    0.7700 hc        1 P32      0.077700
     23 H2          5.7730   -1.3790    0.5970 hc        1 P32      0.077700
     24 H5          2.2420   -0.9650    3.9520 ha        1 P32      0.119000
     25 H6          3.7630   -1.0660    5.8980 ha        1 P32      0.117000
     26 H7          6.2170   -1.0840    5.5700 ha        1 P32      0.129000
     27 H9C1        1.0970   -0.4670    2.0800 h1        1 P32      0.027200
     28 H9C2        2.0440    1.0110    1.7900 h1        1 P32      0.027200
     29 H10         1.7780   -0.8810   -0.5070 h1        1 P32      0.042700
     30 HA         -0.3140   -0.8730   -0.1670 ho        1 P32      0.434000
     31 H111        1.8420    2.1170    0.0340 hx        1 P32      0.092200
     32 H112        3.0610    1.1390   -0.7920 hx        1 P32      0.092200
     33 HB          0.4040    1.8340   -1.7410 hn        1 P32      0.247800
     34 H131        3.6160    2.6350   -4.1740 hc        1 P32      0.036256
     35 H132        4.1410    2.0860   -2.5760 hc        1 P32      0.036256
     36 H133        3.1910    1.0120   -3.6120 hc        1 P32      0.036256
     37 H141        2.5870    4.6790   -2.4150 hc        1 P32      0.036256
     38 H142        3.1600    3.6060   -1.1300 hc        1 P32      0.036256
     39 H143        1.4540    4.0690   -1.2010 hc        1 P32      0.036256
     40 H151        0.1720    3.4590   -3.3690 hc        1 P32      0.036256
     41 H152        0.8120    2.1890   -4.4210 hc        1 P32      0.036256
     42 H153        1.5530    3.7950   -4.4220 hc        1 P32      0.036256
     43 H22         1.3370    0.7040   -2.4530 hn        1 P32      0.247800
@<TRIPOS>BOND
     1    1    2 1   
     2    1   30 1   
     3    2    4 1   
     4    2    9 1   
     5    2   29 1   
     6    3   20 3   
     7    4    5 1   
     8    4   31 1   
     9    4   32 1   
    10    5    6 1   
    11    5   33 1   
    12    5   43 1   
    13    6    7 1   
    14    6    8 1   
    15    6   21 1   
    16    7   40 1   
    17    7   41 1   
    18    7   42 1   
    19    8   34 1   
    20    8   35 1   
    21    8   36 1   
    22    9   10 1   
    23    9   27 1   
    24    9   28 1   
    25   10   11 1   
    26   11   12 ar  
    27   11   16 ar  
    28   12   13 ar  
    29   12   24 1   
    30   13   14 ar  
    31   13   25 1   
    32   14   15 ar  
    33   14   26 1   
    34   15   16 ar  
    35   15   17 1   
    36   16   19 1   
    37   17   18 2   
    38   18   19 1   
    39   18   20 1   
    40   19   22 1   
    41   19   23 1   
    42   21   37 1   
    43   21   38 1   
    44   21   39 1   
@<TRIPOS>SUBSTRUCTURE
     1 P32         1 TEMP              0 ****  ****    0 ROOT
