@<TRIPOS>MOLECULE
P33
   52    51     1     0     0
SMALL
bcc


@<TRIPOS>ATOM
      1 O22        -0.5680    2.2660    0.4500 oh        1 P33     -0.599800
      2 C21        -1.0030    0.9620    0.1280 c3        1 P33      0.131400
      3 C20         0.1680    0.0490   -0.2220 c3        1 P33      0.087400
      4 O19         0.9240   -0.1030    0.9770 os        1 P33     -0.438600
      5 C18         2.0940   -0.8970    0.7850 c3        1 P33      0.128400
      6 C17         2.6910   -1.1330    2.1690 c3        1 P33      0.127400
      7 O16         2.4210   -2.4930    2.4990 os        1 P33     -0.428600
      8 C15         2.7920   -2.8070    3.8400 c3        1 P33      0.127400
      9 C14         2.6240   -4.3150    3.9950 c3        1 P33      0.127400
     10 O13         3.9380   -4.8690    4.0150 os        1 P33     -0.429600
     11 C12         3.9220   -6.2950    3.9950 c3        1 P33      0.127400
     12 C11         5.3640   -6.7460    4.2020 c3        1 P33      0.127400
     13 O10         5.4410   -7.2620    5.5300 os        1 P33     -0.429600
     14 C9          6.7790   -7.5710    5.9130 c3        1 P33      0.127400
     15 C8          6.6920   -8.2680    7.2660 c3        1 P33      0.127400
     16 O7          6.9570   -9.6500    7.0280 os        1 P33     -0.428600
     17 C6          6.7440  -10.4490    8.1890 c3        1 P33      0.127400
     18 C5          7.2240  -11.8540    7.8410 c3        1 P33      0.128400
     19 O4          8.4540  -12.0470    8.5390 os        1 P33     -0.438600
     20 C3          9.1040  -13.2600    8.1670 c3        1 P33      0.087400
     21 C2         10.3570  -13.3510    9.0330 c3        1 P33      0.131400
     22 O1         10.0360  -13.5160   10.3980 oh        1 P33     -0.599800
     23 H22         0.0590    2.1810    1.1790 ho        1 P33      0.412000
     24 H211       -1.5860    0.5270    0.9830 h1        1 P33      0.053700
     25 H212       -1.6680    1.0870   -0.7670 h1        1 P33      0.053700
     26 H201        0.8100    0.5120   -1.0170 h1        1 P33      0.039200
     27 H202       -0.2010   -0.9510   -0.5690 h1        1 P33      0.039200
     28 H181        2.8160   -0.3350    0.1370 h1        1 P33      0.045200
     29 H182        1.8250   -1.8710    0.2960 h1        1 P33      0.045200
     30 H171        2.2240   -0.4490    2.9260 h1        1 P33      0.043200
     31 H172        3.8010   -0.9720    2.1480 h1        1 P33      0.043200
     32 H151        2.1110   -2.2630    4.5470 h1        1 P33      0.044200
     33 H152        3.8550   -2.5030    4.0310 h1        1 P33      0.044200
     34 H141        2.1080   -4.5540    4.9620 h1        1 P33      0.044200
     35 H142        2.0360   -4.7400    3.1390 h1        1 P33      0.044200
     36 H121        3.5420   -6.6450    3.0000 h1        1 P33      0.043700
     37 H122        3.2610   -6.6880    4.8120 h1        1 P33      0.043700
     38 H111        6.0730   -5.8850    4.0790 h1        1 P33      0.043700
     39 H112        5.6280   -7.5600    3.4760 h1        1 P33      0.043700
     40 H91         7.2580   -8.2400    5.1500 h1        1 P33      0.044200
     41 H92         7.3660   -6.6190    6.0010 h1        1 P33      0.044200
     42 H81         7.4680   -7.8610    7.9670 h1        1 P33      0.044200
     43 H82         5.6720   -8.1400    7.7160 h1        1 P33      0.044200
     44 H61         5.6490  -10.4600    8.4330 h1        1 P33      0.043200
     45 H62         7.3200  -10.0330    9.0580 h1        1 P33      0.043200
     46 H51         6.4820  -12.6200    8.1890 h1        1 P33      0.045200
     47 H52         7.3850  -11.9580    6.7360 h1        1 P33      0.045200
     48 H31         8.4220  -14.1290    8.3620 h1        1 P33      0.039200
     49 H32         9.3760  -13.2290    7.0800 h1        1 P33      0.039200
     50 H21        10.9880  -12.4340    8.8920 h1        1 P33      0.053700
     51 H22A       10.9430  -14.2680    8.7570 h1        1 P33      0.053700
     52 HO1         9.4740  -12.7710   10.6460 ho        1 P33      0.412000
@<TRIPOS>BOND
     1    1    2 1   
     2    1   23 1   
     3    2    3 1   
     4    2   24 1   
     5    2   25 1   
     6    3    4 1   
     7    3   26 1   
     8    3   27 1   
     9    4    5 1   
    10    5    6 1   
    11    5   28 1   
    12    5   29 1   
    13    6    7 1   
    14    6   30 1   
    15    6   31 1   
    16    7    8 1   
    17    8    9 1   
    18    8   32 1   
    19    8   33 1   
    20    9   10 1   
    21    9   34 1   
    22    9   35 1   
    23   10   11 1   
    24   11   12 1   
    25   11   36 1   
    26   11   37 1   
    27   12   13 1   
    28   12   38 1   
    29   12   39 1   
    30   13   14 1   
    31   14   15 1   
    32   14   40 1   
    33   14   41 1   
    34   15   16 1   
    35   15   42 1   
    36   15   43 1   
    37   16   17 1   
    38   17   18 1   
    39   17   44 1   
    40   17   45 1   
    41   18   19 1   
    42   18   46 1   
    43   18   47 1   
    44   19   20 1   
    45   20   21 1   
    46   20   48 1   
    47   20   49 1   
    48   21   22 1   
    49   21   50 1   
    50   21   51 1   
    51   22   52 1   
@<TRIPOS>SUBSTRUCTURE
     1 P33         1 TEMP              0 ****  ****    0 ROOT
