@<TRIPOS>MOLECULE
P33
   52    51     1     0     0
SMALL
bcc


@<TRIPOS>ATOM
      1 O22        -0.6050    2.2560    0.4800 oh        1 P33     -0.599800
      2 C21        -1.0480    0.9520    0.1670 c3        1 P33      0.131400
      3 C20         0.1150    0.0350   -0.1970 c3        1 P33      0.087400
      4 O19         0.8880   -0.1170    0.9920 os        1 P33     -0.438600
      5 C18         2.0520   -0.9150    0.7850 c3        1 P33      0.128400
      6 C17         2.6680   -1.1490    2.1600 c3        1 P33      0.127400
      7 O16         2.3990   -2.5080    2.4970 os        1 P33     -0.428600
      8 C15         2.7860   -2.8200    3.8340 c3        1 P33      0.127400
      9 C14         2.6180   -4.3270    3.9940 c3        1 P33      0.127400
     10 O13         3.9310   -4.8830    4.0020 os        1 P33     -0.429600
     11 C12         3.9140   -6.3090    3.9880 c3        1 P33      0.127400
     12 C11         5.3580   -6.7610    4.1830 c3        1 P33      0.127400
     13 O10         5.4470   -7.2670    5.5140 os        1 P33     -0.429600
     14 C9          6.7890   -7.5730    5.8860 c3        1 P33      0.127400
     15 C8          6.7150   -8.2580    7.2470 c3        1 P33      0.127400
     16 O7          6.9790   -9.6420    7.0180 os        1 P33     -0.428600
     17 C6          6.7760  -10.4300    8.1890 c3        1 P33      0.127400
     18 C5          7.2570  -11.8380    7.8510 c3        1 P33      0.128400
     19 O4          8.4920  -12.0220    8.5400 os        1 P33     -0.438600
     20 C3          9.1410  -13.2380    8.1750 c3        1 P33      0.087400
     21 C2         10.4010  -13.3190    9.0310 c3        1 P33      0.131400
     22 O1         10.0910  -13.4720   10.4000 oh        1 P33     -0.599800
     23 H22         0.0330    2.1710    1.2000 ho        1 P33      0.412000
     24 H211       -1.6200    0.5200    1.0310 h1        1 P33      0.053700
     25 H212       -1.7250    1.0770   -0.7190 h1        1 P33      0.053700
     26 H201        0.7470    0.4940   -1.0020 h1        1 P33      0.039200
     27 H202       -0.2620   -0.9650   -0.5370 h1        1 P33      0.039200
     28 H181        2.7670   -0.3560    0.1250 h1        1 P33      0.045200
     29 H182        1.7740   -1.8890    0.3020 h1        1 P33      0.045200
     30 H171        2.2130   -0.4630    2.9230 h1        1 P33      0.043200
     31 H172        3.7780   -0.9910    2.1230 h1        1 P33      0.043200
     32 H151        2.1150   -2.2730    4.5480 h1        1 P33      0.044200
     33 H152        3.8530   -2.5170    4.0110 h1        1 P33      0.044200
     34 H141        2.1120   -4.5630    4.9670 h1        1 P33      0.044200
     35 H142        2.0210   -4.7540    3.1440 h1        1 P33      0.044200
     36 H121        3.5250   -6.6620    2.9970 h1        1 P33      0.043700
     37 H122        3.2600   -6.6980    4.8120 h1        1 P33      0.043700
     38 H111        6.0670   -5.9020    4.0450 h1        1 P33      0.043700
     39 H112        5.6120   -7.5810    3.4610 h1        1 P33      0.043700
     40 H91         7.2590   -8.2500    5.1240 h1        1 P33      0.044200
     41 H92         7.3780   -6.6210    5.9600 h1        1 P33      0.044200
     42 H81         7.4970   -7.8440    7.9360 h1        1 P33      0.044200
     43 H82         5.6990   -8.1270    7.7050 h1        1 P33      0.044200
     44 H61         5.6830  -10.4410    8.4420 h1        1 P33      0.043200
     45 H62         7.3590  -10.0060    9.0490 h1        1 P33      0.043200
     46 H51         6.5180  -12.6010    8.2110 h1        1 P33      0.045200
     47 H52         7.4090  -11.9510    6.7450 h1        1 P33      0.045200
     48 H31         8.4620  -14.1060    8.3820 h1        1 P33      0.039200
     49 H32         9.4050  -13.2160    7.0850 h1        1 P33      0.039200
     50 H21        11.0290  -12.4020    8.8770 h1        1 P33      0.053700
     51 H22A       10.9860  -14.2370    8.7590 h1        1 P33      0.053700
     52 HO1         9.5290  -12.7250   10.6460 ho        1 P33      0.412000
@<TRIPOS>BOND
     1    1    2 1   
     2    1   23 1   
     3    2    3 1   
     4    2   24 1   
     5    2   25 1   
     6    3    4 1   
     7    3   26 1   
     8    3   27 1   
     9    4    5 1   
    10    5    6 1   
    11    5   28 1   
    12    5   29 1   
    13    6    7 1   
    14    6   30 1   
    15    6   31 1   
    16    7    8 1   
    17    8    9 1   
    18    8   32 1   
    19    8   33 1   
    20    9   10 1   
    21    9   34 1   
    22    9   35 1   
    23   10   11 1   
    24   11   12 1   
    25   11   36 1   
    26   11   37 1   
    27   12   13 1   
    28   12   38 1   
    29   12   39 1   
    30   13   14 1   
    31   14   15 1   
    32   14   40 1   
    33   14   41 1   
    34   15   16 1   
    35   15   42 1   
    36   15   43 1   
    37   16   17 1   
    38   17   18 1   
    39   17   44 1   
    40   17   45 1   
    41   18   19 1   
    42   18   46 1   
    43   18   47 1   
    44   19   20 1   
    45   20   21 1   
    46   20   48 1   
    47   20   49 1   
    48   21   22 1   
    49   21   50 1   
    50   21   51 1   
    51   22   52 1   
@<TRIPOS>SUBSTRUCTURE
     1 P33         1 TEMP              0 ****  ****    0 ROOT
