@<TRIPOS>MOLECULE
P33
   52    51     1     0     0
SMALL
bcc


@<TRIPOS>ATOM
      1 O22        -0.1880    0.9070   10.7270 oh        1 P33     -0.599800
      2 C21         0.5740   -0.1320   10.1480 c3        1 P33      0.131400
      3 C20        -0.1990   -0.8490    9.0460 c3        1 P33      0.087400
      4 O19        -0.3730    0.1040    8.0000 os        1 P33     -0.438600
      5 C18        -1.1360   -0.4170    6.9120 c3        1 P33      0.128400
      6 C17        -1.0780    0.6270    5.8020 c3        1 P33      0.127400
      7 O16        -0.2110    0.1030    4.7990 os        1 P33     -0.428600
      8 C15         0.0560    1.0510    3.7670 c3        1 P33      0.127400
      9 C14         0.8300    0.3060    2.6850 c3        1 P33      0.127400
     10 O13        -0.0760    0.1090    1.6010 os        1 P33     -0.429600
     11 C12         0.4770   -0.7190    0.5790 c3        1 P33      0.127400
     12 C11        -0.5130   -0.6940   -0.5810 c3        1 P33      0.127400
     13 O10         0.0790    0.1080   -1.6010 os        1 P33     -0.429600
     14 C9         -0.8170    0.3510   -2.6840 c3        1 P33      0.127400
     15 C8         -0.0070    1.0590   -3.7650 c3        1 P33      0.127400
     16 O7          0.2140    0.1020   -4.7990 os        1 P33     -0.428600
     17 C6          1.1050    0.5850   -5.8010 c3        1 P33      0.127400
     18 C5          1.1120   -0.4580   -6.9130 c3        1 P33      0.128400
     19 O4          0.3760    0.1010   -8.0000 os        1 P33     -0.438600
     20 C3          0.1560   -0.8400   -9.0480 c3        1 P33      0.087400
     21 C2         -0.5820   -0.0840  -10.1490 c3        1 P33      0.131400
     22 O1          0.2300    0.9180  -10.7260 oh        1 P33     -0.599800
     23 H22        -0.4400    1.5030   10.0100 ho        1 P33      0.412000
     24 H211        0.7860   -0.8440   10.9890 h1        1 P33      0.053700
     25 H212        1.5360    0.2770    9.7380 h1        1 P33      0.053700
     26 H201       -1.2010   -1.1880    9.4190 h1        1 P33      0.039200
     27 H202        0.3810   -1.7300    8.6660 h1        1 P33      0.039200
     28 H181       -2.1940   -0.5730    7.2490 h1        1 P33      0.045200
     29 H182       -0.7010   -1.3920    6.5650 h1        1 P33      0.045200
     30 H171       -0.6780    1.6010    6.1910 h1        1 P33      0.043200
     31 H172       -2.0980    0.7860    5.3620 h1        1 P33      0.043200
     32 H151        0.6750    1.8870    4.1870 h1        1 P33      0.044200
     33 H152       -0.9050    1.4610    3.3580 h1        1 P33      0.044200
     34 H141        1.1990   -0.6820    3.0670 h1        1 P33      0.044200
     35 H142        1.6990    0.9220    2.3320 h1        1 P33      0.044200
     36 H121        0.5910   -1.7630    0.9740 h1        1 P33      0.043700
     37 H122        1.4770   -0.3240    0.2580 h1        1 P33      0.043700
     38 H111       -1.4930   -0.2520   -0.2590 h1        1 P33      0.043700
     39 H112       -0.6780   -1.7300   -0.9770 h1        1 P33      0.043700
     40 H91        -1.6540    1.0080   -2.3300 h1        1 P33      0.044200
     41 H92        -1.2330   -0.6180   -3.0680 h1        1 P33      0.044200
     42 H81         0.9730    1.4220   -3.3550 h1        1 P33      0.044200
     43 H82        -0.5850    1.9250   -4.1830 h1        1 P33      0.044200
     44 H61         2.1310    0.6940   -5.3610 h1        1 P33      0.043200
     45 H62         0.7530    1.5780   -6.1880 h1        1 P33      0.043200
     46 H51         0.6300   -1.4110   -6.5680 h1        1 P33      0.045200
     47 H52         2.1620   -0.6650   -7.2510 h1        1 P33      0.045200
     48 H31        -0.4660   -1.6930   -8.6700 h1        1 P33      0.039200
     49 H32         1.1400   -1.2260   -9.4220 h1        1 P33      0.039200
     50 H21        -1.5220    0.3700   -9.7380 h1        1 P33      0.053700
     51 H22A       -0.8270   -0.7830  -10.9910 h1        1 P33      0.053700
     52 HO1         0.5110    1.5000  -10.0080 ho        1 P33      0.412000
@<TRIPOS>BOND
     1    1    2 1   
     2    1   23 1   
     3    2    3 1   
     4    2   24 1   
     5    2   25 1   
     6    3    4 1   
     7    3   26 1   
     8    3   27 1   
     9    4    5 1   
    10    5    6 1   
    11    5   28 1   
    12    5   29 1   
    13    6    7 1   
    14    6   30 1   
    15    6   31 1   
    16    7    8 1   
    17    8    9 1   
    18    8   32 1   
    19    8   33 1   
    20    9   10 1   
    21    9   34 1   
    22    9   35 1   
    23   10   11 1   
    24   11   12 1   
    25   11   36 1   
    26   11   37 1   
    27   12   13 1   
    28   12   38 1   
    29   12   39 1   
    30   13   14 1   
    31   14   15 1   
    32   14   40 1   
    33   14   41 1   
    34   15   16 1   
    35   15   42 1   
    36   15   43 1   
    37   16   17 1   
    38   17   18 1   
    39   17   44 1   
    40   17   45 1   
    41   18   19 1   
    42   18   46 1   
    43   18   47 1   
    44   19   20 1   
    45   20   21 1   
    46   20   48 1   
    47   20   49 1   
    48   21   22 1   
    49   21   50 1   
    50   21   51 1   
    51   22   52 1   
@<TRIPOS>SUBSTRUCTURE
     1 P33         1 TEMP              0 ****  ****    0 ROOT
