@<TRIPOS>MOLECULE
P34
   39    41     1     0     0
SMALL
bcc


@<TRIPOS>ATOM
      1 CAA         6.6640    0.7600    0.1110 c3        1 P34      0.152100
      2 N           5.3610    0.2110   -0.1950 n3        1 P34     -0.749600
      3 CAB         5.4130   -0.8580   -1.1690 c3        1 P34      0.152100
      4 CA          4.6120   -0.1480    0.9970 c3        1 P34      0.090800
      5 C           3.0970   -0.2830    0.7580 c         1 P34      0.662100
      6 O           2.4940   -1.2540    1.2520 o         1 P34     -0.603100
      7 NAM         2.4800    0.7350    0.0570 n         1 P34     -0.454100
      8 CAP         1.1210    0.8170   -0.3000 ca        1 P34      0.031600
      9 CAK         0.1320   -0.0190    0.2420 ca        1 P34     -0.109000
     10 CAU        -1.2150    0.1080   -0.1230 ca        1 P34     -0.066000
     11 CAT        -2.2450   -0.7610    0.4290 ca        1 P34      0.022000
     12 CAI        -1.9600   -1.7880    1.3470 ca        1 P34     -0.135000
     13 CAF        -2.9760   -2.5920    1.8500 ca        1 P34     -0.099000
     14 CAE        -4.3020   -2.3960    1.4530 ca        1 P34     -0.146000
     15 CAH        -4.6060   -1.3900    0.5450 ca        1 P34     -0.069000
     16 CAS        -3.5860   -0.5760    0.0330 ca        1 P34     -0.145600
     17 CAQ        -3.9500    0.4790   -0.9340 c         1 P34      0.711100
     18 OAD        -5.1140    0.6990   -1.3260 o         1 P34     -0.638500
     19 NAN        -2.9220    1.2740   -1.4360 n         1 P34     -0.450100
     20 CAR        -1.5920    1.1110   -1.0560 ca        1 P34      0.066600
     21 CAJ        -0.5930    1.9530   -1.6010 ca        1 P34     -0.159000
     22 CAG         0.7310    1.8090   -1.2360 ca        1 P34     -0.133000
     23 HAA1        7.1550    1.0710   -0.8480 h1        1 P34      0.038867
     24 HAA2        6.5380    1.6650    0.7610 h1        1 P34      0.038867
     25 HAA3        7.3380    0.0310    0.6380 h1        1 P34      0.038867
     26 HAB1        4.3680   -1.2060   -1.3840 h1        1 P34      0.038867
     27 HAB2        5.8650   -0.4590   -2.1150 h1        1 P34      0.038867
     28 HAB3        6.0190   -1.7400   -0.8250 h1        1 P34      0.038867
     29 HA1         4.9490   -1.1310    1.4390 h1        1 P34      0.068200
     30 HA2         4.7530    0.6520    1.7780 h1        1 P34      0.068200
     31 HAM         3.0690    1.4250   -0.3570 hn        1 P34      0.332500
     32 HAK         0.4200   -0.7960    0.9710 ha        1 P34      0.177000
     33 HAI        -0.9260   -1.9710    1.6770 ha        1 P34      0.148000
     34 HAF        -2.7330   -3.3900    2.5680 ha        1 P34      0.137000
     35 HAE        -5.1000   -3.0360    1.8560 ha        1 P34      0.139000
     36 HAH        -5.6430   -1.2150    0.2140 ha        1 P34      0.160000
     37 HAN        -3.1490    1.9880   -2.0920 hn        1 P34      0.332500
     38 HAJ        -0.8670    2.7350   -2.3270 ha        1 P34      0.139000
     39 HAG         1.4820    2.4810   -1.6820 ha        1 P34      0.135000
@<TRIPOS>BOND
     1    1    2 1   
     2    1   23 1   
     3    1   24 1   
     4    1   25 1   
     5    2    3 1   
     6    2    4 1   
     7    3   26 1   
     8    3   27 1   
     9    3   28 1   
    10    4    5 1   
    11    4   29 1   
    12    4   30 1   
    13    5    6 2   
    14    5    7 1   
    15    7    8 1   
    16    7   31 1   
    17    8    9 ar  
    18    8   22 ar  
    19    9   10 ar  
    20    9   32 1   
    21   10   11 1   
    22   10   20 ar  
    23   11   12 ar  
    24   11   16 ar  
    25   12   13 ar  
    26   12   33 1   
    27   13   14 ar  
    28   13   34 1   
    29   14   15 ar  
    30   14   35 1   
    31   15   16 ar  
    32   15   36 1   
    33   16   17 1   
    34   17   18 2   
    35   17   19 1   
    36   19   20 1   
    37   19   37 1   
    38   20   21 ar  
    39   21   22 ar  
    40   21   38 1   
    41   22   39 1   
@<TRIPOS>SUBSTRUCTURE
     1 P34         1 TEMP              0 ****  ****    0 ROOT
