@<TRIPOS>MOLECULE
P34
   41    43     1     0     0
SMALL
bcc


@<TRIPOS>ATOM
      1 CAA         0.4460   -0.4330    0.5350 c3        1 P34      0.075600
      2 N           1.9330   -0.3330    0.6110 n4        1 P34     -0.673400
      3 CAB         2.4040   -0.5550    2.0110 c3        1 P34      0.075600
      4 CA          2.6000   -1.3010   -0.3130 c3        1 P34      0.027800
      5 C           2.5460   -0.8660   -1.7690 c         1 P34      0.510100
      6 O           1.9680    0.1290   -2.1870 o         1 P34     -0.394100
      7 NAM         3.2890   -1.7130   -2.7550 n4        1 P34     -0.489200
      8 CAP         4.7190   -1.7690   -2.4600 ca        1 P34     -0.208400
      9 CAK         5.5640   -0.7370   -2.9170 ca        1 P34     -0.041000
     10 CAU         6.9370   -0.8000   -2.7180 ca        1 P34     -0.061000
     11 CAT         7.8380    0.2450   -3.1890 ca        1 P34     -0.025000
     12 CAI         7.3870    1.3760   -3.8850 ca        1 P34     -0.129000
     13 CAF         8.2870    2.3480   -4.3250 ca        1 P34     -0.078000
     14 CAE         9.6530    2.2120   -4.0790 ca        1 P34     -0.101000
     15 CAH        10.1230    1.0950   -3.3900 ca        1 P34     -0.047000
     16 CAS         9.2230    0.1180   -2.9480 ca        1 P34     -0.137600
     17 CAQ         9.7670   -1.0500   -2.2340 c         1 P34      0.710100
     18 OAD        10.9540   -1.2460   -1.9620 o         1 P34     -0.522500
     19 NAN         8.8360   -2.0430   -1.8180 n         1 P34     -0.428100
     20 CAR         7.4950   -1.9450   -2.0430 ca        1 P34      0.183600
     21 CAJ         6.6140   -2.9830   -1.6050 ca        1 P34     -0.182000
     22 CAG         5.2580   -2.9040   -1.8120 ca        1 P34     -0.067000
     23 HAA1        0.1140   -1.4540    0.8670 hx        1 P34      0.123700
     24 HAA2       -0.0060    0.3420    1.2170 hx        1 P34      0.123700
     25 HAA3        0.1130   -0.2360   -0.5200 hx        1 P34      0.123700
     26 HAB1        3.5140   -0.3910    2.0690 hx        1 P34      0.123700
     27 HAB2        2.1510   -1.6000    2.3360 hx        1 P34      0.123700
     28 HAB3        1.8820    0.1810    2.6860 hx        1 P34      0.123700
     29 HA1         2.0980   -2.3100   -0.2000 hx        1 P34      0.157700
     30 HA2         3.6910   -1.4090   -0.0120 hx        1 P34      0.157700
     31 HAM         3.1560   -1.3070   -3.7000 hn        1 P34      0.486300
     32 HAK         5.1350    0.1280   -3.4510 ha        1 P34      0.160000
     33 HAI         6.3200    1.5190   -4.1070 ha        1 P34      0.127000
     34 HAF         7.9120    3.2270   -4.8750 ha        1 P34      0.163000
     35 HAE        10.3610    2.9810   -4.4310 ha        1 P34      0.175000
     36 HAH        11.2030    0.9680   -3.1890 ha        1 P34      0.186000
     37 HAN         9.2060   -2.8590   -1.3670 hn        1 P34      0.359500
     38 HAJ         7.0320   -3.8780   -1.1090 ha        1 P34      0.183000
     39 HAG         4.6150   -3.7410   -1.4920 ha        1 P34      0.148000
     40 H           2.1990    0.6260    0.3270 hn        1 P34      0.473800
     41 HAM2        2.9040   -2.6690   -2.7510 hn        1 P34      0.486300
@<TRIPOS>BOND
     1    1    2 1   
     2    1   23 1   
     3    1   24 1   
     4    1   25 1   
     5    2    3 1   
     6    2    4 1   
     7    2   40 1   
     8    3   26 1   
     9    3   27 1   
    10    3   28 1   
    11    4    5 1   
    12    4   29 1   
    13    4   30 1   
    14    5    6 2   
    15    5    7 1   
    16    7    8 1   
    17    7   31 1   
    18    7   41 1   
    19    8    9 ar  
    20    8   22 ar  
    21    9   10 ar  
    22    9   32 1   
    23   10   11 1   
    24   10   20 ar  
    25   11   12 ar  
    26   11   16 ar  
    27   12   13 ar  
    28   12   33 1   
    29   13   14 ar  
    30   13   34 1   
    31   14   15 ar  
    32   14   35 1   
    33   15   16 ar  
    34   15   36 1   
    35   16   17 1   
    36   17   18 2   
    37   17   19 1   
    38   19   20 1   
    39   19   37 1   
    40   20   21 ar  
    41   21   22 ar  
    42   21   38 1   
    43   22   39 1   
@<TRIPOS>SUBSTRUCTURE
     1 P34         1 TEMP              0 ****  ****    0 ROOT
