@<TRIPOS>MOLECULE
P34
   39    36     1     0     0
SMALL
bcc


@<TRIPOS>ATOM
      1 CAA        -4.0560   -0.2490    3.9130 c3        1 P34     -0.124000
      2 N          -3.1800   -1.2490    3.2720 n3        1 P34     -0.275000
      3 CAB        -3.5140   -2.5590    3.7620 c3        1 P34     -0.124000
      4 CA         -3.3610   -1.2060    1.8300 c3        1 P34     -0.096000
      5 C          -2.0760   -0.6800    1.1710 c2        1 P34      0.306000
      6 O          -1.5100    0.2920    1.6360 o         1 P34     -0.364000
      7 NAM        -1.5260   -1.3510    0.0300 n         1 P34     -0.308000
      8 CAP        -0.2940   -0.8690   -0.5700 c2        1 P34      0.039000
      9 CAK         0.2370    0.2960   -1.1120 c2        1 P34     -0.109000
     10 CAU         1.6000    0.3440   -1.4960 c1        1 P34     -0.066000
     11 CAT         2.1350    1.5220   -2.0270 c1        1 P34      0.022000
     12 CAI         1.3180    2.6610   -2.1820 c2        1 P34     -0.135000
     13 CAF         1.8500    3.8270   -2.6930 c1        1 P34     -0.099000
     14 CAE         3.1870    3.8790   -3.0540 c1        1 P34     -0.107500
     15 CAH         3.9940    2.7540   -2.9010 c1        1 P34     -0.107500
     16 CAS         3.4560    1.5740   -2.3840 c1        1 P34     -0.125000
     17 CAQ         4.2700    0.4490   -2.2180 c2        1 P34      0.348000
     18 OAD         5.4710    0.5230   -2.4560 o         1 P34     -0.363000
     19 NAN         3.7450   -0.7070   -1.6960 n2        1 P34     -0.304000
     20 CAR         2.3980   -0.7600   -1.3320 c1        1 P34      0.074000
     21 CAJ         1.8620   -1.9340   -0.7850 c1        1 P34     -0.159000
     22 CAG         0.5050   -1.9780   -0.4040 c1        1 P34     -0.133000
     23 HAA1       -4.0790   -0.4080    4.8850 h1        1 P34      0.078167
     24 HAA2       -3.7060    0.6570    3.7360 h1        1 P34      0.078167
     25 HAA3       -4.9640   -0.3270    3.5470 h1        1 P34      0.078167
     26 HAB1       -4.4870   -2.6970    3.6930 h1        1 P34      0.078167
     27 HAB2       -3.2380   -2.6370    4.6980 h1        1 P34      0.078167
     28 HAB3       -3.0490   -3.2370    3.2280 h1        1 P34      0.078167
     29 HA1        -3.5590   -2.1270    1.4910 h1        1 P34      0.107500
     30 HA2        -4.1010   -0.6150    1.6140 h1        1 P34      0.107500
     31 HAM        -1.9710   -2.0490   -0.3440 hn        1 P34      0.246000
     32 HAK        -0.3450    1.0920   -1.2430 ha        1 P34      0.177000
     33 HAI         0.3510    2.6230   -1.9210 ha        1 P34      0.148000
     34 HAF         1.2880    4.6120   -2.7990 ha        1 P34      0.137000
     35 HAE         3.5620    4.7000   -3.4140 ha        1 P34      0.149500
     36 HAH         4.9570    2.7910   -3.1610 ha        1 P34      0.149500
     37 HAN         4.2530   -1.4550   -1.6580 hn        1 P34      0.246000
     38 HAJ         2.4310   -2.7260   -0.6670 ha        1 P34      0.139000
     39 HAG         0.1450   -2.7730    0.0130 ha        1 P34      0.135000
@<TRIPOS>BOND
     1    1    2 1   
     2    1   23 1   
     3    1   24 1   
     4    1   25 1   
     5    2    3 1   
     6    2    4 1   
     7    3   26 1   
     8    3   27 1   
     9    3   28 1   
    10    4    5 1   
    11    4   29 1   
    12    4   30 1   
    13    5    6 1   
    14    5    7 1   
    15    7    8 1   
    16    7   31 1   
    17    8    9 1   
    18    8   22 1   
    19    9   10 1   
    20    9   32 1   
    21   10   20 1   
    22   11   12 1   
    23   11   16 1   
    24   12   13 1   
    25   12   33 1   
    26   13   34 1   
    27   14   15 1   
    28   14   35 1   
    29   15   36 1   
    30   16   17 1   
    31   17   18 1   
    32   17   19 1   
    33   19   37 1   
    34   20   21 1   
    35   21   38 1   
    36   22   39 1   
@<TRIPOS>SUBSTRUCTURE
     1 P34         1 TEMP              0 ****  ****    0 ROOT
