@<TRIPOS>MOLECULE
P34
   40    42     1     0     0
SMALL
bcc


@<TRIPOS>ATOM
      1 CAA        -0.3100   -0.3050    0.0520 c3        1 P34      0.083100
      2 N           1.1670   -0.1890    0.1460 nx        1 P34     -0.669400
      3 CAB         1.6010    0.0610    1.5470 c3        1 P34      0.083100
      4 CA          1.8380   -1.4030   -0.4150 c3        1 P34      0.007800
      5 C           3.2860   -1.0790   -0.8690 c         1 P34      0.645100
      6 O           3.6410    0.1190   -0.8860 o         1 P34     -0.607100
      7 NAM         4.0380   -2.1500   -1.2450 ns        1 P34     -0.412100
      8 CAP         5.3980   -2.1080   -1.6520 ca        1 P34     -0.035400
      9 CAK         6.0060   -0.9450   -2.1420 ca        1 P34     -0.074000
     10 CAU         7.3450   -0.9440   -2.5530 ca        1 P34     -0.072000
     11 CAT         7.9940    0.2580   -3.0580 ca        1 P34      0.010000
     12 CAI         7.3340    1.4940   -3.1560 ca        1 P34     -0.138000
     13 CAF         7.9940    2.6160   -3.6480 ca        1 P34     -0.094000
     14 CAE         9.3280    2.5340   -4.0540 ca        1 P34     -0.131000
     15 CAH        10.0020    1.3210   -3.9630 ca        1 P34     -0.061000
     16 CAS         9.3420    0.1890   -3.4670 ca        1 P34     -0.140600
     17 CAQ        10.0960   -1.0770   -3.3840 c         1 P34      0.712100
     18 OAD        11.2830   -1.2160   -3.7250 o         1 P34     -0.599500
     19 NAN         9.4190   -2.1970   -2.8820 ns        1 P34     -0.450100
     20 CAR         8.0950   -2.1530   -2.4790 ca        1 P34      0.110600
     21 CAJ         7.4670   -3.3250   -1.9830 ca        1 P34     -0.163000
     22 CAG         6.1490   -3.3060   -1.5750 ca        1 P34     -0.105000
     23 HAA1       -0.7780    0.6160    0.4940 hx        1 P34      0.108533
     24 HAA2       -0.6540   -1.2100    0.6200 hx        1 P34      0.108533
     25 HAA3       -0.6120   -0.3970   -1.0260 hx        1 P34      0.108533
     26 HAB1        1.2880   -0.7940    2.2020 hx        1 P34      0.108533
     27 HAB2        1.1260    1.0100    1.9150 hx        1 P34      0.108533
     28 HAB3        2.7210    0.1710    1.5620 hx        1 P34      0.108533
     29 HA1         1.8360   -2.2100    0.3700 hx        1 P34      0.120200
     30 HA2         1.2530   -1.7560   -1.3130 hx        1 P34      0.120200
     31 HAM         3.6430   -3.0630   -1.1720 hn        1 P34      0.331500
     32 HAK         5.4260   -0.0090   -2.2020 ha        1 P34      0.166000
     33 HAI         6.2850    1.5960   -2.8430 ha        1 P34      0.134000
     34 HAF         7.4590    3.5760   -3.7180 ha        1 P34      0.142000
     35 HAE         9.8440    3.4250   -4.4430 ha        1 P34      0.151000
     36 HAH        11.0570    1.2320   -4.2760 ha        1 P34      0.170000
     37 HAN         9.9160   -3.0590   -2.8190 hn        1 P34      0.341500
     38 HAJ         8.0340   -4.2690   -1.9190 ha        1 P34      0.155000
     39 HAG         5.6950   -4.2350   -1.1950 ha        1 P34      0.139000
     40 H           1.4840    0.6210   -0.4230 hn        1 P34      0.479800
@<TRIPOS>BOND
     1    1    2 1   
     2    1   23 1   
     3    1   24 1   
     4    1   25 1   
     5    2    3 1   
     6    2    4 1   
     7    2   40 1   
     8    3   26 1   
     9    3   27 1   
    10    3   28 1   
    11    4    5 1   
    12    4   29 1   
    13    4   30 1   
    14    5    6 2   
    15    5    7 1   
    16    7    8 1   
    17    7   31 1   
    18    8    9 ar  
    19    8   22 ar  
    20    9   10 ar  
    21    9   32 1   
    22   10   11 1   
    23   10   20 ar  
    24   11   12 ar  
    25   11   16 ar  
    26   12   13 ar  
    27   12   33 1   
    28   13   14 ar  
    29   13   34 1   
    30   14   15 ar  
    31   14   35 1   
    32   15   16 ar  
    33   15   36 1   
    34   16   17 1   
    35   17   18 2   
    36   17   19 1   
    37   19   20 1   
    38   19   37 1   
    39   20   21 ar  
    40   21   22 ar  
    41   21   38 1   
    42   22   39 1   
@<TRIPOS>SUBSTRUCTURE
     1 P34         1 TEMP              0 ****  ****    0 ROOT
