@<TRIPOS>MOLECULE
P36
   39    41     1     0     0
SMALL
bcc


@<TRIPOS>ATOM
      1 C1         -5.4290    0.0790   -1.6980 ca        1 P36     -0.132500
      2 C2         -6.0990   -1.1440   -1.7620 ca        1 P36     -0.119000
      3 C3         -5.9200   -2.0910   -0.7550 ca        1 P36     -0.132500
      4 C4         -5.0680   -1.8210    0.3160 ca        1 P36     -0.111500
      5 C5         -4.3980   -0.5960    0.3830 ca        1 P36     -0.123300
      6 C6         -4.5800    0.3550   -0.6270 ca        1 P36     -0.111500
      7 C7         -3.5110   -0.2770    1.5500 c3        1 P36      0.125300
      8 N8         -2.0920   -0.2390    1.2320 n         1 P36     -0.343000
      9 C9         -1.4700    1.0060    0.9230 c         1 P36      0.714700
     10 C10        -0.0380    0.9820    0.6130 cc        1 P36     -0.234500
     11 C11         0.6400   -0.2230    0.5840 cd        1 P36      0.245100
     12 C12        -0.0450   -1.4480    0.8650 cd        1 P36     -0.316000
     13 C13        -1.3820   -1.4090    1.1690 cc        1 P36      0.060600
     14 O14        -2.1860    2.0250    0.9470 o         1 P36     -0.625500
     15 O15         1.9780   -0.1890    0.2780 os        1 P36     -0.304900
     16 C16         2.6680   -1.4510    0.2660 c3        1 P36      0.177700
     17 C17         4.0980   -1.1780   -0.0660 ca        1 P36     -0.100300
     18 C18         4.6950    0.0520    0.2240 ca        1 P36     -0.110500
     19 C19         6.0430    0.2590   -0.0730 ca        1 P36     -0.130500
     20 C20         6.7970   -0.7600   -0.6520 ca        1 P36     -0.122000
     21 C21         6.2020   -1.9880   -0.9430 ca        1 P36     -0.130500
     22 C22         4.8550   -2.1980   -0.6550 ca        1 P36     -0.110500
     23 BR23        0.7870    2.6190    0.2560 br        1 P36     -0.019700
     24 H1         -5.5700    0.8270   -2.4910 ha        1 P36      0.135000
     25 H2         -6.7700   -1.3590   -2.6070 ha        1 P36      0.133000
     26 H3         -6.4490   -3.0540   -0.8040 ha        1 P36      0.135000
     27 H4         -4.9310   -2.5700    1.1090 ha        1 P36      0.143500
     28 H6         -4.0480    1.3200   -0.5650 ha        1 P36      0.143500
     29 H7         -3.7980    0.7400    1.9550 h1        1 P36      0.079700
     30 H7A        -3.6660   -1.0400    2.3670 h1        1 P36      0.079700
     31 H12         0.4760   -2.4120    0.8400 ha        1 P36      0.157000
     32 H13        -1.9460   -2.3380    1.3840 h4        1 P36      0.158000
     33 H16         2.5910   -1.9220    1.2830 h1        1 P36      0.052700
     34 H16A        2.1990   -2.1200   -0.5050 h1        1 P36      0.052700
     35 H18         4.0940    0.8580    0.6740 ha        1 P36      0.141500
     36 H19         6.5080    1.2300    0.1520 ha        1 P36      0.134500
     37 H20         7.8600   -0.5960   -0.8830 ha        1 P36      0.133000
     38 H21         6.7950   -2.7920   -1.4030 ha        1 P36      0.134500
     39 H22         4.3870   -3.1650   -0.8910 ha        1 P36      0.141500
@<TRIPOS>BOND
     1    1    2 ar  
     2    1    6 ar  
     3    1   24 1   
     4    2    3 ar  
     5    2   25 1   
     6    3    4 ar  
     7    3   26 1   
     8    4    5 ar  
     9    4   27 1   
    10    5    6 ar  
    11    5    7 1   
    12    6   28 1   
    13    7    8 1   
    14    7   29 1   
    15    7   30 1   
    16    8    9 1   
    17    8   13 1   
    18    9   10 1   
    19    9   14 2   
    20   10   11 2   
    21   10   23 1   
    22   11   12 1   
    23   11   15 1   
    24   12   13 2   
    25   12   31 1   
    26   13   32 1   
    27   15   16 1   
    28   16   17 1   
    29   16   33 1   
    30   16   34 1   
    31   17   18 ar  
    32   17   22 ar  
    33   18   19 ar  
    34   18   35 1   
    35   19   20 ar  
    36   19   36 1   
    37   20   21 ar  
    38   20   37 1   
    39   21   22 ar  
    40   21   38 1   
    41   22   39 1   
@<TRIPOS>SUBSTRUCTURE
     1 P36         1 TEMP              0 ****  ****    0 ROOT
