@<TRIPOS>MOLECULE
P36
   39    41     1     0     0
SMALL
bcc


@<TRIPOS>ATOM
      1 C1          0.2430    0.3700    0.0240 ca        1 P36     -0.132500
      2 C2          1.5890    0.0060    0.0840 ca        1 P36     -0.119000
      3 C3          2.1590   -0.3600    1.3030 ca        1 P36     -0.132500
      4 C4          1.3870   -0.3590    2.4640 ca        1 P36     -0.111500
      5 C5          0.0380    0.0030    2.4060 ca        1 P36     -0.123300
      6 C6         -0.5330    0.3680    1.1820 ca        1 P36     -0.111500
      7 C7         -0.8130   -0.0310    3.6410 c3        1 P36      0.125300
      8 N8         -1.2060    1.2800    4.1340 n         1 P36     -0.343000
      9 C9         -2.4670    1.8290    3.7570 c         1 P36      0.714700
     10 C10        -2.8080    3.1520    4.2870 cc        1 P36     -0.234500
     11 C11        -1.9010    3.8310    5.0800 cd        1 P36      0.245100
     12 C12        -0.6320    3.2470    5.3960 cd        1 P36     -0.316000
     13 C13        -0.3320    2.0020    4.9040 cc        1 P36      0.060600
     14 O14        -3.1890    1.1420    3.0100 o         1 P36     -0.625500
     15 O15        -2.2680    5.0710    5.5410 os        1 P36     -0.304900
     16 C16        -1.3170    5.7550    6.3760 c3        1 P36      0.177700
     17 C17        -1.9260    7.0580    6.7770 ca        1 P36     -0.100300
     18 C18        -3.3120    7.2290    6.8440 ca        1 P36     -0.110500
     19 C19        -3.8440    8.4510    7.2530 ca        1 P36     -0.130500
     20 C20        -2.9970    9.5030    7.6010 ca        1 P36     -0.122000
     21 C21        -1.6130    9.3340    7.5340 ca        1 P36     -0.130500
     22 C22        -1.0770    8.1170    7.1200 ca        1 P36     -0.110500
     23 Br23       -4.4790    3.8490    3.8310 br        1 P36     -0.019700
     24 H1         -0.2080    0.6580   -0.9370 ha        1 P36      0.135000
     25 H2          2.2000    0.0050   -0.8310 ha        1 P36      0.133000
     26 H3          3.2190   -0.6500    1.3510 ha        1 P36      0.135000
     27 H4          1.8400   -0.6500    3.4230 ha        1 P36      0.143500
     28 H6         -1.5990    0.6510    1.1450 ha        1 P36      0.143500
     29 H7         -1.7590   -0.6080    3.4120 h1        1 P36      0.079700
     30 H7A        -0.2640   -0.5660    4.4680 h1        1 P36      0.079700
     31 H12         0.1000    3.7750    6.0170 ha        1 P36      0.157000
     32 H13         0.6420    1.5220    5.1220 h4        1 P36      0.158000
     33 H16        -0.3690    5.9180    5.7960 h1        1 P36      0.052700
     34 H16A       -1.1100    5.1290    7.2870 h1        1 P36      0.052700
     35 H18        -3.9780    6.3980    6.5610 ha        1 P36      0.141500
     36 H19        -4.9350    8.5840    7.3000 ha        1 P36      0.134500
     37 H20        -3.4180   10.4660    7.9250 ha        1 P36      0.133000
     38 H21        -0.9440   10.1630    7.8050 ha        1 P36      0.134500
     39 H22         0.0140    7.9890    7.0610 ha        1 P36      0.141500
@<TRIPOS>BOND
     1    1    2 ar  
     2    1    6 ar  
     3    1   24 1   
     4    2    3 ar  
     5    2   25 1   
     6    3    4 ar  
     7    3   26 1   
     8    4    5 ar  
     9    4   27 1   
    10    5    6 ar  
    11    5    7 1   
    12    6   28 1   
    13    7    8 1   
    14    7   29 1   
    15    7   30 1   
    16    8    9 1   
    17    8   13 1   
    18    9   10 1   
    19    9   14 2   
    20   10   11 2   
    21   10   23 1   
    22   11   12 1   
    23   11   15 1   
    24   12   13 2   
    25   12   31 1   
    26   13   32 1   
    27   15   16 1   
    28   16   17 1   
    29   16   33 1   
    30   16   34 1   
    31   17   18 ar  
    32   17   22 ar  
    33   18   19 ar  
    34   18   35 1   
    35   19   20 ar  
    36   19   36 1   
    37   20   21 ar  
    38   20   37 1   
    39   21   22 ar  
    40   21   38 1   
    41   22   39 1   
@<TRIPOS>SUBSTRUCTURE
     1 P36         1 TEMP              0 ****  ****    0 ROOT
