@<TRIPOS>MOLECULE
P36
   39    41     1     0     0
SMALL
bcc


@<TRIPOS>ATOM
      1 C1          0.2740    0.3900    0.0210 ca        1 P36     -0.132500
      2 C2          1.6150    0.0110    0.0960 ca        1 P36     -0.119000
      3 C3          2.1640   -0.3700    1.3210 ca        1 P36     -0.132500
      4 C4          1.3750   -0.3700    2.4710 ca        1 P36     -0.111500
      5 C5          0.0310    0.0070    2.3960 ca        1 P36     -0.123300
      6 C6         -0.5190    0.3870    1.1670 ca        1 P36     -0.111500
      7 C7         -0.8380   -0.0280    3.6190 c3        1 P36      0.125300
      8 N8         -1.2250    1.2830    4.1160 n         1 P36     -0.343000
      9 C9         -2.4750    1.8480    3.7250 c         1 P36      0.714700
     10 C10        -2.8100    3.1700    4.2600 cc        1 P36     -0.234500
     11 C11        -1.9080    3.8340    5.0710 cd        1 P36      0.245100
     12 C12        -0.6500    3.2350    5.4000 cd        1 P36     -0.316000
     13 C13        -0.3550    1.9900    4.9040 cc        1 P36      0.060600
     14 O14        -3.1940    1.1730    2.9640 o         1 P36     -0.625500
     15 O15        -2.2690    5.0740    5.5360 os        1 P36     -0.304900
     16 C16        -1.3230    5.7430    6.3880 c3        1 P36      0.177700
     17 C17        -1.9240    7.0490    6.7900 ca        1 P36     -0.100300
     18 C18        -3.3090    7.2330    6.8400 ca        1 P36     -0.110500
     19 C19        -3.8340    8.4590    7.2510 ca        1 P36     -0.130500
     20 C20        -2.9810    9.5000    7.6140 ca        1 P36     -0.122000
     21 C21        -1.5990    9.3180    7.5630 ca        1 P36     -0.130500
     22 C22        -1.0690    8.0980    7.1480 ca        1 P36     -0.110500
     23 BR23       -4.4680    3.8870    3.7870 br        1 P36     -0.019700
     24 H1         -0.1600    0.6890   -0.9450 ha        1 P36      0.135000
     25 H2          2.2390    0.0120   -0.8090 ha        1 P36      0.133000
     26 H3          3.2200   -0.6700    1.3810 ha        1 P36      0.135000
     27 H4          1.8120   -0.6720    3.4340 ha        1 P36      0.143500
     28 H6         -1.5820    0.6810    1.1180 ha        1 P36      0.143500
     29 H7         -1.7860   -0.5940    3.3720 h1        1 P36      0.079700
     30 H7A        -0.3060   -0.5750    4.4500 h1        1 P36      0.079700
     31 H12         0.0790    3.7510    6.0350 ha        1 P36      0.157000
     32 H13         0.6120    1.5000    5.1310 h4        1 P36      0.158000
     33 H16        -0.3660    5.9010    5.8220 h1        1 P36      0.052700
     34 H16A       -1.1340    5.1100    7.2970 h1        1 P36      0.052700
     35 H18        -3.9800    6.4110    6.5450 ha        1 P36      0.141500
     36 H19        -4.9240    8.6010    7.2850 ha        1 P36      0.134500
     37 H20        -3.3970   10.4650    7.9390 ha        1 P36      0.133000
     38 H21        -0.9250   10.1400    7.8460 ha        1 P36      0.134500
     39 H22         0.0210    7.9600    7.1010 ha        1 P36      0.141500
@<TRIPOS>BOND
     1    1    2 ar  
     2    1    6 ar  
     3    1   24 1   
     4    2    3 ar  
     5    2   25 1   
     6    3    4 ar  
     7    3   26 1   
     8    4    5 ar  
     9    4   27 1   
    10    5    6 ar  
    11    5    7 1   
    12    6   28 1   
    13    7    8 1   
    14    7   29 1   
    15    7   30 1   
    16    8    9 1   
    17    8   13 1   
    18    9   10 1   
    19    9   14 2   
    20   10   11 2   
    21   10   23 1   
    22   11   12 1   
    23   11   15 1   
    24   12   13 2   
    25   12   31 1   
    26   13   32 1   
    27   15   16 1   
    28   16   17 1   
    29   16   33 1   
    30   16   34 1   
    31   17   18 ar  
    32   17   22 ar  
    33   18   19 ar  
    34   18   35 1   
    35   19   20 ar  
    36   19   36 1   
    37   20   21 ar  
    38   20   37 1   
    39   21   22 ar  
    40   21   38 1   
    41   22   39 1   
@<TRIPOS>SUBSTRUCTURE
     1 P36         1 TEMP              0 ****  ****    0 ROOT
