@<TRIPOS>MOLECULE
P36
   39    35     1     0     0
SMALL
bcc


@<TRIPOS>ATOM
      1 C1          4.5390    0.2220    3.6180 c1        1 P36     -0.130000
      2 C2          4.7860    1.5840    3.5410 c1        1 P36     -0.126500
      3 C3          4.6880    2.2390    2.3240 c1        1 P36     -0.126500
      4 C4          4.3430    1.5320    1.1820 c1        1 P36     -0.121000
      5 C5          4.0960    0.1700    1.2580 c1        1 P36     -0.116000
      6 C6          4.1940   -0.4850    2.4770 c2        1 P36     -0.102000
      7 C7          3.8150   -0.6190   -0.0030 c2        1 P36      0.002000
      8 N8          2.4170   -0.6130   -0.2650 n         1 P36     -0.236000
      9 C9          1.5670   -1.6700    0.2810 c2        1 P36      0.353000
     10 C10         0.1040   -1.7380   -0.0980 c2        1 P36     -0.341000
     11 C11        -0.4830   -0.6890   -0.9430 c1        1 P36      0.201000
     12 C12         0.3640    0.3940   -1.4570 c2        1 P36     -0.316000
     13 C13         1.8360    0.4330   -1.1060 c2        1 P36      0.058000
     14 O14         2.0530   -2.5370    0.9790 o         1 P36     -0.350000
     15 O15        -1.8280   -0.7780   -1.3400 o         1 P36     -0.189000
     16 C16        -2.6420    0.2540   -0.8320 c3        1 P36      0.020000
     17 C17        -4.0740    0.0230   -1.2600 c2        1 P36     -0.093000
     18 C18        -5.0960    0.0890   -0.3260 c2        1 P36     -0.124000
     19 C19        -6.4120   -0.0850   -0.7240 c1        1 P36     -0.131000
     20 C20        -6.7060   -0.3260   -2.0570 c1        1 P36     -0.126500
     21 C21        -5.6840   -0.3910   -2.9920 c1        1 P36     -0.126500
     22 C22        -4.3680   -0.2170   -2.5930 c1        1 P36     -0.097000
     23 BR23       -0.9740   -3.1970    0.5030 br        1 P36      0.106000
     24 H1          4.6080   -0.2390    4.4750 ha        1 P36      0.138000
     25 H2          5.0290    2.0820    4.3450 ha        1 P36      0.133500
     26 H3          4.8610    3.1980    2.2700 ha        1 P36      0.133500
     27 H4          4.2740    1.9930    0.3250 ha        1 P36      0.126000
     28 H6          4.0200   -1.4440    2.5300 ha        1 P36      0.161000
     29 H7          4.1210   -1.5420    0.1140 h4        1 P36      0.119000
     30 H7A         4.2900   -0.2100   -0.7560 h4        1 P36      0.119000
     31 H12        -0.0220    1.0930   -2.0180 ha        1 P36      0.157000
     32 H13         2.4000    1.1530   -1.4470 h4        1 P36      0.158000
     33 H16        -2.5900    0.2580    0.1470 h1        1 P36      0.092000
     34 H16A       -2.3320    1.1150   -1.1790 h1        1 P36      0.092000
     35 H18        -4.8890    0.2580    0.6130 ha        1 P36      0.129000
     36 H19        -7.1320   -0.0390   -0.0660 ha        1 P36      0.133000
     37 H20        -7.6330   -0.4480   -2.3380 ha        1 P36      0.133500
     38 H21        -5.8910   -0.5610   -3.9310 ha        1 P36      0.133500
     39 H22        -3.6480   -0.2630   -3.2510 ha        1 P36      0.154000
@<TRIPOS>BOND
     1    1    6 1   
     2    1   24 1   
     3    2    3 1   
     4    2   25 1   
     5    3   26 1   
     6    4    5 1   
     7    4   27 1   
     8    5    6 1   
     9    6   28 1   
    10    7    8 1   
    11    7   29 1   
    12    7   30 1   
    13    8    9 1   
    14    8   13 1   
    15    9   10 1   
    16    9   14 1   
    17   10   11 1   
    18   10   23 1   
    19   11   12 1   
    20   12   13 1   
    21   12   31 1   
    22   13   32 1   
    23   15   16 1   
    24   16   17 1   
    25   16   33 1   
    26   16   34 1   
    27   17   18 1   
    28   17   22 1   
    29   18   19 1   
    30   18   35 1   
    31   19   36 1   
    32   20   21 1   
    33   20   37 1   
    34   21   38 1   
    35   22   39 1   
@<TRIPOS>SUBSTRUCTURE
     1 P36         1 TEMP              0 ****  ****    0 ROOT
