@<TRIPOS>MOLECULE
P37
   55    54     1     0     0
SMALL
bcc


@<TRIPOS>ATOM
      1 N1         -0.3010   -0.8160   -1.3850 nt        1 P37     -0.405000
      2 N3         -2.8410    4.5720    0.3910 n2        1 P37     -0.201000
      3 C4          1.9370    0.8330    2.8310 c2        1 P37      0.271000
      4 C5         -2.6890   -0.5650   -0.9200 c2        1 P37      0.032000
      5 C6         -3.6960    7.3910    0.4540 c2        1 P37      0.078000
      6 C7         -4.1960    8.6890    0.8620 c2        1 P37     -0.126000
      7 C8         -5.5070    8.8400    1.2420 c2        1 P37      0.051000
      8 C10        -5.9630    6.4400    0.7890 c3        1 P37     -0.179000
      9 C13        -5.0150    3.0000   -0.9850 c2        1 P37     -0.138000
     10 C15        -5.9160    4.6150   -3.1250 c2        1 P37      0.360000
     11 C17        -5.6620    2.3660   -2.1320 c2        1 P37      0.116000
     12 C20        -3.5970    0.4030   -1.4280 c2        1 P37     -0.283000
     13 C21        -3.0780   -1.8550   -0.6510 c2        1 P37     -0.237000
     14 C22        -4.3560   -2.3090   -1.0270 c1        1 P37     -0.063000
     15 C3          1.0620    1.5960    2.1770 c1        1 P37     -0.349000
     16 C2          0.2400    2.2880    1.5650 c1        1 P37      0.308000
     17 C1         -1.2700   -0.1300   -0.7160 c2        1 P37      0.363000
     18 O1         -0.9670    0.8230    0.0470 o         1 P37     -0.471000
     19 C23        -5.3650   -1.3710   -1.5150 c3        1 P37     -0.142000
     20 C19        -4.9110    0.0650   -1.7030 c2        1 P37      0.121000
     21 N5         -5.8610    0.9790   -2.1150 nu        1 P37     -0.262000
     22 C16        -6.1190    3.1590   -3.1440 c2        1 P37     -0.251000
     23 N4         -4.8730    5.1110   -2.2260 n         1 P37     -0.185000
     24 C18        -4.1290    6.1230   -2.6350 c1        1 P37     -0.039000
     25 C12        -4.6810    4.3250   -1.0370 c2        1 P37      0.011000
     26 C14        -1.7920    4.1220    0.6880 c1        1 P37      0.063000
     27 N2         -4.1200    4.9120    0.1900 nh        1 P37      0.002000
     28 C11        -4.5140    6.2830    0.4300 c2        1 P37     -0.102000
     29 C9         -6.4410    7.7430    1.1850 c1        1 P37     -0.029000
     30 HN1        -0.5380   -1.5600   -1.9960 hn        1 P37      0.241500
     31 H4          1.6610    0.3160    3.7730 ha        1 P37      0.182500
     32 H4A         2.9730    0.6920    2.4620 ha        1 P37      0.182500
     33 H7         -3.4840    9.5320    0.8520 ha        1 P37      0.182000
     34 H10        -6.2320    5.7370    1.6410 hc        1 P37      0.192500
     35 H20        -3.2150    1.4220   -1.5970 ha        1 P37      0.150000
     36 H21        -2.3870   -2.5810   -0.1960 ha        1 P37      0.157000
     37 H22        -6.1500   -1.3740   -0.6850 hc        1 P37      0.181000
     38 H24        -7.0210   -1.4800   -2.9360 hc        1 P37      0.096333
     39 H24A       -5.3740   -1.7210   -3.6690 hc        1 P37      0.096333
     40 H24B       -6.1300   -3.0360   -2.6720 hc        1 P37      0.096333
     41 H3          2.7860   -0.1940   -1.2130 ha        1 P37      0.003000
     42 H3A         2.8680   -0.3620   -1.8640 ha        1 P37      0.003000
     43 H2         -0.5040    2.9410    1.0590 ha        1 P37      0.345000
     44 H16        -6.6700    2.7850   -4.0210 ha        1 P37      0.186000
     45 H18        -2.1820    5.1860   -3.8190 ha        1 P37      0.003000
     46 H18A       -2.4760    5.5620   -4.3010 ha        1 P37      0.003000
     47 H18B       -3.3100    6.4650   -1.9670 ha        1 P37      0.053000
     48 H14        -4.8490    2.3960   -0.0770 ha        1 P37      0.179000
     49 H9         -6.6180    6.1200   -0.0820 hc        1 P37      0.192500
     50 H211       -6.6460    0.6300   -2.6250 hn        1 P37      0.261000
     51 C24        -6.0110   -1.9290   -2.7770 c3        1 P37     -0.185000
     52 O2         -6.5460    5.4040   -3.8250 o         1 P37     -0.204000
     53 F2         -5.9600   10.0430    1.6560 f         1 P37     -0.061000
     54 H12         0.6480   -0.5350   -1.3270 hn        1 P37      0.241500
     55 F1         -2.3850    7.3430    0.1130 f         1 P37     -0.092000
@<TRIPOS>BOND
     1    1   17 1   
     2    1   30 1   
     3    1   54 1   
     4    2   26 1   
     5    2   27 1   
     6    3   15 1   
     7    3   31 1   
     8    3   32 1   
     9    4   12 1   
    10    4   13 1   
    11    4   17 1   
    12    5    6 1   
    13    5   28 1   
    14    5   55 1   
    15    6    7 1   
    16    6   33 1   
    17    7   29 1   
    18    7   53 1   
    19    8   28 1   
    20    8   29 1   
    21    8   34 1   
    22    8   49 1   
    23    9   11 1   
    24    9   25 1   
    25    9   48 1   
    26   10   22 1   
    27   10   23 1   
    28   10   52 1   
    29   11   21 1   
    30   11   22 1   
    31   12   20 1   
    32   12   35 1   
    33   13   14 1   
    34   13   36 1   
    35   14   19 1   
    36   15   16 1   
    37   16   43 1   
    38   17   18 1   
    39   19   20 1   
    40   19   37 1   
    41   19   51 1   
    42   20   21 1   
    43   21   50 1   
    44   22   44 1   
    45   23   24 1   
    46   23   25 1   
    47   24   47 1   
    48   25   27 1   
    49   27   28 1   
    50   38   51 1   
    51   39   51 1   
    52   40   51 1   
    53   41   42 1   
    54   45   46 1   
@<TRIPOS>SUBSTRUCTURE
     1 P37         1 TEMP              0 ****  ****    0 ROOT
