@<TRIPOS>MOLECULE
P37
   55    54     1     0     0
SMALL
bcc


@<TRIPOS>ATOM
      1 N1         -0.9830   -0.5040   -1.5590 n         1 P37     -0.392000
      2 N3         -2.7020    4.6920    0.5370 n2        1 P37     -0.208000
      3 C4          1.2780    1.6510    2.2140 cu        1 P37      0.047667
      4 C5         -2.6870    0.4040   -0.0290 c2        1 P37     -0.109000
      5 C6         -3.9010    7.3820    0.5740 c2        1 P37      0.077000
      6 C7         -4.6070    8.6010    0.9140 c2        1 P37     -0.123000
      7 C8         -5.9700    8.5920    1.0850 c2        1 P37      0.049000
      8 C10        -6.0640    6.1680    0.5530 c3        1 P37     -0.178000
      9 C13        -4.7260    2.9620   -1.0570 c2        1 P37     -0.130000
     10 C15        -5.1200    4.5300   -3.3890 c2        1 P37      0.362000
     11 C17        -5.1810    2.3130   -2.2850 c2        1 P37      0.134000
     12 C20        -3.7130    0.2180   -0.8050 c1        1 P37     -0.236000
     13 C21        -3.9510   -3.4640   -2.1700 c2        1 P37     -0.148000
     14 C22        -4.6470   -2.4160   -1.8610 c1        1 P37     -0.133000
     15 C3          1.8380    2.0190    1.0000 cu        1 P37      0.047667
     16 C2          0.7100    2.6920    1.4780 cu        1 P37      0.047667
     17 C1         -1.2720    0.2460   -0.4610 c2        1 P37      0.372000
     18 O1         -0.3370    0.7950    0.1890 o         1 P37     -0.520000
     19 C23        -5.3850   -1.3790   -1.5480 c2        1 P37     -0.061000
     20 C19        -4.8040   -0.0080   -1.5220 c2        1 P37      0.178000
     21 N5         -5.4820    0.9520   -2.2770 nh        1 P37     -0.265000
     22 C16        -5.3870    3.0880   -3.3930 c2        1 P37     -0.283000
     23 N4         -4.2900    5.0400   -2.2960 n         1 P37     -0.184000
     24 C18        -3.4970    6.0660   -2.5470 c1        1 P37     -0.043000
     25 C12        -4.3470    4.2740   -1.0810 c2        1 P37      0.006000
     26 C14        -1.6310    4.3870    0.9300 c1        1 P37      0.062000
     27 N2         -3.9890    4.8760    0.2180 nh        1 P37      0.004000
     28 C11        -4.5690    6.1880    0.4160 c2        1 P37     -0.101000
     29 C9         -6.7470    7.3970    0.8800 c1        1 P37     -0.032000
     30 HN1        -1.7040   -0.9390   -2.0790 hn        1 P37      0.241500
     31 H4          1.2700    1.0060    3.0820 ha        1 P37      0.271333
     32 H4A        -0.0830    3.4550    1.3410 ha        1 P37      0.271333
     33 H7         -4.0050    9.5200    1.0230 ha        1 P37      0.182000
     34 H10        -6.3710    5.4200    1.3520 hc        1 P37      0.191000
     35 H20        -2.7930    0.7120    1.0280 ha        1 P37      0.159000
     36 H21        -3.8820   -3.8410   -3.2040 ha        1 P37      0.151500
     37 H22        -3.4020   -4.0500   -1.4160 ha        1 P37      0.151500
     38 H24        -7.0410   -0.8990   -0.2690 hc        1 P37      0.098000
     39 H24A       -7.4610   -1.1010   -2.0230 hc        1 P37      0.098000
     40 H24B       -7.1040   -2.5570   -1.0040 hc        1 P37      0.098000
     41 H3          2.2130   -0.0700   -1.5210 ha        1 P37      0.003000
     42 H3A         1.8580    0.2260   -1.0250 ha        1 P37      0.003000
     43 H2          2.5810    1.8700    0.2290 ha        1 P37      0.271333
     44 H16        -5.7820    2.7030   -4.3460 ha        1 P37      0.183000
     45 H18        -1.3090    5.1770   -3.2920 ha        1 P37      0.003000
     46 H18A       -1.5270    5.5350   -3.8260 ha        1 P37      0.003000
     47 H18B       -2.8520    6.4390   -1.7240 ha        1 P37      0.050000
     48 H14        -4.7410    2.3840   -0.1180 ha        1 P37      0.177000
     49 H9         -6.5370    5.7930   -0.4090 hc        1 P37      0.191000
     50 H211       -6.0270    0.6050   -3.0400 hn        1 P37      0.258000
     51 C24        -6.8220   -1.4910   -1.1910 c3        1 P37     -0.172000
     52 O2         -5.5340    5.3030   -4.2510 o         1 P37     -0.212000
     53 F2         -6.6180    9.7260    1.4310 f         1 P37     -0.062000
     54 H12        -0.0420   -0.6200   -1.8510 hn        1 P37      0.241500
     55 F1         -2.5570    7.4980    0.4370 f         1 P37     -0.092000
@<TRIPOS>BOND
     1    1   17 1   
     2    1   30 1   
     3    1   54 1   
     4    2   26 1   
     5    2   27 1   
     6    3   15 1   
     7    3   16 1   
     8    3   31 1   
     9    4   12 1   
    10    4   17 1   
    11    4   35 1   
    12    5    6 1   
    13    5   28 1   
    14    5   55 1   
    15    6    7 1   
    16    6   33 1   
    17    7   29 1   
    18    7   53 1   
    19    8   28 1   
    20    8   29 1   
    21    8   34 1   
    22    8   49 1   
    23    9   11 1   
    24    9   25 1   
    25    9   48 1   
    26   10   22 1   
    27   10   23 1   
    28   10   52 1   
    29   11   21 1   
    30   11   22 1   
    31   12   20 1   
    32   13   14 1   
    33   13   36 1   
    34   13   37 1   
    35   14   19 1   
    36   15   16 1   
    37   15   43 1   
    38   16   32 1   
    39   17   18 1   
    40   19   20 1   
    41   19   51 1   
    42   20   21 1   
    43   21   50 1   
    44   22   44 1   
    45   23   24 1   
    46   23   25 1   
    47   24   47 1   
    48   25   27 1   
    49   27   28 1   
    50   38   51 1   
    51   39   51 1   
    52   40   51 1   
    53   41   42 1   
    54   45   46 1   
@<TRIPOS>SUBSTRUCTURE
     1 P37         1 TEMP              0 ****  ****    0 ROOT
