@<TRIPOS>MOLECULE
P37
   56    56     1     0     0
SMALL
bcc


@<TRIPOS>ATOM
      1 N1         -0.5960    0.9450    0.6790 n4        1 P37     -0.152000
      2 N3         -1.3520   -1.5500   -5.8620 n2        1 P37     -0.294000
      3 C4          3.8990    0.7580    1.1790 c1        1 P37      0.306000
      4 C5         -2.3980   -0.3420   -0.5750 ca        1 P37     -0.177000
      5 C6         -0.0970   -3.3500   -7.9270 c2        1 P37      0.250000
      6 C7          0.1870   -3.7700   -9.2820 c2        1 P37     -0.318000
      7 C8         -0.5340   -3.3720  -10.3740 c2        1 P37      0.285000
      8 C10        -2.3840   -2.0770   -9.2930 c1        1 P37      0.234000
      9 C13        -3.0460   -2.9200   -4.0710 c2        1 P37     -0.369000
     10 C15        -4.1630   -5.2890   -5.0980 c2        1 P37      0.339000
     11 C17        -3.9610   -3.5850   -3.2610 c2        1 P37      0.225000
     12 C20        -2.7330   -1.5380   -1.2320 ca        1 P37     -0.046000
     13 C21        -3.4070    0.5540   -0.1920 ca        1 P37     -0.068000
     14 C22        -4.7360    0.2480   -0.4560 ca        1 P37     -0.108000
     15 C3          2.5570    0.8470    1.8360 c3        1 P37     -0.446000
     16 C2          2.6780    1.0020    0.3470 c3        1 P37     -0.446000
     17 C1         -0.9740   -0.1030   -0.3430 c2        1 P37      0.313000
     18 O1         -0.0200   -0.6660   -0.8640 o         1 P37     -0.177000
     19 C23        -5.1000   -0.9430   -1.1000 ca        1 P37      0.026000
     20 C19        -4.0790   -1.8480   -1.4970 ca        1 P37      0.004000
     21 N5         -4.4360   -3.0870   -2.0860 nh        1 P37     -0.231000
     22 C16        -4.4910   -4.9350   -3.6690 c3        1 P37     -0.209000
     23 N4         -2.8300   -4.8870   -5.5530 n         1 P37     -0.203000
     24 C18        -2.0590   -5.8170   -6.0790 c1        1 P37      0.003000
     25 C12        -2.5270   -3.5030   -5.2740 c2        1 P37      0.249000
     26 C14        -0.9930   -0.4320   -5.6580 c1        1 P37      0.289000
     27 N2         -1.7570   -2.7820   -6.1580 n3        1 P37      0.053000
     28 C11        -1.3820   -3.3230   -7.4340 c2        1 P37     -0.264000
     29 C9         -1.6480   -2.4400  -10.3280 c2        1 P37     -0.491000
     30 HN1        -1.0760    0.7610    1.5650 hn        1 P37      0.275000
     31 H4          2.5590    2.0010   -0.1160 hc        1 P37      0.151500
     32 H4A         2.3360    0.1950   -0.3300 hc        1 P37      0.151500
     33 H7          1.0910   -4.3920   -9.4180 ha        1 P37      0.207000
     34 H10        -2.2310   -3.7840   -7.9800 h4        1 P37      0.218000
     35 H20        -1.9260   -2.2340   -1.5270 ha        1 P37      0.177000
     36 H21        -3.1810    1.5110    0.3040 ha        1 P37      0.146000
     37 H22        -5.5270    0.9580   -0.1540 ha        1 P37      0.188000
     38 H24        -6.7190   -1.4460   -2.4240 hc        1 P37      0.122667
     39 H24A       -6.8530   -2.1290   -0.7420 hc        1 P37      0.122667
     40 H24B       -7.1800   -0.3740   -1.0400 hc        1 P37      0.122667
     41 H3          2.3460    1.7290    2.4710 hc        1 P37      0.151500
     42 H3A         2.1320   -0.0780    2.2710 hc        1 P37      0.151500
     43 H2          0.4330    0.9290    0.8360 hn        1 P37      0.275000
     44 H16        -5.6140   -4.9890   -3.5580 hc        1 P37      0.181000
     45 H18        -0.8300   -6.7320   -4.2320 ha        1 P37      0.005500
     46 H18A       -0.9350   -7.3350   -4.5250 ha        1 P37      0.005500
     47 H18B       -1.0400   -5.5720   -6.4350 ha        1 P37      0.099000
     48 H14        -2.7330   -1.9000   -3.7910 ha        1 P37      0.175000
     49 H9         -1.9110   -1.9680  -11.3090 ha        1 P37      0.244000
     50 H211       -4.0500   -5.7370   -3.0050 hc        1 P37      0.181000
     51 C24        -6.5310   -1.2360   -1.3400 c3        1 P37     -0.221000
     52 O2         -4.9170   -5.8920   -5.8450 o         1 P37     -0.140000
     53 F2         -0.1880   -3.8190  -11.5950 f         1 P37     -0.048000
     54 H12        -0.8630    1.8750    0.3430 hn        1 P37      0.275000
     55 H52        -5.1880   -3.5720   -1.6340 hn        1 P37      0.275000
     56 F1          0.9600   -2.9990   -7.1680 f         1 P37     -0.064000
@<TRIPOS>BOND
     1    1   17 1   
     2    1   30 1   
     3    1   43 1   
     4    1   54 1   
     5    2   26 1   
     6    2   27 1   
     7    3   15 1   
     8    3   16 1   
     9    4   12 1   
    10    4   13 1   
    11    4   17 1   
    12    5    6 1   
    13    5   28 1   
    14    5   56 1   
    15    6    7 1   
    16    6   33 1   
    17    7   29 1   
    18    7   53 1   
    19    8   29 1   
    20    9   11 1   
    21    9   25 1   
    22    9   48 1   
    23   10   22 1   
    24   10   23 1   
    25   10   52 1   
    26   11   21 1   
    27   11   22 1   
    28   12   20 1   
    29   12   35 1   
    30   13   14 1   
    31   13   36 1   
    32   14   19 1   
    33   14   37 1   
    34   15   16 1   
    35   15   41 1   
    36   15   42 1   
    37   16   31 1   
    38   16   32 1   
    39   17   18 1   
    40   19   20 1   
    41   19   51 1   
    42   20   21 1   
    43   21   55 1   
    44   22   44 1   
    45   22   50 1   
    46   23   24 1   
    47   23   25 1   
    48   24   47 1   
    49   25   27 1   
    50   27   28 1   
    51   28   34 1   
    52   29   49 1   
    53   38   51 1   
    54   39   51 1   
    55   40   51 1   
    56   45   46 1   
@<TRIPOS>SUBSTRUCTURE
     1 P37         1 TEMP              0 ****  ****    0 ROOT
