@<TRIPOS>MOLECULE
P37
   54    58     1     0     0
SMALL
bcc


@<TRIPOS>ATOM
      1 N1         -4.2870   -2.3260   -0.1900 n         1 P37     -0.540900
      2 N3          0.8190   -0.3480    1.4270 nc        1 P37     -0.489800
      3 C4         -3.8780   -4.8090    0.3080 cx        1 P37     -0.153900
      4 C5         -3.8560    0.0800   -0.3200 ca        1 P37     -0.121600
      5 C6          3.0680   -1.9400   -0.1040 ca        1 P37      0.176900
      6 C7          4.2210   -2.7410   -0.1680 ca        1 P37     -0.212000
      7 C8          5.3820   -2.3370    0.5060 ca        1 P37      0.169900
      8 C10         4.2580   -0.3510    1.3120 ca        1 P37     -0.064000
      9 C13         0.2210    1.5260    0.2430 cd        1 P37     -0.330100
     10 C15         1.8060    3.1550   -1.4490 c         1 P37      0.726700
     11 C17        -0.3790    2.6900   -0.3310 cd        1 P37      0.313800
     12 C20        -2.7490    0.9190   -0.4460 ca        1 P37     -0.120000
     13 C21        -5.0100    0.5240    0.3290 ca        1 P37     -0.124000
     14 C22        -5.0460    1.8120    0.8550 ca        1 P37     -0.117000
     15 C3         -5.2800   -4.6840   -0.2150 cx        1 P37     -0.153900
     16 C2         -4.2310   -3.6720   -0.6330 cx        1 P37      0.053700
     17 C1         -3.7800   -1.2780   -0.9370 c         1 P37      0.676700
     18 O1         -3.2890   -1.4570   -2.0690 o         1 P37     -0.591100
     19 C23        -3.9490    2.6700    0.7570 ca        1 P37     -0.085300
     20 C19        -2.7720    2.2190    0.1000 ca        1 P37      0.129600
     21 N5         -1.6710    3.0940    0.0080 nh        1 P37     -0.627400
     22 C16         0.4180    3.4680   -1.1500 cc        1 P37     -0.366200
     23 N4          2.3830    1.9730   -0.8840 n         1 P37     -0.334000
     24 C18         3.7290    1.5910   -1.2080 c3        1 P37      0.062300
     25 C12         1.5950    1.2190   -0.0480 cc        1 P37      0.119300
     26 C14        -0.1920    0.5010    1.1760 cd        1 P37      0.375200
     27 N2          1.9150    0.0860    0.7440 na        1 P37      0.119300
     28 C11         3.0820   -0.7210    0.6300 ca        1 P37     -0.049200
     29 C9          5.3980   -1.1390    1.2470 ca        1 P37     -0.184000
     30 F1          1.9560   -2.3460   -0.7520 f         1 P37     -0.110900
     31 HN1        -4.6050   -2.1550    0.7340 hn        1 P37      0.311500
     32 H4         -3.6900   -4.6010    1.3760 hc        1 P37      0.074200
     33 H4A        -3.2260   -5.6130   -0.0740 hc        1 P37      0.074200
     34 H7          4.2040   -3.6810   -0.7400 ha        1 P37      0.174000
     35 H10         4.2770    0.5750    1.9110 ha        1 P37      0.162000
     36 H20        -1.8590    0.5540   -0.9900 ha        1 P37      0.171000
     37 H21        -5.8950   -0.1240    0.4100 ha        1 P37      0.141000
     38 H22        -5.9600    2.1650    1.3580 ha        1 P37      0.139000
     39 H24        -3.1990    4.2090    2.0560 hc        1 P37      0.049700
     40 H24A       -3.9550    4.8040    0.5170 hc        1 P37      0.049700
     41 H24B       -5.0000    4.1910    1.8620 hc        1 P37      0.049700
     42 H3         -5.6420   -5.3980   -0.9750 hc        1 P37      0.074200
     43 H3A        -6.0820   -4.3890    0.4840 hc        1 P37      0.074200
     44 H2         -3.8440   -3.7300   -1.6790 h1        1 P37      0.122700
     45 H16         0.0530    4.3840   -1.6350 ha        1 P37      0.165000
     46 H18         4.1350    2.2860   -1.9940 h1        1 P37      0.060700
     47 H18A        4.3800    1.6520   -0.2940 h1        1 P37      0.060700
     48 H18B        3.7480    0.5390   -1.6000 h1        1 P37      0.060700
     49 H14        -1.1770    0.3950    1.6380 h4        1 P37      0.057100
     50 H9          6.3140   -0.8410    1.7790 ha        1 P37      0.162000
     51 H211       -1.9140    4.0180   -0.2890 hn        1 P37      0.431800
     52 C24        -4.0310    4.0350    1.3280 c3        1 P37     -0.056800
     53 O2          2.5270    3.8550   -2.1840 o         1 P37     -0.635500
     54 F2          6.4920   -3.1060    0.4460 f         1 P37     -0.125900
@<TRIPOS>BOND
     1    1   16 1   
     2    1   17 1   
     3    1   31 1   
     4    2   26 2   
     5    2   27 1   
     6    3   15 1   
     7    3   16 1   
     8    3   32 1   
     9    3   33 1   
    10    4   12 ar  
    11    4   13 ar  
    12    4   17 1   
    13    5    6 ar  
    14    5   28 ar  
    15    5   30 1   
    16    6    7 ar  
    17    6   34 1   
    18    7   29 ar  
    19    7   54 1   
    20    8   28 ar  
    21    8   29 ar  
    22    8   35 1   
    23    9   11 1   
    24    9   25 2   
    25    9   26 1   
    26   10   22 1   
    27   10   23 1   
    28   10   53 2   
    29   11   21 1   
    30   11   22 2   
    31   12   20 ar  
    32   12   36 1   
    33   13   14 ar  
    34   13   37 1   
    35   14   19 ar  
    36   14   38 1   
    37   15   16 1   
    38   15   42 1   
    39   15   43 1   
    40   16   44 1   
    41   17   18 2   
    42   19   20 ar  
    43   19   52 1   
    44   20   21 1   
    45   21   51 1   
    46   22   45 1   
    47   23   24 1   
    48   23   25 1   
    49   24   46 1   
    50   24   47 1   
    51   24   48 1   
    52   25   27 1   
    53   26   49 1   
    54   27   28 1   
    55   29   50 1   
    56   39   52 1   
    57   40   52 1   
    58   41   52 1   
@<TRIPOS>SUBSTRUCTURE
     1 P37         1 TEMP              0 ****  ****    0 ROOT
