@<TRIPOS>MOLECULE
P37
   54    49     1     0     0
SMALL
bcc


@<TRIPOS>ATOM
      1 N1         -0.6170   -2.3590    5.1360 n         1 P37     -0.542900
      2 N3          0.7290    2.7040   -3.2840 n2        1 P37     -0.454800
      3 C4          0.8590   -4.6220    6.7260 cx        1 P37     -0.154400
      4 C5         -1.2460   -0.5650    3.4080 cg        1 P37     -0.074200
      5 C6          1.0840    2.1010   -6.0680 c1        1 P37      0.139100
      6 C7          1.9390    2.2940   -7.1490 c1        1 P37     -0.139500
      7 C8          3.2990    2.0390   -7.0130 c1        1 P37      0.139100
      8 C10         2.9510    1.3980   -4.7170 c1        1 P37     -0.003500
      9 C13        -0.3500    1.3670   -1.8670 c1        1 P37     -0.204900
     10 C15        -1.0910   -1.4710   -1.9930 c1        1 P37      0.599500
     11 C17        -1.1230    0.7210   -0.7310 c1        1 P37      0.272800
     12 C20        -1.3500   -0.1930    2.0690 c1        1 P37     -0.032500
     13 C21        -1.1950    0.4120    4.4000 c1        1 P37     -0.060500
     14 C22        -1.2470    1.7590    4.0530 c1        1 P37     -0.060500
     15 C24        -1.3710    3.6130    2.3330 c3        1 P37     -0.097000
     16 C3         -0.3890   -4.4270    6.8200 cx        1 P37     -0.154400
     17 C2          0.1170   -4.3180    5.6280 cx        1 P37      0.054700
     18 C1         -0.8040   -1.9870    3.7630 c         1 P37      0.625300
     19 O1         -0.5460   -2.7830    2.8770 o         1 P37     -0.589100
     20 C23        -1.3500    2.1310    2.7160 c1        1 P37     -0.059100
     21 C19        -1.4020    1.1540    1.7220 c1        1 P37      0.100800
     22 N5         -1.6390    1.5360    0.3440 n3        1 P37     -0.575400
     23 C16        -1.4810   -0.6840   -0.8110 c1        1 P37     -0.283500
     24 O2         -1.3890   -2.6500   -2.0660 o         1 P37     -0.585500
     25 N4         -0.3560   -0.8430   -3.0670 nh        1 P37     -0.196600
     26 C18         0.0280   -1.6120   -4.2170 c3        1 P37      0.004600
     27 C12         0.0850    0.5940   -2.9410 c2        1 P37      0.042700
     28 C14         0.0530    2.6680   -2.0900 c1        1 P37      0.114400
     29 N2          0.7470    1.4150   -3.8100 nh        1 P37      0.134800
     30 C11         1.5900    1.6530   -4.8520 c1        1 P37     -0.051300
     31 C9          3.8050    1.5910   -5.7980 c1        1 P37     -0.139500
     32 F2          4.1250    2.2280   -8.0560 f         1 P37     -0.087600
     33 F1         -0.2230    2.3830   -6.1880 f         1 P37     -0.087600
     34 HN1        -0.8480   -1.7760    5.8020 hn        1 P37      0.310500
     35 H4          1.1520   -5.5570    6.7980 hc        1 P37      0.073700
     36 H4A         1.4310   -3.9000    7.0680 hc        1 P37      0.073700
     37 H7          1.5820    2.6100   -8.0070 ha        1 P37      0.111000
     38 H10         3.3080    1.0820   -3.8600 ha        1 P37      0.106500
     39 H20        -1.3860   -0.8790    1.3730 ha        1 P37      0.114500
     40 H21        -1.1220    0.1500    5.3420 ha        1 P37      0.082000
     41 H22        -1.2110    2.4480    4.7530 ha        1 P37      0.082000
     42 H24        -0.6530    3.7950    1.6890 hc        1 P37      0.049700
     43 H24A       -2.2380    3.8340    1.9280 hc        1 P37      0.049700
     44 H24B       -1.2360    4.1610    3.1390 hc        1 P37      0.049700
     45 H3         -0.6530   -3.5820    7.2450 hc        1 P37      0.073700
     46 H3A        -0.9320   -5.2320    6.9760 hc        1 P37      0.073700
     47 H2         -0.2120   -5.0660    5.0840 h1        1 P37      0.123700
     48 H16        -2.0610   -1.0800   -0.1290 ha        1 P37      0.123500
     49 H18         0.9910   -1.8070   -4.1740 h1        1 P37      0.060700
     50 H18A       -0.1670   -1.1010   -5.0320 h1        1 P37      0.060700
     51 H18B       -0.4770   -2.4550   -4.2300 h1        1 P37      0.060700
     52 H14        -0.1140    3.4330   -1.4980 DU        1 P37      0.183000
     53 H9          4.7650    1.4110   -5.7030 ha        1 P37      0.111000
     54 H211       -2.1640    2.2640    0.1550 hn        1 P37      0.431800
@<TRIPOS>BOND
     1    1   17 1   
     2    1   18 1   
     3    1   34 1   
     4    2   28 2   
     5    2   29 1   
     6    3   16 1   
     7    3   17 1   
     8    3   35 1   
     9    3   36 1   
    10    4   12 3   
    11    4   18 1   
    12    5    6 3   
    13    5   33 1   
    14    6   37 1   
    15    7   31 3   
    16    7   32 1   
    17    8   30 3   
    18    8   38 1   
    19    9   27 2   
    20    9   28 2   
    21   10   24 2   
    22   10   25 2   
    23   11   22 1   
    24   11   23 3   
    25   12   39 1   
    26   13   14 3   
    27   13   40 1   
    28   14   41 1   
    29   15   20 1   
    30   15   42 1   
    31   15   43 1   
    32   15   44 1   
    33   16   17 1   
    34   16   45 1   
    35   16   46 1   
    36   17   47 1   
    37   18   19 2   
    38   20   21 3   
    39   21   22 1   
    40   22   54 1   
    41   23   48 1   
    42   25   26 1   
    43   25   27 1   
    44   26   49 1   
    45   26   50 1   
    46   26   51 1   
    47   27   29 1   
    48   29   30 1   
    49   31   53 1   
@<TRIPOS>SUBSTRUCTURE
     1 P37         1 TEMP              0 ****  ****    0 ROOT
