@<TRIPOS>MOLECULE
P38
   76    63     1     0     0
SMALL
bcc


@<TRIPOS>ATOM
      1 C18        -3.2480  -10.2360   -0.3240 c1        1 P38     -0.126500
      2 C17        -2.2050   -9.3360   -0.5460 c1        1 P38     -0.137000
      3 C16        -2.1770   -8.1130    0.1370 c1        1 P38      0.013500
      4 C15        -1.4490   -6.6400   -1.7500 c1        1 P38     -0.251000
      5 C19        -4.2580   -9.9190    0.5740 c1        1 P38     -0.126500
      6 C20        -4.2300   -8.6930    1.2580 c1        1 P38     -0.110000
      7 C21        -3.1900   -7.7960    1.0370 c2        1 P38     -0.140500
      8 C23         2.6310    0.6980    2.1820 c1        1 P38      0.077000
      9 C24         3.9460    0.9610    2.5750 c1        1 P38     -0.124000
     10 C11        -0.8470   -5.0510    0.9800 c1        1 P38      0.383000
     11 C34         0.2840    6.1250   -1.8180 c1        1 P38     -0.152000
     12 C27         2.2560    3.0470    1.8490 c1        1 P38      0.013500
     13 C33         0.2490    5.2440   -0.7660 c1        1 P38     -0.068000
     14 N1         -0.2240   -2.3390    2.8340 n1        1 P38     -0.131500
     15 N2         -0.7680   -1.3370    3.5750 n1        1 P38     -0.146500
     16 C3          0.0440   -0.3910    4.1500 c1        1 P38     -0.031000
     17 N4          1.3950   -0.4560    3.9780 n1        1 P38     -0.131500
     18 C5          1.9370   -1.4500    3.2430 c1        1 P38      0.021500
     19 C6          1.1240   -2.4020    2.6640 c1        1 P38      0.021500
     20 C7          1.4020   -3.4850    1.8470 c1        1 P38     -0.035000
     21 C8          0.2160   -4.0820    1.5190 c1        1 P38     -0.199000
     22 C9         -0.7930   -3.3800    2.1260 c1        1 P38     -0.035000
     23 C10         2.6110   -4.4060    2.1480 c2        1 P38     -0.184000
     24 O12        -2.0510   -4.7980    1.1330 o         1 P38     -0.356000
     25 N13        -0.4530   -6.2670    0.4040 n3        1 P38     -0.324000
     26 C14        -1.3420   -6.9740   -0.4320 c1        1 P38      0.048000
     27 N22         2.1930   -0.6290    2.0440 n2        1 P38     -0.247000
     28 C25         4.4090    2.2530    2.6050 c1        1 P38     -0.110000
     29 C26         3.5650    3.3080    2.2410 c2        1 P38     -0.140500
     30 C28         1.7910    1.7460    1.8200 c1        1 P38     -0.137000
     31 C29         4.9900    0.1900    3.3810 c3        1 P38     -0.180000
     32 N30         1.1270    3.7280    1.1450 n2        1 P38     -0.318000
     33 C31         1.4050    4.6630    0.0540 c2        1 P38      0.352000
     34 O32         2.5470    4.8830   -0.2740 o         1 P38     -0.338000
     35 C35        -0.7250    6.1090   -2.7700 c1        1 P38      0.098000
     36 N36        -1.7520    5.2170   -2.6600 n1        1 P38     -0.146500
     37 C37        -1.7900    4.3380   -1.6130 c1        1 P38     -0.031000
     38 C38        -0.7820    4.3510   -0.6590 c1        1 P38     -0.195000
     39 N39        -0.7000    7.0630   -3.8800 n3        1 P38     -0.219000
     40 C40        -1.1950    6.4290   -5.0590 c3        1 P38     -0.089000
     41 C41        -1.3440    7.3960   -6.2170 c3        1 P38     -0.028000
     42 O42        -2.1010    8.5730   -5.8580 os        1 P38     -0.269000
     43 C43        -1.6080    9.2050   -4.6890 c3        1 P38     -0.028000
     44 C44        -1.4560    8.2330   -3.5240 c3        1 P38     -0.089000
     45 H18        -3.2670  -11.1210   -0.8180 ha        1 P38      0.134500
     46 H17        -1.5140   -9.5530   -1.1590 ha        1 P38      0.147000
     47 H15        -2.0680   -7.1340   -2.3330 DU        1 P38      0.155500
     48 H15A       -0.9050   -5.8990   -2.1190 ha        1 P38      0.157000
     49 H19        -4.9910  -10.5500    0.7300 ha        1 P38      0.134500
     50 H20        -4.9490   -8.4670    1.8970 ha        1 P38      0.136500
     51 H21        -3.1700   -6.9410    1.5150 ha        1 P38      0.155500
     52 H34         1.0160    6.7600   -1.8960 ha        1 P38      0.167000
     53 H3         -0.3430    0.3250    4.6790 ha        1 P38      0.184000
     54 H9         -1.7470   -3.5490    2.0260 DU        1 P38      0.155500
     55 H10         3.3100   -4.2530    1.4840 ha        1 P38      0.101000
     56 H10A        2.3200   -5.3620    2.1120 ha        1 P38      0.101000
     57 H10B        2.9610   -4.2050    3.0420 ha        1 P38      0.101000
     58 HN13        0.3780   -6.5540    0.5070 hn        1 P38      0.231000
     59 HN22        2.0660   -0.9760    1.2270 hn        1 P38      0.249000
     60 H25         5.3250    2.4350    2.8790 ha        1 P38      0.136500
     61 H26         3.8830    4.1970    2.2610 ha        1 P38      0.155500
     62 H28         0.9120    1.5700    1.5570 ha        1 P38      0.147000
     63 H29         4.6740   -0.7040    3.5420 hc        1 P38      0.084333
     64 H29A        5.1420    0.6470    4.2460 hc        1 P38      0.084333
     65 H29B        5.8250    0.1540    2.8820 hc        1 P38      0.084333
     66 HN30        0.2600    3.6480    1.4750 hn        1 P38      0.238000
     67 H37        -2.5100    3.7150   -1.5380 ha        1 P38      0.184000
     68 H38        -0.8100    3.7000    0.1180 ha        1 P38      0.150000
     69 H40        -2.0680    6.0340   -4.8630 h1        1 P38      0.096250
     70 H40A       -0.5620    5.7010   -5.3250 h1        1 P38      0.096250
     71 H41        -0.4720    7.6660   -6.5080 h1        1 P38      0.097000
     72 H41A       -1.8070    6.9320   -6.9670 h1        1 P38      0.097000
     73 H43        -0.7540    9.5920   -4.8830 h1        1 P38      0.097000
     74 H43A       -2.2560    9.9500   -4.4160 h1        1 P38      0.097000
     75 H44        -0.9990    8.6940   -2.7820 h1        1 P38      0.096250
     76 H44A       -2.3200    7.9630   -3.2330 h1        1 P38      0.096250
@<TRIPOS>BOND
     1    1    5 1   
     2    1   45 1   
     3    2    3 1   
     4    2   46 1   
     5    3    7 1   
     6    4   26 1   
     7    4   48 1   
     8    5   49 1   
     9    6    7 1   
    10    6   50 1   
    11    7   51 1   
    12    8    9 1   
    13    8   27 1   
    14    9   31 1   
    15   10   24 1   
    16   10   25 1   
    17   11   35 1   
    18   11   52 1   
    19   12   29 1   
    20   12   30 1   
    21   13   33 1   
    22   13   38 1   
    23   14   19 1   
    24   15   16 1   
    25   16   53 1   
    26   17   18 1   
    27   18   19 1   
    28   20   21 1   
    29   21   22 1   
    30   23   55 1   
    31   23   56 1   
    32   23   57 1   
    33   25   26 1   
    34   25   58 1   
    35   27   59 1   
    36   28   29 1   
    37   28   60 1   
    38   29   61 1   
    39   30   62 1   
    40   31   63 1   
    41   31   64 1   
    42   31   65 1   
    43   32   33 1   
    44   32   66 1   
    45   33   34 1   
    46   35   39 1   
    47   36   37 1   
    48   37   67 1   
    49   38   68 1   
    50   39   40 1   
    51   39   44 1   
    52   40   41 1   
    53   40   69 1   
    54   40   70 1   
    55   41   42 1   
    56   41   71 1   
    57   41   72 1   
    58   42   43 1   
    59   43   44 1   
    60   43   73 1   
    61   43   74 1   
    62   44   75 1   
    63   44   76 1   
@<TRIPOS>SUBSTRUCTURE
     1 P38         1 TEMP              0 ****  ****    0 ROOT
