@<TRIPOS>MOLECULE
P38
   77    75     1     0     0
SMALL
bcc


@<TRIPOS>ATOM
      1 C18         1.7800   -5.0480    4.4880 c1        1 P38      0.241000
      2 C17         1.4880   -6.1410    5.1150 c2        1 P38     -0.252000
      3 C16         3.1690    0.7330    1.3580 c1        1 P38     -0.303000
      4 C15         2.5520    2.7840    0.2000 c2        1 P38     -0.115000
      5 C19         2.0680   -3.9580    3.8590 c1        1 P38     -0.478000
      6 C20         2.3420   -2.8960    3.2290 c1        1 P38      0.123000
      7 C21         2.8800   -0.3450    1.8010 c1        1 P38     -0.049000
      8 C23         6.4130    5.4820    8.6590 c2        1 P38      0.129000
      9 C24         6.2340    6.7940    8.9670 c2        1 P38     -0.166000
     10 C11         4.9800    3.6210    1.9840 c2        1 P38      0.364000
     11 C34        10.0660    2.5300   14.2480 c2        1 P38      0.035000
     12 C27         7.4220    3.8170   10.3950 c1        1 P38      0.049000
     13 C33         9.2720    2.1980   13.1880 c2        1 P38     -0.272000
     14 N1          4.9660    2.1020    5.2970 na        1 P38      0.024000
     15 N2          4.8380    1.1770    6.3050 nh        1 P38     -0.219000
     16 C3          5.1220    1.5220    7.6020 c1        1 P38      0.073000
     17 N4          5.5330    2.7420    7.9840 n2        1 P38     -0.277000
     18 C5          5.6810    3.7290    7.0560 c2        1 P38      0.283000
     19 C6          5.4020    3.4320    5.6190 c2        1 P38     -0.168000
     20 C7          5.4640    4.1710    4.4210 c2        1 P38      0.031000
     21 C8          5.0690    3.2760    3.3610 c2        1 P38     -0.285000
     22 C9          4.7720    2.0050    3.9500 c2        1 P38     -0.079000
     23 O12         5.0210    4.7100    1.4190 o         1 P38     -0.235000
     24 N13         4.8540    2.4480    1.0010 n4        1 P38     -0.077000
     25 C14         3.4540    2.0060    0.8270 c2        1 P38      0.001000
     26 C25         7.7260    7.8820   11.7440 c1        1 P38      0.121000
     27 C26         8.5970    7.6660   12.6830 c2        1 P38     -0.535000
     28 C28         6.9700    4.5830    9.5870 c1        1 P38     -0.190000
     29 C29         5.6780    7.8100    8.0580 c3        1 P38     -0.194000
     30 N30         7.9200    2.9420   11.2740 n         1 P38     -0.257000
     31 C31         8.8190    3.2820   12.3000 c2        1 P38      0.378000
     32 O32         9.1920    4.4670   12.4270 o         1 P38     -0.387000
     33 C35        10.5860    1.5420   15.1520 c2        1 P38     -0.303000
     34 N36        10.3270    0.1660   14.8140 n3        1 P38     -0.104000
     35 C37         9.5650   -0.2040   13.8180 c1        1 P38     -0.123000
     36 C38         8.8950    0.7840   12.9260 c3        1 P38     -0.141000
     37 N39        11.2860    1.8960   16.2990 n3        1 P38      0.107000
     38 C40        12.1210    0.8760   16.9220 c3        1 P38     -0.156000
     39 C41        13.5500    1.3790   20.0640 c1        1 P38      0.165000
     40 O42        14.0170    1.3160   21.1330 o         1 P38     -0.163000
     41 C43        12.0170    3.6220   17.9530 c3        1 P38     -0.185000
     42 C44        11.2010    3.1140   16.8290 c2        1 P38     -0.197000
     43 H18         0.9830   -6.9890    4.6210 ha        1 P38      0.198500
     44 H17         2.6310   -1.3230    2.2250 ha        1 P38      0.312000
     45 H15         1.5150    2.4330    0.0730 ha        1 P38      0.170000
     46 H15A        2.7770    3.7810   -0.2080 ha        1 P38      0.170000
     47 H19         1.7260   -6.2940    6.1820 ha        1 P38      0.198500
     48 H20         3.4820   -1.4700    4.8670 ha        1 P38      0.005000
     49 H21         3.5710   -0.9900    4.3950 ha        1 P38      0.005000
     50 H3          4.4850    0.2800    6.0370 hn        1 P38      0.271000
     51 H9          4.4030    1.0880    3.4760 h4        1 P38      0.193000
     52 HN13        5.4170    1.6620    1.3390 hn        1 P38      0.255000
     53 HN22        6.0830    5.6780    6.6350 hn        1 P38      0.247000
     54 H25         6.5460    7.1470    9.9730 ha        1 P38      0.200000
     55 H26         9.0510    6.6600   12.8140 ha        1 P38      0.209500
     56 H28         8.9630    8.4010   13.4130 ha        1 P38      0.209500
     57 H29         5.5510    8.7830    8.5960 hc        1 P38      0.085667
     58 H29A        4.6770    7.5030    7.6630 hc        1 P38      0.085667
     59 H29B        6.3610    7.9870    7.1880 hc        1 P38      0.085667
     60 HN30        7.5740    2.0070   11.2110 hn        1 P38      0.259000
     61 H37         7.7850    0.6350   13.0520 hc        1 P38      0.110000
     62 H38         9.1590    0.4880   11.8720 hc        1 P38      0.110000
     63 H40        11.4650    0.1090   17.4160 h1        1 P38      0.124000
     64 H40A       10.7570   -0.5400   15.3700 hn        1 P38      0.238000
     65 H41        12.7610    0.3860   16.1410 h1        1 P38      0.124000
     66 H41A       12.7910    1.3250   17.7060 h1        1 P38      0.124000
     67 H43        13.0960    3.7030   17.6620 hc        1 P38      0.099333
     68 H43A       11.9470    2.9640   18.8580 hc        1 P38      0.099333
     69 H44        10.4740    3.8200   16.3860 h4        1 P38      0.174000
     70 H44A       11.6500    4.6420   18.2310 hc        1 P38      0.099333
     71 C10         5.8630    5.5710    4.2520 c3        1 P38     -0.202000
     72 H10         5.1560    6.2500    4.7960 hc        1 P38      0.114333
     73 H10A        5.8510    5.8690    3.1730 hc        1 P38      0.114333
     74 H10B        6.9010    5.7380    4.6410 hc        1 P38      0.114333
     75 H132        5.2130    2.7530    0.0870 hn        1 P38      0.255000
     76 N22         6.0800    4.9920    7.3600 n3        1 P38     -0.216000
     77 H34        10.3450    3.5900   14.3930 ha        1 P38      0.146000
@<TRIPOS>BOND
     1    1    2 1   
     2    1    5 1   
     3    2   43 1   
     4    2   47 1   
     5    3    7 1   
     6    3   25 1   
     7    4   25 1   
     8    4   45 1   
     9    4   46 1   
    10    5    6 1   
    11    7   44 1   
    12    8    9 1   
    13    8   28 1   
    14    8   76 1   
    15    9   29 1   
    16    9   54 1   
    17   10   21 1   
    18   10   23 1   
    19   10   24 1   
    20   11   13 1   
    21   11   33 1   
    22   11   77 1   
    23   12   28 1   
    24   12   30 1   
    25   13   31 1   
    26   13   36 1   
    27   14   15 1   
    28   14   19 1   
    29   14   22 1   
    30   15   16 1   
    31   15   50 1   
    32   16   17 1   
    33   17   18 1   
    34   18   19 1   
    35   18   76 1   
    36   19   20 1   
    37   20   21 1   
    38   20   71 1   
    39   21   22 1   
    40   22   51 1   
    41   24   25 1   
    42   24   52 1   
    43   24   75 1   
    44   26   27 1   
    45   27   55 1   
    46   27   56 1   
    47   29   57 1   
    48   29   58 1   
    49   29   59 1   
    50   30   31 1   
    51   30   60 1   
    52   31   32 1   
    53   33   34 1   
    54   33   37 1   
    55   34   35 1   
    56   34   64 1   
    57   35   36 1   
    58   36   61 1   
    59   36   62 1   
    60   37   38 1   
    61   37   42 1   
    62   38   63 1   
    63   38   65 1   
    64   38   66 1   
    65   39   40 1   
    66   41   42 1   
    67   41   67 1   
    68   41   68 1   
    69   41   70 1   
    70   42   69 1   
    71   48   49 1   
    72   53   76 1   
    73   71   72 1   
    74   71   73 1   
    75   71   74 1   
@<TRIPOS>SUBSTRUCTURE
     1 P38         1 TEMP              0 ****  ****    0 ROOT
