@<TRIPOS>MOLECULE
P38
   76    81     1     0     0
SMALL
bcc


@<TRIPOS>ATOM
      1 C18        11.4750    0.6260    0.1780 ca        1 P38     -0.133000
      2 C17        10.5240   -0.2460    0.7050 ca        1 P38     -0.102000
      3 C16         9.5850   -0.8550   -0.1390 ca        1 P38     -0.051800
      4 C15         9.0560   -2.8210    1.2170 c2        1 P38     -0.281000
      5 C19        11.4960    0.8950   -1.1900 ca        1 P38     -0.122000
      6 C20        10.5620    0.2930   -2.0320 ca        1 P38     -0.133000
      7 C21         9.6070   -0.5790   -1.5110 ca        1 P38     -0.102000
      8 C23        -0.1650    1.8780    0.3750 ca        1 P38      0.156600
      9 C24        -0.2560    3.2860    0.2230 ca        1 P38     -0.130300
     10 C11         6.5320   -0.5050    0.0900 c         1 P38      0.705300
     11 C34        -7.2270    0.2490    0.4200 ca        1 P38     -0.219300
     12 C27        -2.5960    1.7440    0.6400 ca        1 P38      0.079600
     13 C33        -6.0330    0.2100    1.1390 ca        1 P38     -0.087600
     14 N1          3.1890   -1.3990   -1.1910 na        1 P38      0.217200
     15 N2          2.2730   -2.0970   -1.8820 nc        1 P38     -0.552800
     16 C3          1.0210   -1.6380   -1.7940 cd        1 P38      0.642900
     17 N4          0.5340   -0.5440   -1.0980 nd        1 P38     -0.787000
     18 C5          1.4500    0.1660   -0.3980 cc        1 P38      0.756200
     19 C6          2.8620   -0.2350   -0.4110 cc        1 P38     -0.284600
     20 C7          4.0560    0.2470    0.1710 cd        1 P38     -0.017200
     21 C8          5.1060   -0.6270   -0.2560 cd        1 P38     -0.222200
     22 C9          4.5490   -1.6260   -1.0910 cc        1 P38     -0.078100
     23 O12         7.0600    0.5860    0.3690 o         1 P38     -0.574100
     24 N13         7.2580   -1.7000    0.0640 n         1 P38     -0.490100
     25 C14         8.6160   -1.8170    0.4260 ce        1 P38      0.090400
     26 N22         1.1090    1.2590    0.3790 nh        1 P38     -0.724300
     27 C25        -1.5150    3.8820    0.2920 ca        1 P38     -0.090000
     28 C26        -2.6750    3.1430    0.4910 ca        1 P38     -0.158000
     29 C28        -1.3260    1.1210    0.5920 ca        1 P38     -0.164000
     30 C29         0.9450    4.1230   -0.0010 c3        1 P38     -0.055800
     31 N30        -3.7190    0.9240    0.8450 n         1 P38     -0.465100
     32 C31        -5.0460    1.3180    0.9310 c         1 P38      0.677700
     33 O32        -5.4220    2.4990    0.8330 o         1 P38     -0.574100
     34 C35        -8.1870   -0.7920    0.6130 ca        1 P38      0.621200
     35 N36        -7.9520   -1.8160    1.4960 nb        1 P38     -0.699000
     36 C37        -6.8030   -1.8030    2.1850 ca        1 P38      0.424200
     37 C38        -5.8020   -0.8270    2.0470 ca        1 P38     -0.261300
     38 N39        -9.4340   -0.6950   -0.0670 nh        1 P38     -0.728300
     39 C40       -10.4750   -1.6380    0.3260 c3        1 P38      0.149300
     40 C41       -11.8080   -1.3360   -0.3720 c3        1 P38      0.122400
     41 O42       -11.6580   -1.2550   -1.7850 os        1 P38     -0.412600
     42 C43       -10.6920   -0.2830   -2.1640 c3        1 P38      0.122400
     43 C44        -9.3280   -0.5570   -1.5160 c3        1 P38      0.149300
     44 H18        12.2070    1.1050    0.8450 ha        1 P38      0.131000
     45 H17        10.5020   -0.4540    1.7850 ha        1 P38      0.135500
     46 H15        10.1240   -2.9380    1.4310 ha        1 P38      0.125000
     47 H15A        8.3960   -3.5720    1.6670 ha        1 P38      0.125000
     48 H19        12.2460    1.5850   -1.6040 ha        1 P38      0.130000
     49 H20        10.5750    0.5070   -3.1110 ha        1 P38      0.131000
     50 H21         8.8700   -1.0480   -2.1790 ha        1 P38      0.135500
     51 H3          0.2550   -2.2070   -2.3640 h5        1 P38      0.065100
     52 H9          5.0350   -2.4490   -1.6220 h4        1 P38      0.192000
     53 HN13        6.7310   -2.5440    0.1170 hn        1 P38      0.309500
     54 HN22        1.8670    1.8480    0.6570 hn        1 P38      0.452800
     55 H25        -1.5980    4.9750    0.1780 ha        1 P38      0.140000
     56 H26        -3.6450    3.6640    0.5300 ha        1 P38      0.177000
     57 H28        -1.2490    0.0290    0.7200 ha        1 P38      0.152000
     58 H29         1.5190    3.7670   -0.8940 hc        1 P38      0.046033
     59 H29A        0.6610    5.1900   -0.1790 hc        1 P38      0.046033
     60 H29B        1.6220    4.0940    0.8900 hc        1 P38      0.046033
     61 HN30       -3.5320   -0.0540    0.8980 hn        1 P38      0.323500
     62 H37        -6.6750   -2.6420    2.8940 h4        1 P38      0.027100
     63 H38        -4.8900   -0.8790    2.6550 ha        1 P38      0.149000
     64 H40       -10.1800   -2.7000    0.0890 h1        1 P38      0.055950
     65 H40A      -10.6300   -1.5530    1.4380 h1        1 P38      0.055950
     66 H41       -12.5210   -2.1870   -0.2140 h1        1 P38      0.058450
     67 H41A      -12.2530   -0.3810    0.0130 h1        1 P38      0.058450
     68 H43       -10.6110   -0.3840   -3.2780 h1        1 P38      0.058450
     69 H43A      -11.0610    0.7410   -1.8930 h1        1 P38      0.058450
     70 H44        -8.6450    0.3040   -1.7540 h1        1 P38      0.055950
     71 H44A       -8.8940   -1.4910   -1.9780 h1        1 P38      0.055950
     72 C10         4.2090    1.4100    1.0490 c3        1 P38     -0.061900
     73 H34        -7.4260    1.0940   -0.2560 ha        1 P38      0.168000
     74 H10         3.5730    1.3050    1.9640 hc        1 P38      0.061367
     75 H10A        5.2770    1.5180    1.3740 hc        1 P38      0.061367
     76 H10B        3.9240    2.3520    0.5120 hc        1 P38      0.061367
@<TRIPOS>BOND
     1    1    2 ar  
     2    1    5 ar  
     3    1   44 1   
     4    2    3 ar  
     5    2   45 1   
     6    3    7 ar  
     7    3   25 1   
     8    4   25 2   
     9    4   46 1   
    10    4   47 1   
    11    5    6 ar  
    12    5   48 1   
    13    6    7 ar  
    14    6   49 1   
    15    7   50 1   
    16    8    9 ar  
    17    8   26 1   
    18    8   29 ar  
    19    9   27 ar  
    20    9   30 1   
    21   10   21 1   
    22   10   23 2   
    23   10   24 1   
    24   11   13 ar  
    25   11   34 ar  
    26   11   73 1   
    27   12   28 ar  
    28   12   29 ar  
    29   12   31 1   
    30   13   32 1   
    31   13   37 ar  
    32   14   15 1   
    33   14   19 1   
    34   14   22 1   
    35   15   16 2   
    36   16   17 1   
    37   16   51 1   
    38   17   18 2   
    39   18   19 1   
    40   18   26 1   
    41   19   20 2   
    42   20   21 1   
    43   20   72 1   
    44   21   22 2   
    45   22   52 1   
    46   24   25 1   
    47   24   53 1   
    48   26   54 1   
    49   27   28 ar  
    50   27   55 1   
    51   28   56 1   
    52   29   57 1   
    53   30   58 1   
    54   30   59 1   
    55   30   60 1   
    56   31   32 1   
    57   31   61 1   
    58   32   33 2   
    59   34   35 ar  
    60   34   38 1   
    61   35   36 ar  
    62   36   37 ar  
    63   36   62 1   
    64   37   63 1   
    65   38   39 1   
    66   38   43 1   
    67   39   40 1   
    68   39   64 1   
    69   39   65 1   
    70   40   41 1   
    71   40   66 1   
    72   40   67 1   
    73   41   42 1   
    74   42   43 1   
    75   42   68 1   
    76   42   69 1   
    77   43   70 1   
    78   43   71 1   
    79   72   74 1   
    80   72   75 1   
    81   72   76 1   
@<TRIPOS>SUBSTRUCTURE
     1 P38         1 TEMP              0 ****  ****    0 ROOT
