@<TRIPOS>MOLECULE
P38
   76    77     1     0     0
SMALL
bcc


@<TRIPOS>ATOM
      1 C18         0.3960    0.3400    5.8350 c1        1 P38     -0.228500
      2 C17         1.9500   -2.2260    0.4340 c3        1 P38     -0.208000
      3 C16         2.9680   -1.5460    1.2760 c2        1 P38      0.132000
      4 C15         3.1050    0.3890   -0.2350 c1        1 P38     -0.102000
      5 C19        -0.4770    0.4960    6.6370 c1        1 P38     -0.228500
      6 C20         3.9470   -2.9830    3.2150 c1        1 P38     -0.128000
      7 C21         3.4990   -2.3180    2.3230 c1        1 P38     -0.160000
      8 C23         6.5100    5.5720    7.9690 c2        1 P38     -0.268000
      9 C24         6.1110    6.4090    9.1250 c3        1 P38      0.000000
     10 C11         3.9780    0.7910    3.1560 c2        1 P38      0.377000
     11 C34        10.5370    3.3370   15.2370 c2        1 P38     -0.153000
     12 C27         7.2380    5.5980   12.5080 c2        1 P38      0.041000
     13 C33        10.2840    3.9890   14.0310 c2        1 P38     -0.066000
     14 N1          6.8910    2.6960    4.3770 na        1 P38     -0.063000
     15 N2          8.1770    3.1560    4.4920 nh        1 P38     -0.198000
     16 C3          8.5820    4.0530    5.4350 c1        1 P38      0.172000
     17 N4          7.6630    4.5430    6.3450 n3        1 P38     -0.141000
     18 C5          6.2980    4.1010    6.2850 c2        1 P38     -0.022000
     19 C6          5.8850    3.1510    5.2880 c2        1 P38     -0.070000
     20 C7          4.6730    2.5130    4.9630 c2        1 P38     -0.020000
     21 C8          4.9460    1.6640    3.8370 c2        1 P38     -0.193000
     22 C9          6.3140    1.7920    3.5000 c2        1 P38     -0.065000
     23 O12         2.9540    0.3640    3.7260 o         1 P38     -0.368000
     24 N13         4.3050    0.4260    1.8470 n         1 P38     -0.298000
     25 C14         3.3900   -0.2570    1.0000 c2        1 P38     -0.081000
     26 N22         5.6120    4.7290    7.2730 n3        1 P38     -0.070000
     27 C25         5.8170    5.5500   10.3180 c2        1 P38     -0.060000
     28 C26         6.5300    5.5570   11.4030 c1        1 P38     -0.261000
     29 C28         7.8180    5.4650    7.3940 c1        1 P38     -0.029000
     30 C29         4.9120    7.2860    8.8080 c3        1 P38     -0.210000
     31 N30         8.3610    4.8010   12.7450 n         1 P38     -0.321000
     32 C31         9.0700    4.8540   13.9360 c2        1 P38      0.346000
     33 O32         8.7010    5.5710   14.8850 o         1 P38     -0.344000
     34 C35        11.7060    2.5260   15.3550 c2        1 P38      0.091000
     35 N36        12.5730    2.3720   14.3050 n2        1 P38     -0.165000
     36 C37        12.3020    3.0260   13.1670 c2        1 P38     -0.045000
     37 C38        11.1770    3.8440   12.9650 c2        1 P38     -0.187000
     38 N39        12.0040    1.9480   16.6250 nh        1 P38     -0.215000
     39 C40        13.3370    1.4080   16.8140 c3        1 P38     -0.106000
     40 C41        13.3790    3.1660   19.1180 c1        1 P38     -0.026000
     41 O42        12.1610    3.0320   19.4960 oh        1 P38     -0.145000
     42 C43         9.7910    0.8460   16.7850 c2        1 P38     -0.277000
     43 C44        10.9780    1.2260   17.2760 c2        1 P38     -0.061000
     44 H18         1.4370   -3.0340    1.0130 hc        1 P38      0.105333
     45 H17         1.1730    0.1980    5.1190 ha        1 P38      0.228000
     46 H15         1.1740   -1.5050    0.0740 hc        1 P38      0.105333
     47 H15A        2.2480    0.0500   -0.8280 ha        1 P38      0.069000
     48 H19         2.4420   -2.6950   -0.4560 hc        1 P38      0.105333
     49 H20        -1.2530    0.6330    7.3470 ha        1 P38      0.228000
     50 H21         4.3390   -3.5690    4.0080 ha        1 P38      0.231000
     51 H3          8.8280    2.7960    3.8220 hn        1 P38      0.283000
     52 H9          6.8890    1.2930    2.7170 h4        1 P38      0.186000
     53 HN13        4.8950    1.0610    1.3480 hn        1 P38      0.234000
     54 HN22        4.6450    4.6100    7.4570 hn        1 P38      0.264000
     55 H25         6.9950    7.0770    9.3480 hc        1 P38      0.137000
     56 H26         4.9340    4.8920   10.2230 ha        1 P38      0.120000
     57 H28         6.9770    6.2810   13.3450 h4        1 P38      0.181000
     58 H29         5.1110    7.8910    7.8920 hc        1 P38      0.076333
     59 H29A        3.9950    6.6710    8.6390 hc        1 P38      0.076333
     60 H29B        4.7140    7.9800    9.6600 hc        1 P38      0.076333
     61 HN30        8.6850    4.2090   12.0140 hn        1 P38      0.240000
     62 H37        11.0320    4.3580   12.0060 ha        1 P38      0.155000
     63 H38        13.0390    2.8770   12.3560 h4        1 P38      0.167000
     64 H40        13.5230    0.4910   16.1950 h1        1 P38      0.097333
     65 H40A       14.0890    2.1930   16.5360 h1        1 P38      0.097333
     66 H41        13.4690    1.1500   17.9010 h1        1 P38      0.097333
     67 H41A       13.6140    3.9330   18.3450 ha        1 P38      0.009000
     68 H43        11.4920    3.6090   19.0640 ho        1 P38      0.157000
     69 H43A        9.0580    0.3440   17.4290 ha        1 P38      0.126000
     70 H44         9.4720    1.0110   15.7480 ha        1 P38      0.126000
     71 H44A       11.2520    1.0190   18.3330 h4        1 P38      0.155000
     72 C10         3.3980    2.7070    5.6560 c3        1 P38     -0.179000
     73 H34         9.8470    3.4630   16.0860 ha        1 P38      0.170000
     74 H10         3.5290    2.5820    6.7610 hc        1 P38      0.100667
     75 H10A        3.0000    3.7350    5.4610 hc        1 P38      0.100667
     76 H10B        2.6380    1.9590    5.3070 hc        1 P38      0.100667
@<TRIPOS>BOND
     1    1    5 1   
     2    1   45 1   
     3    2    3 1   
     4    2   44 1   
     5    2   46 1   
     6    2   48 1   
     7    3    7 1   
     8    3   25 1   
     9    4   25 1   
    10    4   47 1   
    11    5   49 1   
    12    6    7 1   
    13    6   50 1   
    14    8    9 1   
    15    8   26 1   
    16    8   29 1   
    17    9   27 1   
    18    9   30 1   
    19    9   55 1   
    20   10   21 1   
    21   10   23 1   
    22   10   24 1   
    23   11   13 1   
    24   11   34 1   
    25   11   73 1   
    26   12   28 1   
    27   12   31 1   
    28   12   57 1   
    29   13   32 1   
    30   13   37 1   
    31   14   15 1   
    32   14   19 1   
    33   14   22 1   
    34   15   16 1   
    35   15   51 1   
    36   16   17 1   
    37   17   18 1   
    38   17   29 1   
    39   18   19 1   
    40   18   26 1   
    41   19   20 1   
    42   20   21 1   
    43   20   72 1   
    44   21   22 1   
    45   22   52 1   
    46   24   25 1   
    47   24   53 1   
    48   26   54 1   
    49   27   28 1   
    50   27   56 1   
    51   30   58 1   
    52   30   59 1   
    53   30   60 1   
    54   31   32 1   
    55   31   61 1   
    56   32   33 1   
    57   34   35 1   
    58   34   38 1   
    59   35   36 1   
    60   36   37 1   
    61   36   63 1   
    62   37   62 1   
    63   38   39 1   
    64   38   43 1   
    65   39   64 1   
    66   39   65 1   
    67   39   66 1   
    68   40   41 1   
    69   40   67 1   
    70   41   68 1   
    71   42   43 1   
    72   42   69 1   
    73   42   70 1   
    74   43   71 1   
    75   72   74 1   
    76   72   75 1   
    77   72   76 1   
@<TRIPOS>SUBSTRUCTURE
     1 P38         1 TEMP              0 ****  ****    0 ROOT
