@<TRIPOS>MOLECULE
P39
   80    80     1     0     0
SMALL
bcc


@<TRIPOS>ATOM
      1 C18         0.4770   -1.5720   -0.4980 c1        1 P39     -0.006000
      2 C17         1.4040   -0.5700   -0.0300 c3        1 P39     -0.256000
      3 C16         2.1040   -0.7820    1.3190 c3        1 P39     -0.197000
      4 C15         4.4890   -0.5470    0.5430 c3        1 P39     -0.247000
      5 C19         1.2730    1.3770    4.1760 c1        1 P39      0.219000
      6 C20         1.2420    0.4670    3.2820 c1        1 P39     -0.621000
      7 C21         1.1390   -0.5340    2.4250 c2        1 P39      0.195000
      8 C23         9.6260    5.0790    5.1260 c2        1 P39     -0.011000
      9 C24        10.9190    4.3730    4.9830 cx        1 P39     -0.135000
     10 C34        10.8170   10.9960    7.8620 c2        1 P39     -0.243000
     11 C27        10.6940    6.8340    6.5120 c2        1 P39      0.042000
     12 C33        10.7730    9.8790    8.7820 c2        1 P39     -0.092000
     13 N1          5.0420    3.3530    4.7390 na        1 P39      0.005000
     14 N2          4.8190    3.6130    6.0660 nh        1 P39     -0.226000
     15 C3          5.7840    4.1780    6.8570 c1        1 P39      0.120000
     16 N4          7.0060    4.4810    6.3650 n3        1 P39     -0.299000
     17 C5          7.3890    4.2550    4.9990 c2        1 P39      0.142000
     18 C6          6.3160    3.6550    4.1630 c2        1 P39     -0.093000
     19 C7          6.2860    3.2900    2.8090 c2        1 P39      0.061000
     20 C8          4.9660    2.7390    2.5610 c2        1 P39     -0.306000
     21 C9          4.2310    2.7990    3.7870 c2        1 P39     -0.058000
     22 N13         3.2060    1.4890    1.2630 n4        1 P39     -0.120000
     23 C14         3.4160    0.0150    1.4680 c3        1 P39     -0.052000
     24 C25        12.1100    4.9820    5.7140 cx        1 P39     -0.111000
     25 C26        11.9010    6.2000    6.4860 c2        1 P39     -0.147000
     26 C28         9.5420    6.2490    5.8220 c2        1 P39     -0.166000
     27 C29        12.0310    5.0310    4.2100 cx        1 P39     -0.180000
     28 N30        10.4530    8.0340    7.2060 n         1 P39     -0.332000
     29 C31        11.2370    8.5630    8.2250 c2        1 P39      0.347000
     30 O32        12.2430    7.9830    8.6680 o         1 P39     -0.336000
     31 C35        11.3630   12.2100    8.1460 c2        1 P39      0.142000
     32 C36        12.0630   12.5180    9.3910 c2        1 P39     -0.465000
     33 C37        12.6200   13.6730    9.7290 c1        1 P39      0.211000
     34 C38        10.3640    9.9420   10.0550 c2        1 P39     -0.169000
     35 N39        11.2440   13.2890    7.2240 n3        1 P39     -0.170000
     36 C40        14.9460   15.1620   11.9750 c3        1 P39     -0.271000
     37 C41        15.1560   18.2080   10.1530 c1        1 P39      0.221000
     38 O42        14.3740   17.7980    9.3820 o         1 P39     -0.221000
     39 C43        12.5080   15.4000    7.9150 c1        1 P39     -0.144000
     40 C44        11.9410   14.4060    7.5360 c1        1 P39     -0.132000
     41 H18         0.8400    0.4080   -0.0360 hc        1 P39      0.162500
     42 H17         2.1830   -0.5010   -0.8510 hc        1 P39      0.162500
     43 H15         4.2470   -0.3780   -0.5350 hc        1 P39      0.119667
     44 H15A        5.4820   -0.0770    0.7550 hc        1 P39      0.119667
     45 H15B        4.5800   -1.6470    0.7230 hc        1 P39      0.119667
     46 H19         0.3250   -2.4820    0.0980 ha        1 P39      0.067000
     47 H20         0.2970   -1.2580    2.4840 ha        1 P39      0.166000
     48 H21         2.4080   -1.8730    1.3820 hc        1 P39      0.161000
     49 H3          3.8840    3.4830    6.3990 hn        1 P39      0.294000
     50 H9          3.1980    2.5060    4.0130 h4        1 P39      0.202000
     51 HN13        2.5700    1.8340    1.9920 hn        1 P39      0.248500
     52 H14         3.7720   -0.0970    2.5400 hx        1 P39      0.152000
     53 HN22        7.6900    4.8430    7.0000 hn        1 P39      0.288000
     54 H25        10.8370    3.2690    4.9310 hc        1 P39      0.134000
     55 H26        12.7680    6.5660    7.0640 ha        1 P39      0.183000
     56 H28         8.5840    6.7940    5.8880 ha        1 P39      0.129000
     57 H29        11.8430    5.9990    3.7140 hc        1 P39      0.124500
     58 H29A       12.7120    4.3850    3.6270 hc        1 P39      0.124500
     59 H29B       12.8510    4.2930    6.1710 hc        1 P39      0.139000
     60 HN30        9.6540    8.5540    6.9230 hn        1 P39      0.232000
     61 H36        12.1560   11.6710   10.1050 ha        1 P39      0.207000
     62 H37        10.0170   10.8810   10.5100 ha        1 P39      0.132500
     63 H38        10.3540    9.0610   10.7110 ha        1 P39      0.132500
     64 H40        15.9400   14.6650   11.9560 hc        1 P39      0.067750
     65 H40A       14.2290   14.5960   11.3360 hc        1 P39      0.067750
     66 H41        14.5680   15.1970   13.0190 hc        1 P39      0.067750
     67 H41A       15.0420   16.2000   11.5820 hc        1 P39      0.067750
     68 H43        12.9990   16.2910    8.2290 ha        1 P39      0.262000
     69 H43A       12.6390   16.1070   10.5270 ha        1 P39      0.000500
     70 H44        11.2340   13.0420    6.2550 hn        1 P39      0.231000
     71 H44A       12.6450   16.7380   10.7750 ha        1 P39      0.000500
     72 C11         4.5220    2.2780    1.2920 c2        1 P39      0.361000
     73 C10         7.3780    3.4340    1.8470 c3        1 P39     -0.190000
     74 O12         5.0130    2.4140    0.1750 o         1 P39     -0.226000
     75 H10         7.6770    4.5130    1.7630 hc        1 P39      0.119667
     76 H10A        8.2800    2.8630    2.1930 hc        1 P39      0.119667
     77 H10B        7.0860    3.0670    0.8320 hc        1 P39      0.119667
     78 H132        2.7730    1.6330    0.3430 hn        1 P39      0.248500
     79 N22         8.5390    4.4960    4.4410 n2        1 P39     -0.151000
     80 H34        10.3670   10.8100    6.8720 ha        1 P39      0.131000
@<TRIPOS>BOND
     1    1    2 1   
     2    1   46 1   
     3    2    3 1   
     4    2   41 1   
     5    2   42 1   
     6    3    7 1   
     7    3   23 1   
     8    3   48 1   
     9    4   23 1   
    10    4   43 1   
    11    4   44 1   
    12    4   45 1   
    13    5    6 1   
    14    6    7 1   
    15    7   47 1   
    16    8    9 1   
    17    8   26 1   
    18    8   79 1   
    19    9   24 1   
    20    9   27 1   
    21    9   54 1   
    22   10   12 1   
    23   10   31 1   
    24   10   80 1   
    25   11   25 1   
    26   11   26 1   
    27   11   28 1   
    28   12   29 1   
    29   12   34 1   
    30   13   14 1   
    31   13   18 1   
    32   13   21 1   
    33   14   15 1   
    34   14   49 1   
    35   15   16 1   
    36   16   17 1   
    37   16   53 1   
    38   17   18 1   
    39   17   79 1   
    40   18   19 1   
    41   19   20 1   
    42   19   73 1   
    43   20   21 1   
    44   20   72 1   
    45   21   50 1   
    46   22   23 1   
    47   22   51 1   
    48   22   72 1   
    49   22   78 1   
    50   23   52 1   
    51   24   25 1   
    52   24   27 1   
    53   24   59 1   
    54   25   55 1   
    55   26   56 1   
    56   27   57 1   
    57   27   58 1   
    58   28   29 1   
    59   28   60 1   
    60   29   30 1   
    61   31   32 1   
    62   31   35 1   
    63   32   33 1   
    64   32   61 1   
    65   34   62 1   
    66   34   63 1   
    67   35   40 1   
    68   35   70 1   
    69   36   64 1   
    70   36   65 1   
    71   36   66 1   
    72   36   67 1   
    73   37   38 1   
    74   39   40 1   
    75   39   68 1   
    76   69   71 1   
    77   72   74 1   
    78   73   75 1   
    79   73   76 1   
    80   73   77 1   
@<TRIPOS>SUBSTRUCTURE
     1 P39         1 TEMP              0 ****  ****    0 ROOT
