@<TRIPOS>MOLECULE
P39
   79    80     1     0     0
SMALL
bcc


@<TRIPOS>ATOM
      1 C18         0.6400   -0.1810    0.5790 cx        1 P39     -0.301000
      2 C17         1.9080    0.5260    0.6870 c1        1 P39      0.024000
      3 C16         3.0250   -0.4580    0.5210 c3        1 P39     -0.180000
      4 C15         5.1680    0.4930   -0.2780 c2        1 P39     -0.198000
      5 C19         0.1360   -0.9000   -0.6390 cu        1 P39     -0.078000
      6 C20         1.0400   -1.5810    0.0210 cu        1 P39     -0.146000
      7 C21         2.4390   -1.8970    0.2480 c3        1 P39     -0.086000
      8 C23         9.9770    4.7580    6.2840 c2        1 P39      0.226000
      9 C24        11.1280    4.0930    5.8650 c2        1 P39     -0.329000
     10 C34        12.0760   11.2050    8.9550 c2        1 P39     -0.127000
     11 C27        10.9230    6.8440    7.2330 c2        1 P39      0.147000
     12 C33        11.7240    9.8680    9.3980 c2        1 P39     -0.076000
     13 N1          5.0720    4.9280    5.4520 na        1 P39     -0.034000
     14 N2          4.9480    5.9980    6.2940 nh        1 P39     -0.191000
     15 C3          6.0320    6.4980    6.9560 c1        1 P39      0.037000
     16 N4          7.2830    5.9820    6.8240 n2        1 P39     -0.296000
     17 C5          7.4910    4.9250    6.0090 c2        1 P39      0.272000
     18 C6          6.3620    4.3260    5.2690 c2        1 P39     -0.188000
     19 C7          6.2000    3.2400    4.3700 c2        1 P39     -0.005000
     20 C8          4.8190    3.2010    4.0080 c2        1 P39     -0.190000
     21 C9          4.1470    4.2490    4.6880 c2        1 P39     -0.087000
     22 N13         3.0530    2.6440    2.4250 n         1 P39     -0.436000
     23 C14         3.9810   -0.0490   -0.5390 c2        1 P39     -0.150000
     24 N22         8.7310    4.3380    5.8130 n3        1 P39     -0.251000
     25 C25        12.6990    8.2110    6.2480 c1        1 P39     -0.054000
     26 C26        11.8660    7.1270    6.1770 c2        1 P39     -0.387000
     27 C28        10.0560    5.7890    7.3030 c2        1 P39     -0.298000
     28 C29        11.2550    3.0350    4.9780 c1        1 P39     -0.146000
     29 N30        10.8970    7.8010    8.2980 n3        1 P39     -0.199000
     30 C31        11.7360    8.8540    8.3200 c2        1 P39      0.222000
     31 O32        12.6350    9.0350    7.3220 os        1 P39     -0.060000
     32 C35        11.5650   12.3370    9.4800 c2        1 P39      0.018000
     33 C36        10.5330   12.5830   10.5240 c2        1 P39     -0.249000
     34 C37        10.3500   13.9300   10.7140 c1        1 P39     -0.271000
     35 C38        11.4730    9.5280   10.6730 c2        1 P39     -0.130000
     36 N39        11.9760   13.6530    9.0370 n3        1 P39     -0.235000
     37 C40        14.2050   13.0690    6.6610 c2        1 P39     -0.463000
     38 C41        14.2480   14.3420    6.3630 c1        1 P39      0.253000
     39 O42        14.2340   15.5140    6.1470 o         1 P39     -0.159000
     40 C43        11.4360   16.0350    9.6280 c3        1 P39     -0.222000
     41 C44        11.2940   14.5780    9.7640 c2        1 P39      0.179000
     42 H18        -0.0700    0.0240    1.4000 hc        1 P39      0.159000
     43 H17         3.5470   -0.4650    1.5300 hc        1 P39      0.182000
     44 H15         5.8640    0.7850   -1.0760 ha        1 P39      0.124500
     45 H15A        5.5160    0.6830    0.7490 ha        1 P39      0.124500
     46 H15B        3.6400   -0.2320   -1.5710 ha        1 P39      0.118000
     47 H19        -0.6150   -0.8000   -1.3970 ha        1 P39      0.204000
     48 H20         2.9170   -2.3750   -0.6420 hc        1 P39      0.115000
     49 H21         2.5970   -2.5560    1.1360 hc        1 P39      0.115000
     50 H3          4.0290    6.3770    6.3880 hn        1 P39      0.269000
     51 H9          3.0890    4.5170    4.6750 h4        1 P39      0.182000
     52 HN13        2.7820    3.5920    2.4410 hn        1 P39      0.243500
     53 H14         2.6240    2.0260    1.7500 hn        1 P39      0.243500
     54 HN22        8.7540    3.5830    5.1540 hn        1 P39      0.259000
     55 H25        12.0660    4.4300    6.3490 ha        1 P39      0.161000
     56 H26        11.8950    6.4490    5.3150 ha        1 P39      0.184000
     57 H28         9.3510    5.6910    8.1470 ha        1 P39      0.161000
     58 H29        12.6710    3.9230    3.4140 ha        1 P39      0.004250
     59 H29A       12.1630    4.3120    3.1840 ha        1 P39      0.004250
     60 H29B       10.4380    2.7840    4.2860 ha        1 P39      0.021000
     61 HN30       10.1960    7.6970    9.0060 hn        1 P39      0.265000
     62 H36        10.0040   11.7670   11.0070 ha        1 P39      0.152000
     63 H37        11.5100   10.2760   11.4820 ha        1 P39      0.145500
     64 H38        11.2430    8.5030   10.9930 ha        1 P39      0.145500
     65 H40        12.6500   13.7860    8.3190 hn        1 P39      0.251000
     66 H40A       14.8930   12.6290    7.3930 ha        1 P39      0.188500
     67 H41        13.4460   17.4870    7.4260 ha        1 P39      0.004250
     68 H41A       13.5690   12.3700    6.1030 ha        1 P39      0.188500
     69 H43        11.7290   16.4530   10.6280 hc        1 P39      0.125000
     70 H43A       12.1830   16.3520    8.8600 hc        1 P39      0.125000
     71 H44        13.7250   17.7830    6.8840 ha        1 P39      0.004250
     72 H44A       10.4310   16.4620    9.3690 hc        1 P39      0.125000
     73 C11         4.1710    2.2370    3.1020 c2        1 P39      0.372000
     74 C10         7.2280    2.3150    3.8860 c3        1 P39     -0.191000
     75 O12         4.6020    1.0670    2.9600 o         1 P39     -0.412000
     76 H34        12.8110   11.2410    8.1240 ha        1 P39      0.164000
     77 H10         8.0240    2.8590    3.3150 hc        1 P39      0.105667
     78 H10A        6.7710    1.5510    3.2020 hc        1 P39      0.105667
     79 H10B        7.7010    1.7630    4.7380 hc        1 P39      0.105667
@<TRIPOS>BOND
     1    1    2 1   
     2    1    5 1   
     3    1    6 1   
     4    1   42 1   
     5    2    3 1   
     6    3    7 1   
     7    3   23 1   
     8    3   43 1   
     9    4   23 1   
    10    4   44 1   
    11    4   45 1   
    12    5    6 1   
    13    5   47 1   
    14    6    7 1   
    15    7   48 1   
    16    7   49 1   
    17    8    9 1   
    18    8   24 1   
    19    8   27 1   
    20    9   28 1   
    21    9   55 1   
    22   10   12 1   
    23   10   32 1   
    24   10   76 1   
    25   11   26 1   
    26   11   27 1   
    27   11   29 1   
    28   12   30 1   
    29   12   35 1   
    30   13   14 1   
    31   13   18 1   
    32   13   21 1   
    33   14   15 1   
    34   14   50 1   
    35   15   16 1   
    36   16   17 1   
    37   17   18 1   
    38   17   24 1   
    39   18   19 1   
    40   19   20 1   
    41   19   74 1   
    42   20   21 1   
    43   20   73 1   
    44   21   51 1   
    45   22   52 1   
    46   22   53 1   
    47   22   73 1   
    48   23   46 1   
    49   24   54 1   
    50   25   26 1   
    51   25   31 1   
    52   26   56 1   
    53   27   57 1   
    54   28   60 1   
    55   29   30 1   
    56   29   61 1   
    57   30   31 1   
    58   32   33 1   
    59   32   36 1   
    60   33   34 1   
    61   33   62 1   
    62   34   41 1   
    63   35   63 1   
    64   35   64 1   
    65   36   41 1   
    66   36   65 1   
    67   37   38 1   
    68   37   66 1   
    69   37   68 1   
    70   38   39 1   
    71   40   41 1   
    72   40   69 1   
    73   40   70 1   
    74   40   72 1   
    75   58   59 1   
    76   67   71 1   
    77   73   75 1   
    78   74   77 1   
    79   74   78 1   
    80   74   79 1   
@<TRIPOS>SUBSTRUCTURE
     1 P39         1 TEMP              0 ****  ****    0 ROOT
