@<TRIPOS>MOLECULE
P39
   79    67     1     0     0
SMALL
bcc


@<TRIPOS>ATOM
      1 C18        -8.4210   -2.6410   -3.2730 c1        1 P39     -0.130500
      2 C17        -7.3150   -3.3670   -3.7470 c1        1 P39     -0.113000
      3 C16        -7.0530   -4.6300   -3.2500 c1        1 P39     -0.099000
      4 C15        -6.0080   -6.6330   -4.2300 c3        1 P39     -0.220000
      5 C19        -9.2530   -3.1930   -2.3040 c1        1 P39     -0.130500
      6 C20        -8.9910   -4.4630   -1.8050 c1        1 P39     -0.130500
      7 C21        -7.8900   -5.1860   -2.2760 c1        1 P39     -0.130500
      8 C23         2.1420   -1.7990    0.4250 c1        1 P39      0.076000
      9 C24         3.3870   -2.3840    0.5470 c1        1 P39     -0.125000
     10 C11        -3.5010   -4.8500   -2.7720 c1        1 P39      0.383000
     11 C34         4.1230    5.1280    1.8360 c1        1 P39     -0.108000
     12 C27         2.9890    0.2320    1.4480 c1        1 P39      0.089000
     13 C33         3.1600    4.1680    2.1090 c1        1 P39     -0.104000
     14 N1         -2.0630   -4.2420    0.6080 n1        1 P39     -0.003000
     15 N2         -1.9980   -4.1270    1.9790 n1        1 P39     -0.122000
     16 C3         -0.8880   -3.6040    2.5660 c1        1 P39     -0.021000
     17 N4          0.1760   -3.1870    1.7870 n1        1 P39     -0.263000
     18 C5          0.1140   -3.2980    0.4490 c1        1 P39      0.238000
     19 C6         -1.0230   -3.8340   -0.1540 c1        1 P39     -0.196000
     20 C7         -1.4070   -3.9390   -1.5110 c1        1 P39     -0.034000
     21 C8         -2.6980   -4.4180   -1.5530 c2        1 P39     -0.194000
     22 C9         -3.1210   -4.6110   -0.2560 c1        1 P39     -0.034000
     23 C10        -0.7540   -3.5640   -2.8310 c2        1 P39     -0.181500
     24 O12        -2.9670   -4.8770   -3.8820 o         1 P39     -0.377000
     25 N13        -4.8240   -5.3170   -2.6150 n2        1 P39     -0.377000
     26 C14        -5.7470   -5.2530   -3.7170 c3        1 P39      0.060000
     27 N22         1.0950   -2.4840   -0.2880 n2        1 P39     -0.247000
     28 C25         4.4440   -1.6670    1.1200 c2        1 P39     -0.091000
     29 C26         4.2410   -0.3580    1.5700 c1        1 P39     -0.158000
     30 C28         1.9370   -0.4790    0.8780 c2        1 P39     -0.165000
     31 C29         3.8130   -3.8130    0.3400 c2        1 P39     -0.181500
     32 N30         2.6200    1.6100    1.8910 n         1 P39     -0.322000
     33 C31         3.5500    2.7320    1.6630 c2        1 P39      0.355000
     34 O32         4.6280    2.5320    1.1080 o         1 P39     -0.345000
     35 C35         3.9560    6.4150    2.2860 c1        1 P39      0.053000
     36 C36         2.8380    6.7500    3.0050 c1        1 P39     -0.130500
     37 C37         1.8840    5.7990    3.2740 c1        1 P39     -0.130500
     38 C38         2.0510    4.5010    2.8210 c1        1 P39     -0.136000
     39 N39         4.9180    7.4510    1.9080 n3        1 P39     -0.234000
     40 C40         5.5380    7.9710    3.0800 c3        1 P39     -0.088500
     41 C41         6.4380    9.1580    2.7810 c3        1 P39     -0.027000
     42 O42         5.7700   10.1710    2.0100 os        1 P39     -0.269000
     43 C43         5.1590    9.6560    0.8470 c3        1 P39     -0.027000
     44 C44         4.2540    8.4570    1.1440 c3        1 P39     -0.088500
     45 H18        -8.5980   -1.7830   -3.6110 ha        1 P39      0.133167
     46 H17        -6.7000   -2.9580   -4.4640 ha        1 P39      0.140000
     47 H15        -5.3090   -6.8760   -4.9020 hc        1 P39      0.083000
     48 H15A       -5.9810   -7.2610   -3.4950 hc        1 P39      0.083000
     49 H15B       -6.8970   -6.6620   -4.6550 hc        1 P39      0.083000
     50 H19       -10.0620   -2.6610   -1.9580 ha        1 P39      0.133167
     51 H20        -9.5740   -4.8500   -1.1250 ha        1 P39      0.133167
     52 H21        -7.7060   -6.0790   -1.9240 ha        1 P39      0.133167
     53 H34         4.9010    4.8950    1.3360 ha        1 P39      0.158000
     54 H3         -0.8420   -3.5210    3.5530 ha        1 P39      0.201000
     55 H9         -4.0170   -4.9940    0.0280 DU        1 P39      0.189000
     56 H10        -0.9630   -4.2320   -3.4950 ha        1 P39      0.092333
     57 H10A        0.1850   -3.5170   -2.7170 ha        1 P39      0.092333
     58 H10B       -1.0860   -2.7050   -3.1230 ha        1 P39      0.092333
     59 HN13       -5.1040   -5.6230   -1.8090 hn        1 P39      0.220000
     60 H14        -5.3800   -4.7290   -4.4040 h1        1 P39      0.135000
     61 HN22        1.0110   -2.3740   -1.1660 hn        1 P39      0.249000
     62 H25         5.3190   -2.0780    1.2050 ha        1 P39      0.138000
     63 H26         4.9560    0.1240    1.9570 ha        1 P39      0.176000
     64 H28         1.0620   -0.0670    0.7930 ha        1 P39      0.153000
     65 H29         4.0350   -3.9570   -0.6200 ha        1 P39      0.092333
     66 H29A        4.6060   -4.0030    0.8930 ha        1 P39      0.092333
     67 H29B        3.0850   -4.4110    0.5980 ha        1 P39      0.092333
     68 HN30        1.8220    1.7600    2.2690 hn        1 P39      0.238000
     69 H36         2.7150    7.6880    3.3330 ha        1 P39      0.133167
     70 H37         1.1110    6.0320    3.7710 ha        1 P39      0.133167
     71 H38         1.3620    3.8160    3.0160 ha        1 P39      0.140000
     72 H40         4.8360    8.2560    3.7120 h1        1 P39      0.089250
     73 H40A        6.0700    7.2680    3.4950 h1        1 P39      0.089250
     74 H41         7.1990    8.8530    2.2960 h1        1 P39      0.097250
     75 H41A        6.7440    9.5570    3.6460 h1        1 P39      0.097250
     76 H43         5.8530    9.3790    0.2220 h1        1 P39      0.097250
     77 H43A        4.6090   10.3810    0.4210 h1        1 P39      0.097250
     78 H44         3.4850    8.7610    1.6340 h1        1 P39      0.089250
     79 H44A        3.9500    8.0590    0.2770 h1        1 P39      0.089250
@<TRIPOS>BOND
     1    1    5 1   
     2    1   45 1   
     3    2    3 1   
     4    2   46 1   
     5    3   26 1   
     6    4   26 1   
     7    4   47 1   
     8    4   48 1   
     9    4   49 1   
    10    5   50 1   
    11    6    7 1   
    12    6   51 1   
    13    7   52 1   
    14    8    9 1   
    15    8   30 1   
    16    9   28 1   
    17   10   21 1   
    18   10   24 1   
    19   11   35 1   
    20   11   53 1   
    21   12   30 1   
    22   12   32 1   
    23   13   33 1   
    24   13   38 1   
    25   14   19 1   
    26   15   16 1   
    27   16   54 1   
    28   17   18 1   
    29   18   27 1   
    30   20   21 1   
    31   21   22 1   
    32   23   56 1   
    33   23   57 1   
    34   23   58 1   
    35   25   26 1   
    36   25   59 1   
    37   26   60 1   
    38   27   61 1   
    39   28   29 1   
    40   28   62 1   
    41   29   63 1   
    42   30   64 1   
    43   31   65 1   
    44   31   66 1   
    45   31   67 1   
    46   32   33 1   
    47   32   68 1   
    48   33   34 1   
    49   35   39 1   
    50   36   37 1   
    51   36   69 1   
    52   37   70 1   
    53   38   71 1   
    54   39   40 1   
    55   39   44 1   
    56   40   41 1   
    57   40   72 1   
    58   40   73 1   
    59   41   42 1   
    60   41   74 1   
    61   41   75 1   
    62   42   43 1   
    63   43   44 1   
    64   43   76 1   
    65   43   77 1   
    66   44   78 1   
    67   44   79 1   
@<TRIPOS>SUBSTRUCTURE
     1 P39         1 TEMP              0 ****  ****    0 ROOT
