@<TRIPOS>MOLECULE
P39
   79    84     1     0     0
SMALL
bcc


@<TRIPOS>ATOM
      1 C18       -10.4450    2.8380   -2.1400 ca        1 P39     -0.129500
      2 C17        -9.8340    1.5900   -2.0280 ca        1 P39     -0.120000
      3 C16        -9.5120    1.0770   -0.7670 ca        1 P39     -0.106300
      4 C15        -9.7860   -1.2200    0.1270 c3        1 P39     -0.102100
      5 C19       -10.7320    3.5830   -0.9970 ca        1 P39     -0.126000
      6 C20       -10.4070    3.0780    0.2620 ca        1 P39     -0.129500
      7 C21        -9.7980    1.8290    0.3770 ca        1 P39     -0.120000
      8 C23         0.4230   -2.1650    0.4960 ca        1 P39      0.157600
      9 C24         0.6460   -3.5530    0.6910 ca        1 P39     -0.132300
     10 C34         7.2230    0.1880    0.0290 ca        1 P39     -0.108000
     11 C27         2.8210   -1.7390    0.7530 ca        1 P39      0.081600
     12 C33         6.0980    0.1740    0.8530 ca        1 P39     -0.124600
     13 N1         -3.5470    0.6910    1.2210 na        1 P39      0.218200
     14 N2         -2.8910    1.4910    2.0760 nc        1 P39     -0.554800
     15 C3         -1.6060    1.1820    2.2750 cd        1 P39      0.641900
     16 N4         -0.8570    0.1530    1.7300 nd        1 P39     -0.789000
     17 C5         -1.5090   -0.6590    0.8640 cc        1 P39      0.759200
     18 C6         -2.9260   -0.4240    0.5580 cc        1 P39     -0.285600
     19 C7         -3.8970   -1.0340   -0.2680 cd        1 P39     -0.018200
     20 C8         -5.1100   -0.2950   -0.0960 cd        1 P39     -0.213200
     21 C9         -4.8690    0.7580    0.8200 cc        1 P39     -0.082100
     22 N13        -7.5370   -0.2010   -0.0730 n         1 P39     -0.567900
     23 C14        -8.8590   -0.2830   -0.6560 c3        1 P39      0.144000
     24 N22        -0.8840   -1.7050    0.2110 nh        1 P39     -0.726300
     25 C25         1.9520   -3.9940    0.9050 ca        1 P39     -0.091000
     26 C26         3.0310   -3.1190    0.9450 ca        1 P39     -0.158000
     27 C28         1.5070   -1.2740    0.5150 ca        1 P39     -0.165000
     28 C29        -0.4670   -4.5300    0.6660 c3        1 P39     -0.053800
     29 N30         3.8560   -0.7920    0.7970 n         1 P39     -0.468100
     30 C31         5.2230   -1.0380    0.8100 c         1 P39      0.681700
     31 O32         5.7090   -2.1830    0.7730 o         1 P39     -0.584100
     32 C35         8.1030    1.2970    0.0350 ca        1 P39      0.134600
     33 C36         7.8070    2.3730    0.9010 ca        1 P39     -0.161000
     34 C37         6.6800    2.3400    1.7180 ca        1 P39     -0.110000
     35 C38         5.8190    1.2460    1.7050 ca        1 P39     -0.136000
     36 N39         9.1870    1.3260   -0.8780 nh        1 P39     -0.632000
     37 C40        10.0660    0.1630   -0.8420 c3        1 P39      0.148300
     38 C41        11.1110    0.1970   -1.9640 c3        1 P39      0.123400
     39 O42        11.8320    1.4230   -1.9760 os        1 P39     -0.412600
     40 C43        10.9680    2.5480   -2.0920 c3        1 P39      0.123400
     41 C44         9.9230    2.5770   -0.9690 c3        1 P39      0.148300
     42 H18       -10.6990    3.2350   -3.1340 ha        1 P39      0.132500
     43 H17        -9.6010    1.0090   -2.9340 ha        1 P39      0.133500
     44 H15       -10.7780   -1.2500   -0.3810 hc        1 P39      0.043700
     45 H15A       -9.3630   -2.2530    0.1550 hc        1 P39      0.043700
     46 H15B       -9.9320   -0.8630    1.1750 hc        1 P39      0.043700
     47 H19       -11.2130    4.5680   -1.0870 ha        1 P39      0.132000
     48 H20       -10.6320    3.6640    1.1650 ha        1 P39      0.132500
     49 H21        -9.5510    1.4310    1.3720 ha        1 P39      0.133500
     50 H3         -1.0540    1.8360    2.9830 h5        1 P39      0.064100
     51 H9         -5.5370    1.5440    1.1810 h4        1 P39      0.189000
     52 HN13       -7.4560    0.2680    0.7960 hn        1 P39      0.306500
     53 H14        -8.7390   -0.7140   -1.7000 h1        1 P39      0.095700
     54 HN22       -1.4860   -2.3690   -0.2290 hn        1 P39      0.453800
     55 H25         2.1370   -5.0700    1.0540 ha        1 P39      0.138000
     56 H26         4.0430   -3.5180    1.1250 ha        1 P39      0.176000
     57 H28         1.3310   -0.1980    0.3480 ha        1 P39      0.153000
     58 H29        -0.9360   -4.5730   -0.3490 hc        1 P39      0.044700
     59 H29A       -0.1030   -5.5570    0.9190 hc        1 P39      0.044700
     60 H29B       -1.2570   -4.2520    1.4090 hc        1 P39      0.044700
     61 HN30        3.5690    0.1630    0.7640 hn        1 P39      0.324500
     62 H36         8.4630    3.2560    0.9500 ha        1 P39      0.138000
     63 H37         6.4740    3.1880    2.3880 ha        1 P39      0.137000
     64 H38         4.9470    1.2260    2.3740 ha        1 P39      0.140000
     65 H40        10.6060    0.0980    0.1470 h1        1 P39      0.049950
     66 H40A        9.4460   -0.7670   -0.9640 h1        1 P39      0.049950
     67 H41        11.8930   -0.5860   -1.7820 h1        1 P39      0.057950
     68 H41A       10.6270    0.0350   -2.9630 h1        1 P39      0.057950
     69 H43        11.6490    3.4350   -2.0030 h1        1 P39      0.057950
     70 H43A       10.4710    2.5390   -3.0970 h1        1 P39      0.057950
     71 H44         9.1900    3.4020   -1.1890 h1        1 P39      0.049950
     72 H44A       10.4510    2.8180    0.0000 h1        1 P39      0.049950
     73 C11        -6.3930   -0.5580   -0.7650 c         1 P39      0.708300
     74 C10        -3.7150   -2.1950   -1.1430 c3        1 P39     -0.061900
     75 O12        -6.4670   -1.1020   -1.8870 o         1 P39     -0.616100
     76 H34         7.4090   -0.6810   -0.6230 ha        1 P39      0.158000
     77 H10        -3.4560   -3.1080   -0.5480 hc        1 P39      0.061367
     78 H10A       -4.6580   -2.4060   -1.7130 hc        1 P39      0.061367
     79 H10B       -2.9020   -2.0040   -1.8900 hc        1 P39      0.061367
@<TRIPOS>BOND
     1    1    2 ar  
     2    1    5 ar  
     3    1   42 1   
     4    2    3 ar  
     5    2   43 1   
     6    3    7 ar  
     7    3   23 1   
     8    4   23 1   
     9    4   44 1   
    10    4   45 1   
    11    4   46 1   
    12    5    6 ar  
    13    5   47 1   
    14    6    7 ar  
    15    6   48 1   
    16    7   49 1   
    17    8    9 ar  
    18    8   24 1   
    19    8   27 ar  
    20    9   25 ar  
    21    9   28 1   
    22   10   12 ar  
    23   10   32 ar  
    24   10   76 1   
    25   11   26 ar  
    26   11   27 ar  
    27   11   29 1   
    28   12   30 1   
    29   12   35 ar  
    30   13   14 1   
    31   13   18 1   
    32   13   21 1   
    33   14   15 2   
    34   15   16 1   
    35   15   50 1   
    36   16   17 2   
    37   17   18 1   
    38   17   24 1   
    39   18   19 2   
    40   19   20 1   
    41   19   74 1   
    42   20   21 2   
    43   20   73 1   
    44   21   51 1   
    45   22   23 1   
    46   22   52 1   
    47   22   73 1   
    48   23   53 1   
    49   24   54 1   
    50   25   26 ar  
    51   25   55 1   
    52   26   56 1   
    53   27   57 1   
    54   28   58 1   
    55   28   59 1   
    56   28   60 1   
    57   29   30 1   
    58   29   61 1   
    59   30   31 2   
    60   32   33 ar  
    61   32   36 1   
    62   33   34 ar  
    63   33   62 1   
    64   34   35 ar  
    65   34   63 1   
    66   35   64 1   
    67   36   37 1   
    68   36   41 1   
    69   37   38 1   
    70   37   65 1   
    71   37   66 1   
    72   38   39 1   
    73   38   67 1   
    74   38   68 1   
    75   39   40 1   
    76   40   41 1   
    77   40   69 1   
    78   40   70 1   
    79   41   71 1   
    80   41   72 1   
    81   73   75 2   
    82   74   77 1   
    83   74   78 1   
    84   74   79 1   
@<TRIPOS>SUBSTRUCTURE
     1 P39         1 TEMP              0 ****  ****    0 ROOT
