@<TRIPOS>MOLECULE
P39
   80    78     1     0     0
SMALL
bcc


@<TRIPOS>ATOM
      1 C18         0.6490   -1.8510   -0.0200 c1        1 P39     -0.014000
      2 C17         1.7580   -0.9830    0.2870 c3        1 P39     -0.244000
      3 C16         2.3370   -0.9990    1.7090 c3        1 P39     -0.192000
      4 C15         4.5540   -0.9840    2.9040 c3        1 P39     -0.244000
      5 C19        -0.4490    0.0650    3.9740 c1        1 P39      0.471000
      6 C20         0.3010   -0.6760    3.1490 c2        1 P39     -0.530000
      7 C21         1.5020   -0.2040    2.6160 c1        1 P39     -0.129000
      8 C23         9.7980    6.0800    4.3910 c2        1 P39      0.004000
      9 C24        11.0980    5.4320    4.6190 c2        1 P39     -0.134000
     10 C34         9.9830   11.5850    7.5780 c2        1 P39     -0.269000
     11 C27        10.7070    8.3520    4.9260 c2        1 P39      0.117000
     12 C33         9.3240   10.3270    7.8730 c2        1 P39     -0.100000
     13 N1          5.2890    4.1130    4.4310 na        1 P39      0.007000
     14 N2          4.9600    4.8450    5.5420 nu        1 P39     -0.235000
     15 C3          5.8430    5.7360    6.1010 c1        1 P39      0.123000
     16 N4          7.0860    5.8990    5.6080 n7        1 P39     -0.291000
     17 C5          7.5800    5.1820    4.4650 c2        1 P39      0.149000
     18 C6          6.5940    4.2440    3.8630 c2        1 P39     -0.091000
     19 C7          6.6850    3.3780    2.7610 c2        1 P39      0.058000
     20 C8          5.4080    2.7010    2.6630 c2        1 P39     -0.296000
     21 C9          4.5760    3.1870    3.7200 c2        1 P39     -0.068000
     22 N13         3.7100    1.0880    1.7750 ny        1 P39     -0.102000
     23 C14         3.7730   -0.4170    1.7270 c3        1 P39     -0.042000
     24 C25        12.9870    8.3610    3.6400 c2        1 P39     -0.107000
     25 C26        11.8710    8.3490    4.2960 c1        1 P39     -0.243000
     26 C28         9.6360    7.4210    4.5540 c2        1 P39     -0.126000
     27 C29        11.5080    4.2950    4.0570 c2        1 P39     -0.180000
     28 N30        10.4490    9.2970    5.9430 ns        1 P39     -0.314000
     29 C31         9.3850    9.2550    6.8280 c2        1 P39      0.362000
     30 O32         8.5110    8.3620    6.7700 o         1 P39     -0.410000
     31 C35        10.8310   12.2330    8.4220 c2        1 P39      0.147000
     32 C36        11.2980   11.6770    9.6910 c2        1 P39     -0.470000
     33 C37        12.1800   12.2230   10.5200 c1        1 P39      0.222000
     34 C38         8.6180   10.0920    8.9890 c2        1 P39     -0.139000
     35 N39        11.3070   13.5350    8.1210 n7        1 P39     -0.180000
     36 C40        15.1980   13.0890   12.3130 c3        1 P39     -0.280000
     37 C41        16.5990   16.9840   10.8670 c1        1 P39      0.222000
     38 O42        15.6950   16.2370   10.8760 o         1 P39     -0.221000
     39 C43        13.1290   14.3930    9.6910 c1        1 P39     -0.145000
     40 C44        12.3030   14.0030    8.9040 c1        1 P39     -0.129000
     41 H18         1.4480    0.0650    0.0010 hc        1 P39      0.161500
     42 H17         2.5650   -1.2840   -0.4510 hc        1 P39      0.161500
     43 H15         4.3090   -0.6830    0.7660 hx        1 P39      0.151000
     44 H15A        5.5820   -0.5470    2.9530 hc        1 P39      0.112667
     45 H15B        4.6540   -2.0890    2.7640 hc        1 P39      0.112667
     46 H19         0.2900   -2.5430    0.7560 ha        1 P39      0.056000
     47 H20        -0.0810   -1.7010    2.9170 ha        1 P39      0.190000
     48 H21         2.4220   -2.0770    2.0370 hc        1 P39      0.133000
     49 H3          4.0030    4.8200    5.8290 hn        1 P39      0.283000
     50 H9          3.5460    2.9330    3.9830 h4        1 P39      0.178000
     51 HN13        3.2230    1.3480    2.6440 hn        1 P39      0.253500
     52 H14         4.0280   -0.7930    3.8700 hc        1 P39      0.112667
     53 HN22        7.6940    6.5570    6.0710 hn        1 P39      0.317000
     54 H25        11.7530    5.9920    5.3110 ha        1 P39      0.142000
     55 H26        13.8570    7.7580    3.9460 ha        1 P39      0.134000
     56 H28         8.6530    7.9030    4.3990 ha        1 P39      0.152000
     57 H29        10.9050    3.7120    3.3480 ha        1 P39      0.119000
     58 H29A       12.5000    3.8760    4.2740 ha        1 P39      0.119000
     59 H29B       13.1310    8.9670    2.7320 ha        1 P39      0.134000
     60 HN30       11.1390   10.0040    6.0740 hn        1 P39      0.248000
     61 H36        10.8670   10.6910    9.9670 ha        1 P39      0.200000
     62 H37         8.5130   10.8470    9.7810 ha        1 P39      0.137000
     63 H38         8.0990    9.1370    9.1560 ha        1 P39      0.137000
     64 H40        15.8870   12.2210   12.2380 hc        1 P39      0.070000
     65 H40A       14.2290   12.8430   11.8210 hc        1 P39      0.070000
     66 H41        15.0200   13.3300   13.3840 hc        1 P39      0.070000
     67 H41A       15.6540   13.9710   11.8090 hc        1 P39      0.070000
     68 H43        13.8580   14.7650   10.3740 ha        1 P39      0.265000
     69 H43A       13.7610   16.0340   12.4390 ha        1 P39      0.000500
     70 H44        11.3200   13.8100    7.1610 hn        1 P39      0.240000
     71 H44A       14.0050   15.4140   12.5630 ha        1 P39      0.000500
     72 C11         5.0820    1.7380    1.6640 c2        1 P39      0.355000
     73 C10         7.8500    3.2040    1.8930 c3        1 P39     -0.188000
     74 O12         5.7350    1.3520    0.6980 o         1 P39     -0.237000
     75 H10         8.7380    2.8780    2.4960 hc        1 P39      0.118000
     76 H10A        7.6600    2.4450    1.0940 hc        1 P39      0.118000
     77 H10B        8.1150    4.1790    1.4050 hc        1 P39      0.118000
     78 H132        3.1320    1.4000    0.9880 hn        1 P39      0.253500
     79 N22         8.7610    5.2400    3.9260 n2        1 P39     -0.166000
     80 H34         9.7070   12.0320    6.6070 ha        1 P39      0.143000
@<TRIPOS>BOND
     1    1    2 1   
     2    1   46 1   
     3    2    3 1   
     4    2   41 1   
     5    2   42 1   
     6    3    7 1   
     7    3   23 1   
     8    3   48 1   
     9    4   23 1   
    10    4   44 1   
    11    4   45 1   
    12    4   52 1   
    13    5    6 1   
    14    6    7 1   
    15    6   47 1   
    16    8    9 1   
    17    8   26 1   
    18    8   79 1   
    19    9   27 1   
    20    9   54 1   
    21   10   12 1   
    22   10   31 1   
    23   10   80 1   
    24   11   25 1   
    25   11   26 1   
    26   11   28 1   
    27   12   29 1   
    28   12   34 1   
    29   13   14 1   
    30   13   18 1   
    31   13   21 1   
    32   14   15 1   
    33   14   49 1   
    34   15   16 1   
    35   16   17 1   
    36   16   53 1   
    37   17   18 1   
    38   17   79 1   
    39   18   19 1   
    40   19   20 1   
    41   19   73 1   
    42   20   21 1   
    43   20   72 1   
    44   21   50 1   
    45   22   23 1   
    46   22   51 1   
    47   22   72 1   
    48   22   78 1   
    49   23   43 1   
    50   24   25 1   
    51   24   55 1   
    52   24   59 1   
    53   26   56 1   
    54   27   57 1   
    55   27   58 1   
    56   28   29 1   
    57   28   60 1   
    58   29   30 1   
    59   31   32 1   
    60   31   35 1   
    61   32   33 1   
    62   32   61 1   
    63   34   62 1   
    64   34   63 1   
    65   35   40 1   
    66   35   70 1   
    67   36   64 1   
    68   36   65 1   
    69   36   66 1   
    70   36   67 1   
    71   37   38 1   
    72   39   40 1   
    73   39   68 1   
    74   69   71 1   
    75   72   74 1   
    76   73   75 1   
    77   73   76 1   
    78   73   77 1   
@<TRIPOS>SUBSTRUCTURE
     1 P39         1 TEMP              0 ****  ****    0 ROOT
