@<TRIPOS>MOLECULE
P3B
   43    44     1     0     0
SMALL
bcc


@<TRIPOS>ATOM
      1 OAH         0.1170    1.7360   -1.5790 oh        1 P3B     -0.822400
      2 PBA         0.8040    0.6440   -0.5900 p5        1 P3B      1.440800
      3 OAI        -0.0880    0.4660    0.5820 o         1 P3B     -0.864500
      4 OAC         1.2670   -0.5070   -1.4030 o         1 P3B     -0.864500
      5 OAQ         2.1000    1.5390   -0.1050 os        1 P3B     -0.591200
      6 CAM         3.3000    1.4620   -0.8220 c3        1 P3B      0.262600
      7 CAV         3.6300    2.7330   -1.5550 ce        1 P3B     -0.314300
      8 CAL         2.5480    3.3270   -2.2440 c1        1 P3B     -0.149900
      9 NAP         2.7160    4.4900   -2.8920 nh        1 P3B     -0.163600
     10 CAU         3.9240    5.1850   -2.8860 c2        1 P3B     -0.192300
     11 CAA         4.0270    6.5120   -3.5490 c3        1 P3B     -0.020900
     12 CAW         5.0140    4.5970   -2.2540 ce        1 P3B      0.080100
     13 OAE         6.1550    5.3760   -2.2730 oh        1 P3B     -0.566100
     14 CAX         4.9290    3.2920   -1.6050 ce        1 P3B      0.086000
     15 CAJ         6.0790    2.6310   -1.0900 cf        1 P3B     -0.201400
     16 NAO         7.3260    3.1010   -1.2880 nf        1 P3B     -0.577300
     17 CAT         8.4730    2.6150   -0.8750 ce        1 P3B      0.226600
     18 CAK         8.7320    1.4370   -0.0530 ce        1 P3B     -0.175600
     19 CAS         9.9250    1.1610    0.5080 cf        1 P3B     -0.225400
     20 CAR        10.2040   -0.0660    1.3450 c         1 P3B      0.906800
     21 OAD         9.4200   -1.0580    1.2990 o         1 P3B     -0.867800
     22 OAB        11.2510   -0.0740    2.0720 o         1 P3B     -0.867800
     23 CAN        11.1010    2.0500    0.3370 c3        1 P3B     -0.049200
     24 CAY        10.7300    3.4370   -0.1690 c3        1 P3B      0.133100
     25 OAF        11.8910    4.1360   -0.6340 oh        1 P3B     -0.620800
     26 CAZ         9.7410    3.3240   -1.3420 c3        1 P3B      0.144800
     27 OAG         9.5700    4.6410   -1.8560 oh        1 P3B     -0.625800
     28 H3          4.1070    1.2380   -0.0670 h1        1 P3B      0.030700
     29 H4          3.2380    0.6110   -1.5620 h1        1 P3B      0.030700
     30 H5          0.7550    2.3520   -1.9560 ho        1 P3B      0.468000
     31 H6          4.8660    7.0990   -3.0990 hc        1 P3B      0.019700
     32 H7          3.0830    7.1030   -3.4420 hc        1 P3B      0.019700
     33 H8          4.2360    6.3840   -4.6410 hc        1 P3B      0.019700
     34 H9          6.8320    4.9310   -1.7320 ho        1 P3B      0.461000
     35 H10         5.9190    1.6870   -0.5430 h4        1 P3B      0.121000
     36 H11         7.8880    0.7440    0.1110 ha        1 P3B      0.142000
     37 H13        11.8160    1.5730   -0.3880 hc        1 P3B      0.039200
     38 H14        10.2660    4.0550    0.6480 h1        1 P3B      0.040700
     39 H15        12.6160    3.8520   -0.0670 ho        1 P3B      0.371000
     40 H16        10.2160    2.7030   -2.1580 h1        1 P3B      0.014700
     41 H17         8.7570    4.6430   -2.3740 ho        1 P3B      0.406000
     42 H18         1.9520    4.8930   -3.3740 hn        1 P3B      0.256700
     43 H19        11.6400    2.1360    1.3200 hc        1 P3B      0.039200
@<TRIPOS>BOND
     1    1    2 1   
     2    1   30 1   
     3    2    3 1   
     4    2    4 1   
     5    2    5 1   
     6    5    6 1   
     7    6    7 1   
     8    6   28 1   
     9    6   29 1   
    10    7    8 2   
    11    7   14 1   
    12    8    9 2   
    13    9   10 1   
    14    9   42 1   
    15   10   11 1   
    16   10   12 2   
    17   11   31 1   
    18   11   32 1   
    19   11   33 1   
    20   12   13 1   
    21   12   14 1   
    22   13   34 1   
    23   14   15 2   
    24   15   16 1   
    25   15   35 1   
    26   16   17 2   
    27   17   18 1   
    28   17   26 1   
    29   18   19 2   
    30   18   36 1   
    31   19   20 1   
    32   19   23 1   
    33   20   21 1   
    34   20   22 1   
    35   23   24 1   
    36   23   37 1   
    37   23   43 1   
    38   24   25 1   
    39   24   26 1   
    40   24   38 1   
    41   25   39 1   
    42   26   27 1   
    43   26   40 1   
    44   27   41 1   
@<TRIPOS>SUBSTRUCTURE
     1 P3B         1 TEMP              0 ****  ****    0 ROOT
