@<TRIPOS>MOLECULE
P3B
   43    44     1     0     0
SMALL
bcc


@<TRIPOS>ATOM
      1 OAH         0.0940    1.9680   -1.3250 oh        1 P3B     -0.822400
      2 PBA         0.7660    0.9630   -0.2380 p5        1 P3B      1.439800
      3 OAI        -0.0690    0.9910    0.9880 o         1 P3B     -0.863500
      4 OAC         1.1140   -0.3070   -0.9210 o         1 P3B     -0.863500
      5 OAQ         2.1390    1.8210    0.0700 os        1 P3B     -0.591200
      6 CAM         3.2880    1.5800   -0.6940 c3        1 P3B      0.260600
      7 CAV         3.6530    2.7360   -1.5830 ce        1 P3B     -0.312300
      8 CAL         2.5770    3.3030   -2.3070 c1        1 P3B     -0.149900
      9 NAP         2.7810    4.3810   -3.0790 nu        1 P3B     -0.161600
     10 CAU         4.0210    5.0080   -3.1850 c2        1 P3B     -0.195300
     11 CAA         4.1640    6.2530   -3.9860 c3        1 P3B     -0.019900
     12 CAW         5.0980    4.4540   -2.5030 ce        1 P3B      0.084100
     13 OAE         6.2660    5.1800   -2.6220 oh        1 P3B     -0.571100
     14 CAX         4.9710    3.2310   -1.7160 ce        1 P3B      0.086000
     15 CAJ         6.1040    2.5600   -1.1720 cf        1 P3B     -0.197400
     16 NAO         7.3370    3.0920   -1.2290 nf        1 P3B     -0.576300
     17 CAT         8.4840    2.6080   -0.8130 ce        1 P3B      0.226600
     18 CAK         8.7920    1.3120   -0.2160 ce        1 P3B     -0.183600
     19 CAS         9.9840    0.9970    0.3280 cf        1 P3B     -0.220400
     20 CAR        10.3060   -0.3680    0.8940 c         1 P3B      0.906800
     21 OAD         9.7000   -1.3900    0.4560 o         1 P3B     -0.866800
     22 OAB        11.2090   -0.4570    1.7870 o         1 P3B     -0.866800
     23 CAN        11.1070    1.9690    0.4160 c3        1 P3B     -0.016200
     24 CAY        10.6250    3.3960    0.2080 c3        1 P3B      0.111100
     25 OAF        11.7670    4.2410    0.0570 oh        1 P3B     -0.641800
     26 CAZ         9.7160    3.4700   -1.0340 c3        1 P3B      0.104800
     27 OAG         9.4860    4.8470   -1.3250 oh        1 P3B     -0.648800
     28 H3          4.1230    1.3910    0.0400 h1        1 P3B      0.031200
     29 H4          3.1310    0.6570   -1.3240 h1        1 P3B      0.031200
     30 H5          0.7460    2.4810   -1.8150 ho        1 P3B      0.468000
     31 H6          5.2270    6.3720   -4.3140 hc        1 P3B      0.019367
     32 H7          3.8880    7.1450   -3.3690 hc        1 P3B      0.019367
     33 H8          3.5100    6.2400   -4.8930 hc        1 P3B      0.019367
     34 H9          7.0020    4.6390   -2.2720 ho        1 P3B      0.468000
     35 H10         5.9350    1.5780   -0.7010 h4        1 P3B      0.120000
     36 H11         7.9930    0.5520   -0.2390 ha        1 P3B      0.139000
     37 H13        11.6040    1.8730    1.4180 hc        1 P3B      0.046200
     38 H14        10.0530    3.7560    1.1090 h1        1 P3B      0.031700
     39 H15        11.4690    5.0140   -0.4380 ho        1 P3B      0.393000
     40 H16        10.2840    3.0970   -1.9340 h1        1 P3B      0.049700
     41 H17         8.6930    5.1200   -0.8520 ho        1 P3B      0.411000
     42 H18         2.0210    4.7690   -3.5820 hn        1 P3B      0.256700
     43 H19        11.8800    1.7220   -0.3600 hc        1 P3B      0.046200
@<TRIPOS>BOND
     1    1    2 1   
     2    1   30 1   
     3    2    3 1   
     4    2    4 1   
     5    2    5 1   
     6    5    6 1   
     7    6    7 1   
     8    6   28 1   
     9    6   29 1   
    10    7    8 2   
    11    7   14 1   
    12    8    9 2   
    13    9   10 1   
    14    9   42 1   
    15   10   11 1   
    16   10   12 2   
    17   11   31 1   
    18   11   32 1   
    19   11   33 1   
    20   12   13 1   
    21   12   14 1   
    22   13   34 1   
    23   14   15 2   
    24   15   16 1   
    25   15   35 1   
    26   16   17 2   
    27   17   18 1   
    28   17   26 1   
    29   18   19 2   
    30   18   36 1   
    31   19   20 1   
    32   19   23 1   
    33   20   21 1   
    34   20   22 1   
    35   23   24 1   
    36   23   37 1   
    37   23   43 1   
    38   24   25 1   
    39   24   26 1   
    40   24   38 1   
    41   25   39 1   
    42   26   27 1   
    43   26   40 1   
    44   27   41 1   
@<TRIPOS>SUBSTRUCTURE
     1 P3B         1 TEMP              0 ****  ****    0 ROOT
