@<TRIPOS>MOLECULE
P3D
   42    42     1     0     0
SMALL
bcc


@<TRIPOS>ATOM
      1 OAE        -3.1280   -2.5890    1.6020 o         1 P3D     -0.925500
      2 PAV        -3.7190   -2.3940    0.2310 p5        1 P3D      1.308900
      3 OAF        -2.8510   -2.8890   -0.8960 o         1 P3D     -0.925500
      4 OAC        -5.2030   -2.5390    0.0830 o         1 P3D     -0.925500
      5 OAQ        -3.4790   -0.6530    0.0460 os        1 P3D     -0.556200
      6 CAN        -2.1310   -0.4250    0.1600 c3        1 P3D      0.192700
      7 CAT        -1.7700    1.0210    0.0140 ca        1 P3D     -0.064600
      8 CAH        -2.8000    1.9710   -0.2300 ca        1 P3D      0.363200
      9 NAP        -2.6040    3.2820   -0.3780 nb        1 P3D     -0.655000
     10 CAR        -1.3320    3.7510   -0.2870 ca        1 P3D      0.292600
     11 CAA        -1.0600    5.2090   -0.4460 c3        1 P3D     -0.109400
     12 CAS        -0.2340    2.8870   -0.0420 ca        1 P3D      0.050800
     13 OAD         0.9900    3.5100    0.0220 oh        1 P3D     -0.534100
     14 CAU        -0.4460    1.4960    0.1080 ca        1 P3D     -0.257900
     15 CAG         0.6190    0.5190    0.3500 ce        1 P3D      0.526800
     16 NAO         1.8520    0.8210    0.5940 n2        1 P3D     -0.703900
     17 CAM         2.8010   -0.2280    0.8560 c3        1 P3D      0.124800
     18 CAL         4.0450   -0.1440   -0.0320 c3        1 P3D     -0.076400
     19 CAK         5.0280   -1.2300    0.3510 c3        1 P3D     -0.081400
     20 CAJ         6.3210   -1.0950   -0.4240 c3        1 P3D     -0.081400
     21 CAI         7.2960   -2.1990   -0.0200 c3        1 P3D      0.151800
     22 NAB         8.5890   -2.1010   -0.6610 n3        1 P3D     -0.914800
     23 HAN1       -1.7770   -0.7920    1.1740 h1        1 P3D      0.057200
     24 HAN2       -1.5870   -1.0210   -0.6390 h1        1 P3D      0.057200
     25 HAH        -3.8400    1.5850   -0.3020 h4        1 P3D      0.077100
     26 HAA1       -0.5330    5.5880    0.4640 hc        1 P3D      0.027367
     27 HAA2       -0.3870    5.3660   -1.3250 hc        1 P3D      0.027367
     28 HAA3       -1.9940    5.8010   -0.5970 hc        1 P3D      0.027367
     29 HOAD        1.6670    2.8490    0.2350 ho        1 P3D      0.445000
     30 HAG1        0.2610   -0.5420    0.3170 h4        1 P3D      0.025800
     31 HAM1        3.1240   -0.1120    1.9320 h1        1 P3D      0.036200
     32 HAM2        2.3660   -1.2670    0.7520 h1        1 P3D      0.036200
     33 HAL1        3.7560   -0.2590   -1.1080 hc        1 P3D      0.043700
     34 HAL2        4.5290    0.8620    0.0800 hc        1 P3D      0.043700
     35 HAK1        5.2410   -1.1740    1.4520 hc        1 P3D      0.041200
     36 HAK2        4.5720   -2.2360    0.1540 hc        1 P3D      0.041200
     37 HAJ1        6.1120   -1.1550   -1.5240 hc        1 P3D      0.043200
     38 HAJ2        6.7730   -0.0880   -0.2240 hc        1 P3D      0.043200
     39 HAI1        7.3810   -2.1930    1.1090 h1        1 P3D      0.026200
     40 HAI2        6.8560   -3.1960   -0.3100 h1        1 P3D      0.026200
     41 HAB1        8.9200   -1.1570   -0.6560 hn        1 P3D      0.338300
     42 HAB2        9.2530   -2.6780   -0.1840 hn        1 P3D      0.338300
@<TRIPOS>BOND
     1    1    2 1   
     2    2    3 1   
     3    2    4 1   
     4    2    5 1   
     5    5    6 1   
     6    6    7 1   
     7    6   23 1   
     8    6   24 1   
     9    7    8 ar  
    10    7   14 ar  
    11    8    9 ar  
    12    8   25 1   
    13    9   10 ar  
    14   10   11 1   
    15   10   12 ar  
    16   11   26 1   
    17   11   27 1   
    18   11   28 1   
    19   12   13 1   
    20   12   14 ar  
    21   13   29 1   
    22   14   15 1   
    23   15   16 2   
    24   15   30 1   
    25   16   17 1   
    26   17   18 1   
    27   17   31 1   
    28   17   32 1   
    29   18   19 1   
    30   18   33 1   
    31   18   34 1   
    32   19   20 1   
    33   19   35 1   
    34   19   36 1   
    35   20   21 1   
    36   20   37 1   
    37   20   38 1   
    38   21   22 1   
    39   21   39 1   
    40   21   40 1   
    41   22   41 1   
    42   22   42 1   
@<TRIPOS>SUBSTRUCTURE
     1 P3D         1 TEMP              0 ****  ****    0 ROOT
