@<TRIPOS>MOLECULE
P3D
   42    39     1     0     0
SMALL
bcc


@<TRIPOS>ATOM
      1 OAE        -1.4810   -5.5450   -0.2920 o         1 P3D     -0.913500
      2 PAV        -0.0060   -5.8540   -0.4710 p5        1 P3D      1.549500
      3 OAF         0.6110   -6.1630    0.8740 o         1 P3D     -0.913500
      4 OAC         0.1500   -7.0460   -1.3830 o         1 P3D     -0.913500
      5 OAQ         0.7320   -4.5850   -1.1180 os        1 P3D     -0.715000
      6 CAN         0.5630   -3.2970   -0.4890 c3        1 P3D      0.080000
      7 CAT         1.1880   -2.1930   -1.3890 c2        1 P3D     -0.048000
      8 CAH         1.2380   -2.3640   -2.7680 c1        1 P3D     -0.085000
      9 NAP         1.8790   -1.4400   -3.5490 n1        1 P3D     -0.139000
     10 CAR         2.4700   -0.3500   -2.9750 c1        1 P3D     -0.137000
     11 CAA         3.2330    0.6740   -3.8580 c2        1 P3D     -0.150000
     12 CAS         2.4220   -0.1770   -1.6010 c2        1 P3D     -0.009000
     13 OAD         3.1010    0.8820   -1.0130 oh        1 P3D     -0.282000
     14 CAU         1.7810   -1.1000   -0.8150 c2        1 P3D     -0.152000
     15 CAG         1.8380   -0.9730    0.7240 c2        1 P3D      0.031000
     16 NAO         0.9840   -0.1540    1.3630 n1        1 P3D     -0.232000
     17 CAM        -0.0020    0.6170    0.6060 c2        1 P3D     -0.086000
     18 CAL        -0.3870    1.9000    1.4100 c3        1 P3D     -0.152000
     19 CAK        -1.9100    1.9330    1.6270 c3        1 P3D     -0.154000
     20 CAJ        -2.2790    3.1480    2.5200 c3        1 P3D     -0.197000
     21 CAI        -3.7750    3.4700    2.3590 c3        1 P3D     -0.094000
     22 NAB        -4.0900    4.6400    3.1000 n3        1 P3D     -0.340000
     23 HAN1        1.0130   -3.2990    0.3930 h1        1 P3D      0.065000
     24 HAN2       -0.3970   -3.1160   -0.3660 h1        1 P3D      0.065000
     25 HAH         0.7630   -3.0990   -3.1830 ha        1 P3D      0.312000
     26 HAA1        4.1900    0.6150   -3.6720 ha        1 P3D      0.064333
     27 HAA2        3.0700    0.4710   -4.8150 ha        1 P3D      0.064333
     28 HAA3        2.9160    1.5800   -3.6570 ha        1 P3D      0.064333
     29 HOAD        3.9780    0.7770   -1.1350 ho        1 P3D      0.192000
     30 HAG1        2.4990   -1.4890    1.2340 h4        1 P3D      0.148000
     31 HAM1        0.3800    0.8750   -0.2560 ha        1 P3D      0.081000
     32 HAM2       -0.8040    0.0690    0.4580 ha        1 P3D      0.081000
     33 HAL1        0.0660    1.8890    2.2760 hc        1 P3D      0.082500
     34 HAL2       -0.1100    2.6970    0.9070 hc        1 P3D      0.082500
     35 HAK1       -2.3610    2.0140    0.7600 hc        1 P3D      0.078000
     36 HAK2       -2.1940    1.1040    2.0660 hc        1 P3D      0.078000
     37 HAJ1       -2.0900    2.9310    3.4670 hc        1 P3D      0.077000
     38 HAJ2       -1.7450    3.9250    2.2500 hc        1 P3D      0.077000
     39 HAI1       -3.9760    3.6180    1.4150 h1        1 P3D      0.088500
     40 HAI2       -4.3070    2.7210    2.6920 h1        1 P3D      0.088500
     41 HAB1       -4.6790    4.4290    3.7660 hn        1 P3D      0.131500
     42 HAB2       -4.4720    5.2660    2.5390 hn        1 P3D      0.131500
@<TRIPOS>BOND
     1    1    2 1   
     2    2    3 1   
     3    2    4 1   
     4    2    5 1   
     5    5    6 1   
     6    6    7 1   
     7    6   23 1   
     8    6   24 1   
     9    7    8 1   
    10    7   14 1   
    11    8   25 1   
    12    9   10 1   
    13   10   12 1   
    14   11   26 1   
    15   11   27 1   
    16   11   28 1   
    17   12   13 1   
    18   12   14 1   
    19   13   29 1   
    20   14   15 1   
    21   15   16 1   
    22   15   30 1   
    23   17   18 1   
    24   17   31 1   
    25   17   32 1   
    26   18   19 1   
    27   18   33 1   
    28   18   34 1   
    29   19   20 1   
    30   19   35 1   
    31   19   36 1   
    32   20   21 1   
    33   20   37 1   
    34   20   38 1   
    35   21   22 1   
    36   21   39 1   
    37   21   40 1   
    38   22   41 1   
    39   22   42 1   
@<TRIPOS>SUBSTRUCTURE
     1 P3D         1 TEMP              0 ****  ****    0 ROOT
