@<TRIPOS>MOLECULE
P3D
   43    44     1     0     0
SMALL
bcc


@<TRIPOS>ATOM
      1 OAE         0.0000    0.0000    0.0000 o         1 P3D     -0.601500
      2 PAV         1.6100    0.0000    0.0000 p5        1 P3D      0.992500
      3 OAF         2.1460    0.0000    1.5180 o         1 P3D     -0.601500
      4 OAC         2.1030    1.2090   -0.6960 o         1 P3D     -0.601500
      5 OAQ         2.1470   -1.3140   -0.7590 os        1 P3D     -0.656000
      6 CAN         1.9290   -1.5520   -2.1520 c3        1 P3D      0.171000
      7 CAT         2.5580   -2.8640   -2.5420 c2        1 P3D      0.018000
      8 CAH         3.2180   -3.6300   -1.6020 c2        1 P3D     -0.087000
      9 NAP         3.7730   -4.7810   -1.9310 n2        1 P3D     -0.010000
     10 CAR         3.7280   -5.2550   -3.1590 c2        1 P3D     -0.160000
     11 CAA         4.3820   -6.5780   -3.4690 c3        1 P3D     -0.050000
     12 CAS         3.0850   -4.5540   -4.1690 c2        1 P3D      0.045000
     13 OAD         3.0410   -5.0480   -5.4320 oh        1 P3D     -0.241000
     14 CAU         2.4770   -3.3260   -3.8600 c3        1 P3D     -0.231000
     15 CAG         1.7760   -2.5450   -4.8970 c2        1 P3D     -0.327000
     16 NAO         1.7120   -2.9900   -6.1090 n2        1 P3D     -0.082000
     17 CAM         1.0160   -2.2130   -7.1390 c3        1 P3D     -0.043000
     18 CAL         2.0200   -1.7520   -8.1960 c3        1 P3D     -0.102000
     19 CAK         1.2940   -0.9410   -9.2720 c3        1 P3D     -0.104000
     20 CAJ         2.2990   -0.4810  -10.3290 c3        1 P3D     -0.109000
     21 CAI         1.5720    0.3300  -11.4040 c3        1 P3D     -0.242000
     22 NAB         2.5370    0.7740  -12.4180 nz        1 P3D      0.509000
     23 HAN1        2.3760   -0.7510   -2.7290 h1        1 P3D      0.054000
     24 HAN2        0.8650   -1.5890   -2.3500 h1        1 P3D      0.054000
     25 HAH         3.2820   -3.2810   -0.5790 h4        1 P3D      0.177000
     26 HAA1        3.6830   -7.2090   -4.0040 hc        1 P3D      0.043333
     27 HAA2        5.2600   -6.4120   -4.0820 hc        1 P3D      0.043333
     28 HAA3        4.6730   -7.0630   -2.5450 hc        1 P3D      0.043333
     29 HOAD        3.8920   -4.9680   -5.8310 ho        1 P3D      0.202000
     30 HAG1        1.3610   -3.4140   -4.4010 DU        1 P3D      0.345000
     31 HAM1        0.5480   -1.3490   -6.6850 h1        1 P3D      0.054500
     32 HAM2        0.2580   -2.8310   -7.6060 h1        1 P3D      0.054500
     33 HAL1        2.7780   -1.1350   -7.7290 hc        1 P3D      0.060000
     34 HAL2        2.4890   -2.6170   -8.6510 hc        1 P3D      0.060000
     35 HAK1        0.5360   -1.5580   -9.7390 hc        1 P3D      0.058000
     36 HAK2        0.8250   -0.0760   -8.8170 hc        1 P3D      0.058000
     37 HAJ1        2.7670   -1.3450  -10.7830 hc        1 P3D      0.060500
     38 HAJ2        3.0570    0.1370   -9.8610 hc        1 P3D      0.060500
     39 HAI1        0.8150   -0.2870  -11.8710 hx        1 P3D      0.081000
     40 HAI2        1.1040    1.1950  -10.9490 hx        1 P3D      0.081000
     41 HAB1        3.2360    1.3440  -11.9870 hn        1 P3D     -0.026000
     42 HAB2        2.0620    1.3030  -13.1220 hn        1 P3D     -0.026000
     43 HAB3        2.9700   -0.0250  -12.8380 hn        1 P3D     -0.026000
@<TRIPOS>BOND
     1    1    2 1   
     2    2    3 1   
     3    2    4 1   
     4    2    5 1   
     5    5    6 1   
     6    6    7 1   
     7    6   23 1   
     8    6   24 1   
     9    7    8 1   
    10    7   14 1   
    11    8    9 1   
    12    8   25 1   
    13    9   10 1   
    14   10   11 1   
    15   10   12 1   
    16   11   26 1   
    17   11   27 1   
    18   11   28 1   
    19   12   13 1   
    20   12   14 1   
    21   13   29 1   
    22   14   15 1   
    23   14   30 1   
    24   15   16 1   
    25   15   30 1   
    26   16   17 1   
    27   17   18 1   
    28   17   31 1   
    29   17   32 1   
    30   18   19 1   
    31   18   33 1   
    32   18   34 1   
    33   19   20 1   
    34   19   35 1   
    35   19   36 1   
    36   20   21 1   
    37   20   37 1   
    38   20   38 1   
    39   21   22 1   
    40   21   39 1   
    41   21   40 1   
    42   22   41 1   
    43   22   42 1   
    44   22   43 1   
@<TRIPOS>SUBSTRUCTURE
     1 P3D         1 TEMP              0 ****  ****    0 ROOT
