@<TRIPOS>MOLECULE
P3F
   49    50     1     0     0
SMALL
bcc


@<TRIPOS>ATOM
      1 O4         -7.5780    9.2320   47.4960 o         1 P3F     -0.847000
      2 P1         -7.1420   10.4600   48.2030 p5        1 P3F      1.430800
      3 O2         -8.4270   10.8790   49.1380 oh        1 P3F     -0.812400
      4 O3         -6.6450   11.6840   47.5480 o         1 P3F     -0.847000
      5 O1         -6.1130   10.0510   49.4100 os        1 P3F     -0.567200
      6 C5         -6.4970    8.8820   50.0840 c3        1 P3F      0.247700
      7 C4         -5.7610    8.6670   51.3600 ca        1 P3F     -0.270600
      8 C3         -4.6910    7.7600   51.4030 ca        1 P3F      0.410200
      9 N1         -4.0560    7.3520   52.5140 nb        1 P3F     -0.764000
     10 C2         -4.4830    7.8750   53.7000 ca        1 P3F      0.374600
     11 C1         -3.8360    7.4240   54.9680 c3        1 P3F     -0.117400
     12 C17        -5.5260    8.8110   53.7640 ca        1 P3F     -0.076200
     13 O9         -5.9000    9.2830   55.0090 oh        1 P3F     -0.538100
     14 C6         -6.1850    9.2710   52.5740 ca        1 P3F      0.131000
     15 C7         -7.0570   10.3270   52.6470 cg        1 P3F     -0.129200
     16 N2         -8.0300   11.1000   52.5510 n1        1 P3F     -0.284300
     17 N3         -9.2700   10.6030   52.1230 n         1 P3F     -0.470000
     18 C8        -10.4330   11.3320   52.1540 c         1 P3F      0.642100
     19 O5        -10.6350   12.3530   52.8520 o         1 P3F     -0.656100
     20 C9        -11.6430   10.8020   51.3520 c3        1 P3F     -0.001000
     21 N4        -11.3650   10.3650   50.0120 n         1 P3F     -0.548900
     22 C10       -12.1420    9.3980   49.4230 c         1 P3F      0.657700
     23 O6        -13.1290    8.9030   50.0170 o         1 P3F     -0.647100
     24 C11       -11.8010    8.9640   48.0310 ca        1 P3F     -0.094600
     25 C16       -12.8140    8.6190   47.1180 ca        1 P3F     -0.140300
     26 C18       -14.2960    8.7240   47.4620 c3        1 P3F      0.697200
     27 F2        -14.7930    7.7080   48.2380 f         1 P3F     -0.247300
     28 F1        -15.1330    8.6920   46.3600 f         1 P3F     -0.247300
     29 F3        -14.6870    9.8800   48.0900 f         1 P3F     -0.247300
     30 C12       -10.4650    8.8510   47.6390 ca        1 P3F     -0.083000
     31 C13       -10.1330    8.3840   46.3630 ca        1 P3F     -0.080000
     32 C14       -11.1400    8.0320   45.4690 ca        1 P3F     -0.152000
     33 C15       -12.4780    8.1530   45.8450 ca        1 P3F     -0.124000
     34 H51        -6.3290    8.0150   49.3820 h1        1 P3F      0.014700
     35 H52        -7.6050    8.9480   50.2990 h1        1 P3F      0.014700
     36 H3         -4.3220    7.3100   50.4630 h4        1 P3F     -0.010900
     37 H11        -3.8570    8.2570   55.7140 hc        1 P3F      0.026033
     38 H12A       -2.7770    7.1080   54.8070 hc        1 P3F      0.026033
     39 H13A       -4.4030    6.5590   55.3920 hc        1 P3F      0.026033
     40 HO9        -6.3290   10.1420   54.8570 ho        1 P3F      0.429000
     41 H7         -8.2460   11.6120   49.7160 ho        1 P3F      0.444000
     42 HN3        -9.2600    9.8230   51.4870 hn        1 P3F      0.272500
     43 H91       -12.3970   11.6400   51.3090 h1        1 P3F      0.061200
     44 H92       -12.1040    9.9570   51.9410 h1        1 P3F      0.061200
     45 HN4       -10.5200   10.6730   49.5710 hn        1 P3F      0.365500
     46 H12        -9.6120    9.1360   48.3000 ha        1 P3F      0.219000
     47 H13        -9.0570    8.3220   46.1040 ha        1 P3F      0.208000
     48 H14       -10.8880    7.6650   44.4650 ha        1 P3F      0.120000
     49 H15       -13.2740    7.8850   45.1340 ha        1 P3F      0.126000
@<TRIPOS>BOND
     1    1    2 1   
     2    2    3 1   
     3    2    4 1   
     4    2    5 1   
     5    3   41 1   
     6    5    6 1   
     7    6    7 1   
     8    6   34 1   
     9    6   35 1   
    10    7    8 ar  
    11    7   14 ar  
    12    8    9 ar  
    13    8   36 1   
    14    9   10 ar  
    15   10   11 1   
    16   10   12 ar  
    17   11   37 1   
    18   11   38 1   
    19   11   39 1   
    20   12   13 1   
    21   12   14 ar  
    22   13   40 1   
    23   14   15 1   
    24   15   16 3   
    25   16   17 1   
    26   17   18 1   
    27   17   42 1   
    28   18   19 2   
    29   18   20 1   
    30   20   21 1   
    31   20   43 1   
    32   20   44 1   
    33   21   22 1   
    34   21   45 1   
    35   22   23 2   
    36   22   24 1   
    37   24   25 ar  
    38   24   30 ar  
    39   25   26 1   
    40   25   33 ar  
    41   26   27 1   
    42   26   28 1   
    43   26   29 1   
    44   30   31 ar  
    45   30   46 1   
    46   31   32 ar  
    47   31   47 1   
    48   32   33 ar  
    49   32   48 1   
    50   33   49 1   
@<TRIPOS>SUBSTRUCTURE
     1 P3F         1 TEMP              0 ****  ****    0 ROOT
