@<TRIPOS>MOLECULE
P3F
   49    50     1     0     0
SMALL
bcc


@<TRIPOS>ATOM
      1 O4         -0.1370   -0.6870    1.6450 o         1 P3F     -0.846500
      2 P1          0.1980   -0.3540    0.2440 p5        1 P3F      1.441800
      3 O2          1.1820    0.9510    0.2100 oh        1 P3F     -0.782400
      4 O3         -0.7600   -0.0860   -0.8490 o         1 P3F     -0.846500
      5 O1          1.2810   -1.4650   -0.3110 os        1 P3F     -0.585200
      6 C5          2.2470   -1.9260    0.5870 c3        1 P3F      0.231700
      7 C4          2.4230   -3.4110    0.5080 ca        1 P3F     -0.161600
      8 C3          1.4280   -4.2250   -0.0740 ca        1 P3F      0.372200
      9 N1          1.4880   -5.5620   -0.1550 nb        1 P3F     -0.682000
     10 C2          2.5800   -6.1760    0.3580 ca        1 P3F      0.339600
     11 C1          2.7000   -7.6630    0.3080 c3        1 P3F     -0.119400
     12 C17         3.6420   -5.4370    0.9470 ca        1 P3F      0.021800
     13 O9          4.7160   -6.1810    1.3740 oh        1 P3F     -0.522100
     14 C6          3.5760   -4.0290    1.0240 ca        1 P3F     -0.124900
     15 C7          4.7010   -3.2420    1.5320 ce        1 P3F      0.239800
     16 N2          5.2730   -3.1750    2.7080 nf        1 P3F     -0.316700
     17 N3          4.8120   -3.8100    3.7520 nf        1 P3F     -0.452000
     18 C8          5.6070   -3.9610    4.8650 c2        1 P3F      0.549300
     19 O5          6.8610   -3.8990    4.9870 o         1 P3F     -0.743300
     20 C9          4.8340   -4.3820    6.1410 c3        1 P3F      0.005000
     21 N4          3.5970   -3.6710    6.3530 n         1 P3F     -0.501900
     22 C10         2.3950   -4.3560    6.4480 c         1 P3F      0.653700
     23 O6          2.3200   -5.5350    6.8510 o         1 P3F     -0.613100
     24 C11         1.1660   -3.5660    6.1050 ca        1 P3F     -0.093600
     25 C16         0.1010   -3.3850    6.9950 ca        1 P3F     -0.151300
     26 C18         0.1050   -3.9640    8.4030 c3        1 P3F      0.693200
     27 F2         -0.2750   -5.2810    8.4960 f         1 P3F     -0.248967
     28 F1         -0.7640   -3.3380    9.2770 f         1 P3F     -0.248967
     29 F3          1.3000   -3.9030    9.0760 f         1 P3F     -0.248967
     30 C12         1.0970   -3.0050    4.8220 ca        1 P3F     -0.115000
     31 C13        -0.0210   -2.2690    4.4260 ca        1 P3F     -0.086000
     32 C14        -1.0810   -2.0990    5.3170 ca        1 P3F     -0.135000
     33 C15        -1.0240   -2.6550    6.5930 ca        1 P3F     -0.119000
     34 H51         3.2350   -1.4360    0.3370 h1        1 P3F      0.045700
     35 H52         1.9530   -1.6480    1.6420 h1        1 P3F      0.045700
     36 H3          0.5270   -3.7560   -0.5120 h4        1 P3F      0.032100
     37 H11         3.5310   -7.9420   -0.3870 hc        1 P3F      0.033700
     38 H12A        1.7590   -8.1550   -0.0370 hc        1 P3F      0.033700
     39 H13A        2.9590   -8.0430    1.3270 hc        1 P3F      0.033700
     40 HO9         5.2900   -5.6110    1.9050 ho        1 P3F      0.445000
     41 H7          5.1330   -2.5480    0.7860 h4        1 P3F     -0.005200
     42 HN3         1.1330    1.4040   -0.6230 ho        1 P3F      0.422000
     43 H91         4.6450   -5.4910    6.0930 h1        1 P3F      0.057200
     44 H92         5.5040   -4.1740    7.0230 h1        1 P3F      0.057200
     45 HN4         3.5460   -2.7960    5.8690 hn        1 P3F      0.306500
     46 H12         1.9310   -3.1520    4.1110 ha        1 P3F      0.186000
     47 H13        -0.0590   -1.8100    3.4110 ha        1 P3F      0.240000
     48 H14        -1.9640   -1.5200    5.0070 ha        1 P3F      0.137000
     49 H15        -1.8600   -2.5160    7.2930 ha        1 P3F      0.126000
@<TRIPOS>BOND
     1    1    2 1   
     2    2    3 1   
     3    2    4 1   
     4    2    5 1   
     5    3   42 1   
     6    5    6 1   
     7    6    7 1   
     8    6   34 1   
     9    6   35 1   
    10    7    8 ar  
    11    7   14 ar  
    12    8    9 ar  
    13    8   36 1   
    14    9   10 ar  
    15   10   11 1   
    16   10   12 ar  
    17   11   37 1   
    18   11   38 1   
    19   11   39 1   
    20   12   13 1   
    21   12   14 ar  
    22   13   40 1   
    23   14   15 1   
    24   15   16 2   
    25   15   41 1   
    26   16   17 1   
    27   17   18 2   
    28   18   19 1   
    29   18   20 1   
    30   20   21 1   
    31   20   43 1   
    32   20   44 1   
    33   21   22 1   
    34   21   45 1   
    35   22   23 2   
    36   22   24 1   
    37   24   25 ar  
    38   24   30 ar  
    39   25   26 1   
    40   25   33 ar  
    41   26   27 1   
    42   26   28 1   
    43   26   29 1   
    44   30   31 ar  
    45   30   46 1   
    46   31   32 ar  
    47   31   47 1   
    48   32   33 ar  
    49   32   48 1   
    50   33   49 1   
@<TRIPOS>SUBSTRUCTURE
     1 P3F         1 TEMP              0 ****  ****    0 ROOT
