@<TRIPOS>MOLECULE
P3F
   49    45     1     0     0
SMALL
bcc


@<TRIPOS>ATOM
      1 O4         -3.0210    4.1120   -6.6330 o         1 P3F     -0.908833
      2 P1         -1.8040    4.8690   -6.1560 p5        1 P3F      1.550500
      3 O2         -2.2360    5.9960   -5.2490 o         1 P3F     -0.908833
      4 O3         -1.0640    5.4360   -7.3500 o         1 P3F     -0.908833
      5 O1         -0.8440    3.8810   -5.3560 os        1 P3F     -0.713000
      6 C5         -1.3900    3.1270   -4.2750 c3        1 P3F      0.083000
      7 C4         -0.7650    1.7300   -4.2600 c2        1 P3F     -0.039000
      8 C3         -0.9890    0.8600   -5.3200 c1        1 P3F     -0.091000
      9 N1         -0.3560   -0.3500   -5.3570 n1        1 P3F     -0.134000
     10 C2          0.4960   -0.7060   -4.3530 c1        1 P3F     -0.133000
     11 C1          1.2980   -1.9900   -4.4640 c2        1 P3F     -0.154000
     12 C17         0.7230    0.1650   -3.2880 c2        1 P3F     -0.014000
     13 O9          1.6650   -0.1670   -2.2960 oh        1 P3F     -0.291000
     14 C6          0.0920    1.3730   -3.2500 c2        1 P3F     -0.149000
     15 C7          0.3670    2.3370   -2.1120 c2        1 P3F     -0.015000
     16 N2          0.0180    2.0150   -0.8660 n1        1 P3F     -0.116000
     17 N3         -0.6020    0.7860   -0.6080 n2        1 P3F     -0.272000
     18 C8         -0.0390   -0.1130    0.3610 c2        1 P3F      0.291000
     19 O5          0.5510   -1.1070   -0.0070 o         1 P3F     -0.423000
     20 C9         -0.2890    0.1190    1.8570 c3        1 P3F     -0.053000
     21 N4          0.0810   -1.0670    2.5980 n         1 P3F     -0.322000
     22 C10         0.8630   -0.9500    3.7980 c2        1 P3F      0.326000
     23 O6          1.5760    0.0220    3.9670 o         1 P3F     -0.346000
     24 C11         0.7840   -2.0360    4.8700 c2        1 P3F     -0.058000
     25 C16         0.1190   -1.7860    6.0660 c2        1 P3F     -0.132000
     26 C18        -0.5500   -0.4420    6.2980 c3        1 P3F      0.466000
     27 F2          0.2820    0.5410    5.9350 f         1 P3F     -0.161667
     28 F1         -0.8540   -0.3120    7.5990 f         1 P3F     -0.161667
     29 F3         -1.6700   -0.3700    5.5700 f         1 P3F     -0.161667
     30 C12         1.4130   -3.2610    4.6670 c1        1 P3F     -0.092000
     31 C13         1.3770   -4.2340    5.6590 c1        1 P3F     -0.121000
     32 C14         0.7110   -3.9830    6.8550 c1        1 P3F     -0.121000
     33 C15         0.0830   -2.7600    7.0580 c1        1 P3F     -0.099000
     34 H51        -1.1960    3.5810   -3.4300 h1        1 P3F      0.064000
     35 H52        -2.3600    3.0500   -4.3880 h1        1 P3F      0.064000
     36 H3         -1.5670    1.1290   -6.0580 ha        1 P3F      0.321000
     37 H11         2.2500   -1.7740   -4.5640 ha        1 P3F      0.067000
     38 H12A        1.1680   -2.5300   -3.6500 ha        1 P3F      0.067000
     39 H13A        0.9960   -2.4960   -5.2410 ha        1 P3F      0.067000
     40 HO9         2.4840    0.0130   -2.5930 ho        1 P3F      0.204000
     41 H7          0.8030    3.2000   -2.2940 h4        1 P3F      0.177000
     42 HN3        -1.3930    0.5750   -1.0230 hn        1 P3F      0.248000
     43 H91         0.2490    0.8760    2.1630 h1        1 P3F      0.144500
     44 H92        -1.2390    0.3130    2.0030 h1        1 P3F      0.144500
     45 HN4        -0.2150   -1.8890    2.3230 hn        1 P3F      0.230000
     46 H12         1.9170   -3.4190    3.8510 ha        1 P3F      0.163000
     47 H13         1.8150   -5.0870    5.5170 ha        1 P3F      0.135500
     48 H14         0.6860   -4.6690    7.5540 ha        1 P3F      0.135500
     49 H15        -0.4260   -2.6040    7.8730 ha        1 P3F      0.148000
@<TRIPOS>BOND
     1    1    2 1   
     2    2    3 1   
     3    2    4 1   
     4    2    5 1   
     5    5    6 1   
     6    6    7 1   
     7    6   34 1   
     8    6   35 1   
     9    7    8 1   
    10    7   14 1   
    11    8   36 1   
    12    9   10 1   
    13   10   12 1   
    14   11   37 1   
    15   11   38 1   
    16   11   39 1   
    17   12   13 1   
    18   12   14 1   
    19   13   40 1   
    20   14   15 1   
    21   15   16 1   
    22   15   41 1   
    23   17   18 1   
    24   17   42 1   
    25   18   19 1   
    26   18   20 1   
    27   20   21 1   
    28   20   43 1   
    29   20   44 1   
    30   21   22 1   
    31   21   45 1   
    32   22   23 1   
    33   22   24 1   
    34   24   25 1   
    35   24   30 1   
    36   25   26 1   
    37   25   33 1   
    38   26   27 1   
    39   26   28 1   
    40   26   29 1   
    41   30   46 1   
    42   31   32 1   
    43   31   47 1   
    44   32   48 1   
    45   33   49 1   
@<TRIPOS>SUBSTRUCTURE
     1 P3F         1 TEMP              0 ****  ****    0 ROOT
