@<TRIPOS>MOLECULE
P3G
   43    42     1     0     0
SMALL
bcc


@<TRIPOS>ATOM
      1 C5         -8.0480    2.8640   -4.2110 c3        1 P3G     -0.097100
      2 C6         -6.5830    2.7010   -4.2940 c3        1 P3G      0.132400
      3 O3         -6.1140    1.9930   -3.1470 os        1 P3G     -0.428600
      4 C7         -4.7350    1.7820   -3.1450 c3        1 P3G      0.127400
      5 C8         -4.3430    0.9130   -1.9320 c3        1 P3G      0.130400
      6 O4         -2.9460    1.1270   -1.6090 os        1 P3G     -0.430600
      7 C9         -2.4130    0.1660   -0.6170 c3        1 P3G      0.130400
      8 C10        -1.0640    0.6670   -0.0790 c3        1 P3G      0.129400
      9 O5         -0.3840   -0.3870    0.5230 os        1 P3G     -0.429600
     10 C11         0.8270    0.0270    1.2400 c3        1 P3G      0.129400
     11 C12         1.5970   -1.1760    1.6550 c3        1 P3G      0.130400
     12 O6          2.8800   -0.7760    2.1470 os        1 P3G     -0.430600
     13 C13         3.7810   -1.8820    2.3900 c3        1 P3G      0.130400
     14 C14         5.0940   -1.3530    3.0100 c3        1 P3G      0.127400
     15 O7          6.1080   -2.3030    2.8420 os        1 P3G     -0.428600
     16 C15         7.3880   -1.8480    3.2430 c3        1 P3G      0.132400
     17 C16         8.4190   -2.9060    2.9320 c3        1 P3G     -0.097100
     18 H51        -8.2760    3.3220   -3.3830 hc        1 P3G      0.045367
     19 H5         -8.4670    2.0020   -4.2270 hc        1 P3G      0.045367
     20 H52        -8.3550    3.3840   -4.9600 hc        1 P3G      0.045367
     21 H61        -6.3540    2.1950   -5.1080 h1        1 P3G      0.025700
     22 H62        -6.1630    3.5720   -4.3280 h1        1 P3G      0.025700
     23 H71        -4.4780    1.3270   -3.9630 h1        1 P3G      0.039700
     24 H72        -4.2710    2.6480   -3.0910 h1        1 P3G      0.039700
     25 H81        -4.4860   -0.0290   -2.1470 h1        1 P3G      0.042700
     26 H82        -4.8900    1.1570   -1.1700 h1        1 P3G      0.042700
     27 H91        -3.0460    0.0800    0.1240 h1        1 P3G      0.042700
     28 H92        -2.2880   -0.7130   -1.0470 h1        1 P3G      0.042700
     29 H101       -1.2160    1.3630    0.5720 h1        1 P3G      0.041700
     30 H102       -0.5360    1.0170   -0.8070 h1        1 P3G      0.041700
     31 H111        1.3880    0.5890    0.6430 h1        1 P3G      0.041700
     32 H112        0.5740    0.5470    2.0420 h1        1 P3G      0.041700
     33 H121        1.7120   -1.7670    0.8920 h1        1 P3G      0.042700
     34 H122        1.1150   -1.6400    2.3540 h1        1 P3G      0.042700
     35 H131        3.9780   -2.3350    1.5420 h1        1 P3G      0.042700
     36 H132        3.3590   -2.5170    3.0100 h1        1 P3G      0.042700
     37 H141        4.9590   -1.1850    3.9690 h1        1 P3G      0.039700
     38 H142        5.3470   -0.5350    2.5740 h1        1 P3G      0.039700
     39 H151        7.6090   -1.0260    2.7600 h1        1 P3G      0.025700
     40 H152        7.3840   -1.6720    4.1920 h1        1 P3G      0.025700
     41 H16         9.3260   -2.5310    3.0620 hc        1 P3G      0.045367
     42 H162        8.3190   -3.1930    2.0140 hc        1 P3G      0.045367
     43 H161        8.2930   -3.6690    3.5290 hc        1 P3G      0.045367
@<TRIPOS>BOND
     1    1    2 1   
     2    1   18 1   
     3    1   19 1   
     4    1   20 1   
     5    2    3 1   
     6    2   21 1   
     7    2   22 1   
     8    3    4 1   
     9    4    5 1   
    10    4   23 1   
    11    4   24 1   
    12    5    6 1   
    13    5   25 1   
    14    5   26 1   
    15    6    7 1   
    16    7    8 1   
    17    7   27 1   
    18    7   28 1   
    19    8    9 1   
    20    8   29 1   
    21    8   30 1   
    22    9   10 1   
    23   10   11 1   
    24   10   31 1   
    25   10   32 1   
    26   11   12 1   
    27   11   33 1   
    28   11   34 1   
    29   12   13 1   
    30   13   14 1   
    31   13   35 1   
    32   13   36 1   
    33   14   15 1   
    34   14   37 1   
    35   14   38 1   
    36   15   16 1   
    37   16   17 1   
    38   16   39 1   
    39   16   40 1   
    40   17   41 1   
    41   17   42 1   
    42   17   43 1   
@<TRIPOS>SUBSTRUCTURE
     1 P3G         1 TEMP              0 ****  ****    0 ROOT
