@<TRIPOS>MOLECULE
P3G
   43    42     1     0     0
SMALL
bcc


@<TRIPOS>ATOM
      1 C5         -0.7940    2.3530    0.8840 c3        1 P3G     -0.097100
      2 C6         -0.5030    0.8810    0.7050 c3        1 P3G      0.131400
      3 O3          0.9000    0.7100    0.9000 os        1 P3G     -0.428600
      4 C7          1.3060   -0.6470    0.7380 c3        1 P3G      0.126400
      5 C8          2.7810   -0.7060    1.1250 c3        1 P3G      0.127400
      6 O4          2.8520   -1.4630    2.3310 os        1 P3G     -0.429600
      7 C9          4.1610   -1.4570    2.8970 c3        1 P3G      0.127400
      8 C10         4.1340   -2.4380    4.0640 c3        1 P3G      0.127400
      9 O5          4.8710   -3.5850    3.6460 os        1 P3G     -0.429600
     10 C11         4.7890   -4.6520    4.5880 c3        1 P3G      0.127400
     11 C12         5.7530   -5.7310    4.1070 c3        1 P3G      0.127400
     12 O6          6.8660   -5.7060    4.9980 os        1 P3G     -0.429600
     13 C13         7.9230   -6.5610    4.5660 c3        1 P3G      0.127400
     14 C14         8.9530   -6.5760    5.6910 c3        1 P3G      0.126400
     15 O7          8.9310   -7.8910    6.2420 os        1 P3G     -0.428600
     16 C15         9.7530   -8.0050    7.4020 c3        1 P3G      0.131400
     17 C16         9.6550   -9.4380    7.8700 c3        1 P3G     -0.097100
     18 H51        -0.4960    2.6870    1.9060 hc        1 P3G      0.045033
     19 H5         -1.8860    2.5330    0.7430 hc        1 P3G      0.045033
     20 H52        -0.2230    2.9560    0.1380 hc        1 P3G      0.045033
     21 H61        -1.0630    0.2640    1.4580 h1        1 P3G      0.024700
     22 H62        -0.7820    0.5360   -0.3270 h1        1 P3G      0.024700
     23 H71         0.6950   -1.3180    1.3970 h1        1 P3G      0.041700
     24 H72         1.1690   -0.9470   -0.3340 h1        1 P3G      0.041700
     25 H81         3.3770   -1.2250    0.3290 h1        1 P3G      0.043200
     26 H82         3.1910    0.3260    1.2900 h1        1 P3G      0.043200
     27 H91         4.3990   -0.4230    3.2600 h1        1 P3G      0.043200
     28 H92         4.9170   -1.7710    2.1290 h1        1 P3G      0.043200
     29 H101        4.6300   -1.9900    4.9640 h1        1 P3G      0.043700
     30 H102        3.0790   -2.7250    4.3180 h1        1 P3G      0.043700
     31 H111        3.7390   -5.0470    4.6070 h1        1 P3G      0.043700
     32 H112        5.0740   -4.2900    5.6110 h1        1 P3G      0.043700
     33 H121        6.0920   -5.5230    3.0570 h1        1 P3G      0.043200
     34 H122        5.2670   -6.7410    4.1540 h1        1 P3G      0.043200
     35 H131        8.3720   -6.1450    3.6260 h1        1 P3G      0.043200
     36 H132        7.5310   -7.5950    4.3710 h1        1 P3G      0.043200
     37 H141        8.6950   -5.8190    6.4780 h1        1 P3G      0.041700
     38 H142        9.9780   -6.3630    5.2880 h1        1 P3G      0.041700
     39 H151        9.3850   -7.2960    8.1920 h1        1 P3G      0.024700
     40 H152       10.8110   -7.7370    7.1390 h1        1 P3G      0.024700
     41 H16         8.5970   -9.6970    8.1110 hc        1 P3G      0.045033
     42 H162       10.2830   -9.5730    8.7820 hc        1 P3G      0.045033
     43 H161       10.0120  -10.1330    7.0730 hc        1 P3G      0.045033
@<TRIPOS>BOND
     1    1    2 1   
     2    1   18 1   
     3    1   19 1   
     4    1   20 1   
     5    2    3 1   
     6    2   21 1   
     7    2   22 1   
     8    3    4 1   
     9    4    5 1   
    10    4   23 1   
    11    4   24 1   
    12    5    6 1   
    13    5   25 1   
    14    5   26 1   
    15    6    7 1   
    16    7    8 1   
    17    7   27 1   
    18    7   28 1   
    19    8    9 1   
    20    8   29 1   
    21    8   30 1   
    22    9   10 1   
    23   10   11 1   
    24   10   31 1   
    25   10   32 1   
    26   11   12 1   
    27   11   33 1   
    28   11   34 1   
    29   12   13 1   
    30   13   14 1   
    31   13   35 1   
    32   13   36 1   
    33   14   15 1   
    34   14   37 1   
    35   14   38 1   
    36   15   16 1   
    37   16   17 1   
    38   16   39 1   
    39   16   40 1   
    40   17   41 1   
    41   17   42 1   
    42   17   43 1   
@<TRIPOS>SUBSTRUCTURE
     1 P3G         1 TEMP              0 ****  ****    0 ROOT
