@<TRIPOS>MOLECULE
P3G
   43    42     1     0     0
SMALL
bcc


@<TRIPOS>ATOM
      1 C5         -0.5940   -1.5360   -8.6570 c3        1 P3G     -0.097100
      2 C6         -1.0160   -0.5520   -7.5910 c3        1 P3G      0.132400
      3 O3         -0.1710   -0.7790   -6.4620 os        1 P3G     -0.428600
      4 C7         -0.4760    0.0980   -5.3820 c3        1 P3G      0.128400
      5 C8          0.4890   -0.2740   -4.2600 c3        1 P3G      0.129400
      6 O4          0.2460    0.6640   -3.2140 os        1 P3G     -0.430600
      7 C9          1.0950    0.4410   -2.0890 c3        1 P3G      0.128400
      8 C10         0.6300    1.4030   -1.0010 c3        1 P3G      0.127400
      9 O5         -0.0000    0.6080    0.0000 os        1 P3G     -0.427600
     10 C11        -0.6320    1.4020    1.0020 c3        1 P3G      0.127400
     11 C12        -1.0950    0.4370    2.0890 c3        1 P3G      0.128400
     12 O6         -0.2470    0.6600    3.2140 os        1 P3G     -0.430600
     13 C13        -0.4880   -0.2780    4.2600 c3        1 P3G      0.129400
     14 C14         0.4760    0.0940    5.3820 c3        1 P3G      0.128400
     15 O7          0.1720   -0.7850    6.4620 os        1 P3G     -0.428600
     16 C15         1.0160   -0.5570    7.5900 c3        1 P3G      0.132400
     17 C16         0.5960   -1.5420    8.6560 c3        1 P3G     -0.097100
     18 H51        -1.2300   -1.3950   -9.5620 hc        1 P3G      0.045367
     19 H5          0.4760   -1.3770   -8.9320 hc        1 P3G      0.045367
     20 H52        -0.7090   -2.5830   -8.2880 hc        1 P3G      0.045367
     21 H61        -2.0870   -0.7110   -7.2940 h1        1 P3G      0.025700
     22 H62        -0.8900    0.5060   -7.9440 h1        1 P3G      0.025700
     23 H71        -1.5390   -0.0450   -5.0550 h1        1 P3G      0.038700
     24 H72        -0.3260    1.1640   -5.6970 h1        1 P3G      0.038700
     25 H81         1.5520   -0.1950   -4.6090 h1        1 P3G      0.040700
     26 H82         0.2930   -1.3160   -3.8980 h1        1 P3G      0.040700
     27 H91         2.1560    0.6590   -2.3800 h1        1 P3G      0.044700
     28 H92         1.0100   -0.6240   -1.7430 h1        1 P3G      0.044700
     29 H101       -0.0950    2.1530   -1.4160 h1        1 P3G      0.043700
     30 H102        1.5080    1.9370   -0.5490 h1        1 P3G      0.043700
     31 H111       -1.5100    1.9340    0.5500 h1        1 P3G      0.043700
     32 H112        0.0920    2.1520    1.4170 h1        1 P3G      0.043700
     33 H121       -1.0090   -0.6270    1.7420 h1        1 P3G      0.044700
     34 H122       -2.1570    0.6540    2.3800 h1        1 P3G      0.044700
     35 H131       -0.2920   -1.3200    3.8970 h1        1 P3G      0.040700
     36 H132       -1.5510   -0.2010    4.6090 h1        1 P3G      0.040700
     37 H141        0.3260    1.1600    5.6970 h1        1 P3G      0.038700
     38 H142        1.5390   -0.0480    5.0540 h1        1 P3G      0.038700
     39 H151        0.8900    0.5010    7.9440 h1        1 P3G      0.025700
     40 H152        2.0880   -0.7150    7.2940 h1        1 P3G      0.025700
     41 H16         1.2320   -1.4010    9.5610 hc        1 P3G      0.045367
     42 H162       -0.4740   -1.3850    8.9310 hc        1 P3G      0.045367
     43 H161        0.7110   -2.5890    8.2860 hc        1 P3G      0.045367
@<TRIPOS>BOND
     1    1    2 1   
     2    1   18 1   
     3    1   19 1   
     4    1   20 1   
     5    2    3 1   
     6    2   21 1   
     7    2   22 1   
     8    3    4 1   
     9    4    5 1   
    10    4   23 1   
    11    4   24 1   
    12    5    6 1   
    13    5   25 1   
    14    5   26 1   
    15    6    7 1   
    16    7    8 1   
    17    7   27 1   
    18    7   28 1   
    19    8    9 1   
    20    8   29 1   
    21    8   30 1   
    22    9   10 1   
    23   10   11 1   
    24   10   31 1   
    25   10   32 1   
    26   11   12 1   
    27   11   33 1   
    28   11   34 1   
    29   12   13 1   
    30   13   14 1   
    31   13   35 1   
    32   13   36 1   
    33   14   15 1   
    34   14   37 1   
    35   14   38 1   
    36   15   16 1   
    37   16   17 1   
    38   16   39 1   
    39   16   40 1   
    40   17   41 1   
    41   17   42 1   
    42   17   43 1   
@<TRIPOS>SUBSTRUCTURE
     1 P3G         1 TEMP              0 ****  ****    0 ROOT
