@<TRIPOS>MOLECULE
P3G
   43    42     1     0     0
SMALL
bcc


@<TRIPOS>ATOM
      1 C5          0.0500    1.9610   -1.1570 c3        1 P3G     -0.097100
      2 C6         -0.0850    0.9620   -0.0320 c3        1 P3G      0.132400
      3 O3          1.2220    0.7690    0.5090 os        1 P3G     -0.428600
      4 C7          1.2220   -0.1610    1.5880 c3        1 P3G      0.128400
      5 C8          2.6740   -0.2700    2.0430 c3        1 P3G      0.129400
      6 O4          2.6610   -1.1290    3.1800 os        1 P3G     -0.430600
      7 C9          3.9670   -1.3160    3.7240 c3        1 P3G      0.128400
      8 C10         3.8290   -2.3610    4.8260 c3        1 P3G      0.127400
      9 O5          4.4510   -3.5480    4.3370 os        1 P3G     -0.427600
     10 C11         4.2470   -4.6610    5.2050 c3        1 P3G      0.127400
     11 C12         5.1100   -5.7960    4.6610 c3        1 P3G      0.128400
     12 O6          6.1850   -5.9620    5.5840 os        1 P3G     -0.430600
     13 C13         7.1460   -6.9080    5.1200 c3        1 P3G      0.129400
     14 C14         8.2140   -6.9810    6.2070 c3        1 P3G      0.128400
     15 O7          9.1250   -7.9940    5.7880 os        1 P3G     -0.428600
     16 C15        10.1970   -8.1650    6.7140 c3        1 P3G      0.132400
     17 C16        11.0820   -9.2570    6.1600 c3        1 P3G     -0.097100
     18 H51         0.4600    2.9260   -0.7730 hc        1 P3G      0.045367
     19 H5         -0.9520    2.1430   -1.6110 hc        1 P3G      0.045367
     20 H52         0.7440    1.5730   -1.9400 hc        1 P3G      0.045367
     21 H61        -0.7690    1.3470    0.7720 h1        1 P3G      0.025700
     22 H62        -0.4830   -0.0190   -0.4070 h1        1 P3G      0.025700
     23 H71         0.5730    0.2140    2.4220 h1        1 P3G      0.038700
     24 H72         0.8400   -1.1570    1.2410 h1        1 P3G      0.038700
     25 H81         3.3120   -0.7110    1.2330 h1        1 P3G      0.040700
     26 H82         3.0770    0.7380    2.3250 h1        1 P3G      0.040700
     27 H91         4.3320   -0.3440    4.1490 h1        1 P3G      0.044700
     28 H92         4.6740   -1.6670    2.9260 h1        1 P3G      0.044700
     29 H101        4.3600   -2.0240    5.7550 h1        1 P3G      0.043700
     30 H102        2.7480   -2.5560    5.0580 h1        1 P3G      0.043700
     31 H111        3.1630   -4.9490    5.1860 h1        1 P3G      0.043700
     32 H112        4.5500   -4.3980    6.2530 h1        1 P3G      0.043700
     33 H121        5.5070   -5.5430    3.6430 h1        1 P3G      0.044700
     34 H122        4.5190   -6.7480    4.6100 h1        1 P3G      0.044700
     35 H131        7.5900   -6.5630    4.1500 h1        1 P3G      0.040700
     36 H132        6.6610   -7.9080    4.9720 h1        1 P3G      0.040700
     37 H141        7.7570   -7.2570    7.1940 h1        1 P3G      0.038700
     38 H142        8.7460   -5.9990    6.3070 h1        1 P3G      0.038700
     39 H151        9.7830   -8.4510    7.7180 h1        1 P3G      0.025700
     40 H152       10.7610   -7.2000    6.8150 h1        1 P3G      0.025700
     41 H16        10.5070  -10.2070    6.0500 hc        1 P3G      0.045367
     42 H162       11.9390   -9.4260    6.8540 hc        1 P3G      0.045367
     43 H161       11.4750   -8.9680    5.1560 hc        1 P3G      0.045367
@<TRIPOS>BOND
     1    1    2 1   
     2    1   18 1   
     3    1   19 1   
     4    1   20 1   
     5    2    3 1   
     6    2   21 1   
     7    2   22 1   
     8    3    4 1   
     9    4    5 1   
    10    4   23 1   
    11    4   24 1   
    12    5    6 1   
    13    5   25 1   
    14    5   26 1   
    15    6    7 1   
    16    7    8 1   
    17    7   27 1   
    18    7   28 1   
    19    8    9 1   
    20    8   29 1   
    21    8   30 1   
    22    9   10 1   
    23   10   11 1   
    24   10   31 1   
    25   10   32 1   
    26   11   12 1   
    27   11   33 1   
    28   11   34 1   
    29   12   13 1   
    30   13   14 1   
    31   13   35 1   
    32   13   36 1   
    33   14   15 1   
    34   14   37 1   
    35   14   38 1   
    36   15   16 1   
    37   16   17 1   
    38   16   39 1   
    39   16   40 1   
    40   17   41 1   
    41   17   42 1   
    42   17   43 1   
@<TRIPOS>SUBSTRUCTURE
     1 P3G         1 TEMP              0 ****  ****    0 ROOT
