@<TRIPOS>MOLECULE
P3J
   20    21     1     0     0
SMALL
bcc


@<TRIPOS>ATOM
      1 C0          2.7730    0.3290   -0.0110 cc        1 P3J      0.086300
      2 C1          1.4910    0.9110    0.0970 cd        1 P3J     -0.332300
      3 N1          4.0210    0.9520    0.0010 nh        1 P3J     -0.781200
      4 N2          2.5540   -1.0680   -0.1780 na        1 P3J     -0.034600
      5 C3         -1.5030    1.1730   -0.2530 ca        1 P3J      0.408200
      6 C4         -0.8810   -0.0820   -0.0470 ca        1 P3J     -0.227800
      7 C5          0.5640   -0.1910   -0.0810 cd        1 P3J      0.387800
      8 N6         -2.8340    1.3570   -0.2300 nb        1 P3J     -0.668000
      9 C7         -3.6070    0.2770   -0.0000 ca        1 P3J      0.394200
     10 C8         -3.0900   -1.0130    0.2110 ca        1 P3J     -0.251300
     11 C9         -1.7060   -1.1920    0.1860 ca        1 P3J     -0.070000
     12 N           1.2540   -1.3530   -0.2810 nc        1 P3J     -0.518800
     13 H1          1.2460    1.9500    0.2720 ha        1 P3J      0.169000
     14 H11N        4.0070    1.7860    0.5510 hn        1 P3J      0.392300
     15 H12N        4.7790    0.3510    0.2500 hn        1 P3J      0.392300
     16 H2          3.2150   -1.7050   -0.5610 hn        1 P3J      0.313700
     17 H9         -1.2710   -2.1900    0.3480 ha        1 P3J      0.153000
     18 H7         -4.6960    0.4610    0.0130 h4        1 P3J      0.021100
     19 H8         -3.7640   -1.8600    0.3910 ha        1 P3J      0.143000
     20 H3         -0.8950    2.0740   -0.4510 h4        1 P3J      0.024100
@<TRIPOS>BOND
     1    1    2 2   
     2    1    3 1   
     3    1    4 1   
     4    2    7 1   
     5    2   13 1   
     6    3   14 1   
     7    3   15 1   
     8    4   12 1   
     9    4   16 1   
    10    5    6 ar  
    11    5    8 ar  
    12    5   20 1   
    13    6    7 1   
    14    6   11 ar  
    15    7   12 2   
    16    8    9 ar  
    17    9   10 ar  
    18    9   18 1   
    19   10   11 ar  
    20   10   19 1   
    21   11   17 1   
@<TRIPOS>SUBSTRUCTURE
     1 P3J         1 TEMP              0 ****  ****    0 ROOT
