@<TRIPOS>MOLECULE
P3J
   21    22     1     0     0
SMALL
bcc


@<TRIPOS>ATOM
      1 C0         -0.0040   -0.0090   -0.0200 cc        1 P3J     -0.164700
      2 C1          1.4100   -0.0610   -0.0620 cd        1 P3J     -0.182300
      3 N1         -0.9210   -0.0620   -1.1320 n4        1 P3J     -0.666000
      4 N2         -0.3710    0.1030    1.3420 na        1 P3J      0.023400
      5 C3          4.2430    0.3250    0.9300 ca        1 P3J      0.425200
      6 C4          3.1750    0.0230    1.8090 ca        1 P3J     -0.289800
      7 C5          1.8130    0.0310    1.3230 cd        1 P3J      0.417800
      8 N6          5.5320    0.3310    1.3040 nb        1 P3J     -0.650000
      9 C7          5.8110    0.0360    2.5900 ca        1 P3J      0.432200
     10 C8          4.8220   -0.2720    3.5440 ca        1 P3J     -0.240300
     11 C9          3.4860   -0.2770    3.1460 ca        1 P3J     -0.046000
     12 N           0.6920    0.1290    2.1200 nc        1 P3J     -0.417800
     13 H1          2.0590   -0.1560   -0.9280 ha        1 P3J      0.198000
     14 H11N       -0.3660   -0.1490   -1.9950 hn        1 P3J      0.473467
     15 H12N       -1.5450   -0.8750   -1.0480 hn        1 P3J      0.473467
     16 H2         -1.2880    0.1740    1.7300 hn        1 P3J      0.353700
     17 H9          2.6930   -0.5150    3.8730 ha        1 P3J      0.158000
     18 H7          6.8840    0.0510    2.8640 h4        1 P3J      0.045100
     19 H8          5.1040   -0.5010    4.5810 ha        1 P3J      0.165000
     20 H13        -1.4840    0.7980   -1.1780 hn        1 P3J      0.473467
     21 H3          4.0540    0.5820   -0.1280 h4        1 P3J      0.016100
@<TRIPOS>BOND
     1    1    2 2   
     2    1    3 1   
     3    1    4 1   
     4    2    7 1   
     5    2   13 1   
     6    3   14 1   
     7    3   15 1   
     8    3   20 1   
     9    4   12 1   
    10    4   16 1   
    11    5    6 ar  
    12    5    8 ar  
    13    5   21 1   
    14    6    7 1   
    15    6   11 ar  
    16    7   12 2   
    17    8    9 ar  
    18    9   10 ar  
    19    9   18 1   
    20   10   11 ar  
    21   10   19 1   
    22   11   17 1   
@<TRIPOS>SUBSTRUCTURE
     1 P3J         1 TEMP              0 ****  ****    0 ROOT
