@<TRIPOS>MOLECULE
P3J
   20    21     1     0     0
SMALL
bcc


@<TRIPOS>ATOM
      1 C0          0.0010   -0.0190   -0.0690 cc        1 P3J      0.086300
      2 C1          1.4130   -0.0340   -0.0810 cd        1 P3J     -0.332300
      3 N1         -0.8840    0.0110   -1.1470 nv        1 P3J     -0.781200
      4 N2         -0.3770   -0.0010    1.3040 na        1 P3J     -0.034600
      5 C3          4.2260    0.4050    0.9410 ca        1 P3J      0.408200
      6 C4          3.1630    0.0510    1.8060 ca        1 P3J     -0.227800
      7 C5          1.7990    0.0410    1.3160 cd        1 P3J      0.387800
      8 N6          5.5160    0.4310    1.3170 nb        1 P3J     -0.668000
      9 C7          5.7980    0.1030    2.5940 ca        1 P3J      0.394200
     10 C8          4.8160   -0.2580    3.5340 ca        1 P3J     -0.251300
     11 C9          3.4800   -0.2830    3.1310 ca        1 P3J     -0.070000
     12 N           0.6860    0.0980    2.1060 nc        1 P3J     -0.518800
     13 H1          2.0680   -0.0890   -0.9400 ha        1 P3J      0.169000
     14 H11N       -0.4980   -0.4440   -1.9490 hn        1 P3J      0.392300
     15 H12N       -1.8030   -0.3200   -0.9360 hn        1 P3J      0.392300
     16 H2         -1.2630    0.2960    1.6460 hn        1 P3J      0.313700
     17 H9          2.6890   -0.5610    3.8440 ha        1 P3J      0.153000
     18 H7          6.8660    0.1340    2.8720 h4        1 P3J      0.021100
     19 H8          5.0990   -0.5140    4.5630 ha        1 P3J      0.143000
     20 H3          4.0250    0.6860   -0.1090 h4        1 P3J      0.024100
@<TRIPOS>BOND
     1    1    2 2   
     2    1    3 1   
     3    1    4 1   
     4    2    7 1   
     5    2   13 1   
     6    3   14 1   
     7    3   15 1   
     8    4   12 1   
     9    4   16 1   
    10    5    6 ar  
    11    5    8 ar  
    12    5   20 1   
    13    6    7 1   
    14    6   11 ar  
    15    7   12 2   
    16    8    9 ar  
    17    9   10 ar  
    18    9   18 1   
    19   10   11 ar  
    20   10   19 1   
    21   11   17 1   
@<TRIPOS>SUBSTRUCTURE
     1 P3J         1 TEMP              0 ****  ****    0 ROOT
