@<TRIPOS>MOLECULE
P3J
   20    21     1     0     0
SMALL
bcc


@<TRIPOS>ATOM
      1 C0         -0.0020   -0.0210   -0.0650 cc        1 P3J      0.086300
      2 C1          1.4100   -0.0360   -0.0790 cd        1 P3J     -0.332300
      3 N1         -0.8890    0.0070   -1.1410 nh        1 P3J     -0.781200
      4 N2         -0.3770   -0.0010    1.3090 na        1 P3J     -0.034600
      5 C3          4.2240    0.4090    0.9380 ca        1 P3J      0.408200
      6 C4          3.1630    0.0530    1.8050 ca        1 P3J     -0.227800
      7 C5          1.7990    0.0420    1.3170 cd        1 P3J      0.387800
      8 N6          5.5150    0.4360    1.3120 nb        1 P3J     -0.668000
      9 C7          5.8000    0.1060    2.5880 ca        1 P3J      0.394200
     10 C8          4.8210   -0.2580    3.5280 ca        1 P3J     -0.251300
     11 C9          3.4840   -0.2840    3.1290 ca        1 P3J     -0.070000
     12 N           0.6870    0.1000    2.1090 nc        1 P3J     -0.518800
     13 H1          2.0650   -0.0920   -0.9390 ha        1 P3J      0.169000
     14 H11N       -0.5030   -0.4490   -1.9420 hn        1 P3J      0.392300
     15 H12N       -1.8070   -0.3230   -0.9280 hn        1 P3J      0.392300
     16 H2         -1.2620    0.2960    1.6520 hn        1 P3J      0.313700
     17 H9          2.6950   -0.5650    3.8420 ha        1 P3J      0.153000
     18 H7          6.8690    0.1380    2.8640 h4        1 P3J      0.021100
     19 H8          5.1060   -0.5160    4.5560 ha        1 P3J      0.143000
     20 H3          4.0210    0.6930   -0.1110 h4        1 P3J      0.024100
@<TRIPOS>BOND
     1    1    2 2   
     2    1    3 1   
     3    1    4 1   
     4    2    7 1   
     5    2   13 1   
     6    3   14 1   
     7    3   15 1   
     8    4   12 1   
     9    4   16 1   
    10    5    6 ar  
    11    5    8 ar  
    12    5   20 1   
    13    6    7 1   
    14    6   11 ar  
    15    7   12 2   
    16    8    9 ar  
    17    9   10 ar  
    18    9   18 1   
    19   10   11 ar  
    20   10   19 1   
    21   11   17 1   
@<TRIPOS>SUBSTRUCTURE
     1 P3J         1 TEMP              0 ****  ****    0 ROOT
