@<TRIPOS>MOLECULE
P3J
   20    15     1     0     0
SMALL
bcc


@<TRIPOS>ATOM
      1 C0         -1.4100    1.3950   -1.7730 c1        1 P3J      0.029000
      2 C1         -0.3060    1.3850   -0.9700 c1        1 P3J     -0.268000
      3 N1         -1.6420    2.2740   -2.8620 n2        1 P3J     -0.290000
      4 N2         -2.2260    0.3980   -1.3710 n2        1 P3J     -0.179000
      5 C3          1.2120   -1.5060    0.0730 c1        1 P3J     -0.046000
      6 C4          0.5080   -0.4990    0.7140 c1        1 P3J     -0.056000
      7 C5         -0.4500    0.3710   -0.0690 c2        1 P3J     -0.049000
      8 N6          2.0420   -2.3180    0.7860 n1        1 P3J     -0.142000
      9 C7          2.1810   -2.1410    2.1300 c1        1 P3J     -0.128000
     10 C8          1.4790   -1.1340    2.7730 c1        1 P3J     -0.128000
     11 C9          0.6470   -0.3200    2.0600 c1        1 P3J     -0.081000
     12 N          -1.6300   -0.2380   -0.3120 n2        1 P3J     -0.083000
     13 H1          0.4370    2.0170   -1.0090 DU        1 P3J      0.216000
     14 H11N       -2.3860    2.1700   -3.3820 hn        1 P3J      0.186500
     15 H12N       -1.0420    2.9380   -3.0480 hn        1 P3J      0.186500
     16 H2         -3.0330    0.1850   -1.7390 DU        1 P3J      0.216000
     17 H3          1.1130   -1.6340   -0.8890 ha        1 P3J      0.175000
     18 H9          0.1520    0.3890    2.5130 ha        1 P3J      0.141000
     19 H7          2.7760   -2.7230    2.6400 ha        1 P3J      0.150000
     20 H8          1.5790   -1.0070    3.7360 ha        1 P3J      0.150000
@<TRIPOS>BOND
     1    1    2 1   
     2    1    4 1   
     3    2    7 1   
     4    3   14 1   
     5    3   15 1   
     6    4   12 1   
     7    5    8 1   
     8    5   17 1   
     9    6    7 1   
    10    6   11 1   
    11    7   12 1   
    12    9   10 1   
    13    9   19 1   
    14   10   20 1   
    15   11   18 1   
@<TRIPOS>SUBSTRUCTURE
     1 P3J         1 TEMP              0 ****  ****    0 ROOT
