@<TRIPOS>MOLECULE
P3N
   81    84     1     0     0
SMALL
bcc


@<TRIPOS>ATOM
      1 C32        -3.9180   -2.8130   -0.7480 cc        1 P3N     -0.312600
      2 C28        -4.8390   -3.4370    0.0690 cd        1 P3N      0.263000
      3 C35        -5.7630   -4.5610   -0.0520 c3        1 P3N     -0.142400
      4 O29        -4.8200   -2.7620    1.3240 os        1 P3N     -0.107100
      5 N30        -3.9510   -1.7840    1.3010 nd        1 P3N     -0.323300
      6 C31        -3.3640   -1.7470    0.0840 cc        1 P3N      0.262800
      7 C33        -2.3150   -0.8120   -0.3870 c         1 P3N      0.604600
      8 O34        -1.7500   -0.9970   -1.4870 o         1 P3N     -0.616100
      9 C5          0.4340    0.8500    0.2950 c         1 P3N      0.646100
     10 C41        -6.6590    3.4250    1.5330 c3        1 P3N     -0.089767
     11 C42        -6.6320    2.3960   -0.7390 c3        1 P3N     -0.089767
     12 C43        -6.8460    4.8600   -0.4890 c3        1 P3N     -0.089767
     13 C37        -4.7050    3.7100    0.0580 cc        1 P3N      0.542300
     14 N36        -3.8520    2.6760    0.5500 nc        1 P3N     -0.687000
     15 N38        -3.9670    4.7470   -0.4150 nd        1 P3N     -0.364300
     16 O39        -2.7010    4.4360   -0.2550 os        1 P3N     -0.139100
     17 C1         -2.6240    3.1450    0.3480 cd        1 P3N      0.489700
     18 C2         -1.2750    2.6230    0.6350 c3        1 P3N     -0.117700
     19 C3         -1.0370    1.2500   -0.0130 c3        1 P3N      0.047700
     20 N4         -1.9650    0.2420    0.4290 n         1 P3N     -0.547900
     21 N8          0.9320   -0.2320   -0.3820 n         1 P3N     -0.547900
     22 C7          2.2780   -0.7120   -0.1820 c3        1 P3N      0.036700
     23 C10         3.3080    0.0670   -1.0460 c         1 P3N      0.631100
     24 O14         3.9700   -0.5080   -1.9310 o         1 P3N     -0.609100
     25 C9          2.4310   -2.2080   -0.4890 c3        1 P3N     -0.080400
     26 C12         1.6270   -3.0660    0.4670 c3        1 P3N     -0.038100
     27 C13         1.8850   -4.5160    0.2430 ca        1 P3N     -0.080300
     28 C23         1.4220   -5.1410   -0.9210 ca        1 P3N     -0.125500
     29 C27         2.5780   -5.2700    1.1960 ca        1 P3N     -0.125500
     30 C24         1.6510   -6.5000   -1.1280 ca        1 P3N     -0.128000
     31 C26         2.8050   -6.6290    0.9880 ca        1 P3N     -0.128000
     32 C25         2.3430   -7.2470   -0.1740 ca        1 P3N     -0.131000
     33 C16         5.7230    2.3230   -0.6900 ca        1 P3N     -0.128300
     34 C17         6.0730    3.4960   -0.0170 ca        1 P3N     -0.112000
     35 C19         8.1780    2.4980    0.6560 ca        1 P3N     -0.071300
     36 C21         6.6030    1.2350   -0.6850 ca        1 P3N     -0.112000
     37 N11         3.4170    1.4190   -0.8020 n         1 P3N     -0.552900
     38 C18         7.2930    3.5830    0.6500 ca        1 P3N     -0.134500
     39 C22         9.4810    2.5960    1.3510 c3        1 P3N     -0.054800
     40 C20         7.8210    1.3230   -0.0170 ca        1 P3N     -0.134500
     41 H32        -3.6300   -3.0220   -1.7740 ha        1 P3N      0.197000
     42 H35        -5.1880   -5.5210   -0.1030 hc        1 P3N      0.070700
     43 H35A       -6.4540   -4.6050    0.8280 hc        1 P3N      0.070700
     44 H35B       -6.3700   -4.4570   -0.9860 hc        1 P3N      0.070700
     45 H41        -6.2520    2.4790    1.9620 hc        1 P3N      0.045811
     46 H41A       -6.3130    4.2830    2.1580 hc        1 P3N      0.045811
     47 H41B       -7.7750    3.3830    1.5700 hc        1 P3N      0.045811
     48 H42        -7.7470    2.3300   -0.7530 hc        1 P3N      0.045811
     49 H42A       -6.2660    2.4950   -1.7880 hc        1 P3N      0.045811
     50 H42B       -6.2260    1.4540   -0.3000 hc        1 P3N      0.045811
     51 H43        -6.5520    5.7600    0.1030 hc        1 P3N      0.045811
     52 H43A       -6.5360    5.0100   -1.5500 hc        1 P3N      0.045811
     53 H43B       -7.9580    4.7600   -0.4540 hc        1 P3N      0.045811
     54 H2         -0.5020    3.3370    0.2360 hc        1 P3N      0.107700
     55 H2A        -1.1280    2.5590    1.7500 hc        1 P3N      0.107700
     56 H3         -1.1280    1.3590   -1.1400 h1        1 P3N      0.099700
     57 HN4        -2.4540    0.4060    1.2800 hn        1 P3N      0.348500
     58 HN8         0.3740   -0.6910   -1.0700 hn        1 P3N      0.349500
     59 H7          2.5550   -0.5350    0.9040 h1        1 P3N      0.086700
     60 H9          2.1310   -2.4180   -1.5490 hc        1 P3N      0.073700
     61 H9A         3.5230   -2.4570   -0.4040 hc        1 P3N      0.073700
     62 H12         0.5300   -2.8680    0.3270 hc        1 P3N      0.050200
     63 H12A        1.8820   -2.7890    1.5250 hc        1 P3N      0.050200
     64 H23         0.8770   -4.5530   -1.6750 ha        1 P3N      0.132000
     65 H27         2.9460   -4.7880    2.1150 ha        1 P3N      0.132000
     66 H24         1.2860   -6.9830   -2.0460 ha        1 P3N      0.131000
     67 H26         3.3520   -7.2150    1.7420 ha        1 P3N      0.131000
     68 H25         2.5240   -8.3190   -0.3390 ha        1 P3N      0.130000
     69 H15         4.6310    1.7940   -2.4620 h1        1 P3N      0.066700
     70 H15A        3.9910    3.2600   -1.5710 h1        1 P3N      0.066700
     71 H17         5.3860    4.3550   -0.0130 ha        1 P3N      0.141000
     72 H21         6.3210    0.3110   -1.2170 ha        1 P3N      0.141000
     73 HN11        3.0100    1.7810    0.0340 hn        1 P3N      0.330500
     74 H18         7.5630    4.5100    1.1780 ha        1 P3N      0.132000
     75 H22         9.4310    3.3220    2.2000 hc        1 P3N      0.044367
     76 H22A        9.7950    1.6010    1.7540 hc        1 P3N      0.044367
     77 H22B       10.2690    2.9470    0.6370 hc        1 P3N      0.044367
     78 H20         8.5090    0.4640   -0.0170 ha        1 P3N      0.132000
     79 O6          1.1140    1.5020    1.1150 o         1 P3N     -0.632100
     80 C40        -6.2070    3.6040    0.0880 c3        1 P3N     -0.066300
     81 C15         4.4240    2.2260   -1.4390 c3        1 P3N      0.130300
@<TRIPOS>BOND
     1    1    2 2   
     2    1    6 1   
     3    1   41 1   
     4    2    3 1   
     5    2    4 1   
     6    3   42 1   
     7    3   43 1   
     8    3   44 1   
     9    4    5 1   
    10    5    6 2   
    11    6    7 1   
    12    7    8 2   
    13    7   20 1   
    14    9   19 1   
    15    9   21 1   
    16    9   79 2   
    17   10   45 1   
    18   10   46 1   
    19   10   47 1   
    20   10   80 1   
    21   11   48 1   
    22   11   49 1   
    23   11   50 1   
    24   11   80 1   
    25   12   51 1   
    26   12   52 1   
    27   12   53 1   
    28   12   80 1   
    29   13   14 1   
    30   13   15 2   
    31   13   80 1   
    32   14   17 2   
    33   15   16 1   
    34   16   17 1   
    35   17   18 1   
    36   18   19 1   
    37   18   54 1   
    38   18   55 1   
    39   19   20 1   
    40   19   56 1   
    41   20   57 1   
    42   21   22 1   
    43   21   58 1   
    44   22   23 1   
    45   22   25 1   
    46   22   59 1   
    47   23   24 2   
    48   23   37 1   
    49   25   26 1   
    50   25   60 1   
    51   25   61 1   
    52   26   27 1   
    53   26   62 1   
    54   26   63 1   
    55   27   28 ar  
    56   27   29 ar  
    57   28   30 ar  
    58   28   64 1   
    59   29   31 ar  
    60   29   65 1   
    61   30   32 ar  
    62   30   66 1   
    63   31   32 ar  
    64   31   67 1   
    65   32   68 1   
    66   33   34 ar  
    67   33   36 ar  
    68   33   81 1   
    69   34   38 ar  
    70   34   71 1   
    71   35   38 ar  
    72   35   39 1   
    73   35   40 ar  
    74   36   40 ar  
    75   36   72 1   
    76   37   73 1   
    77   37   81 1   
    78   38   74 1   
    79   39   75 1   
    80   39   76 1   
    81   39   77 1   
    82   40   78 1   
    83   69   81 1   
    84   70   81 1   
@<TRIPOS>SUBSTRUCTURE
     1 P3N         1 TEMP              0 ****  ****    0 ROOT
