@<TRIPOS>MOLECULE
P3N
   81    73     1     0     0
SMALL
bcc


@<TRIPOS>ATOM
      1 C32         4.5610   -0.0220   -5.3370 c1        1 P3N     -0.182000
      2 C28         5.9130    0.2350   -5.3200 c1        1 P3N     -0.030000
      3 C35         6.7360    0.7760   -6.4810 c2        1 P3N     -0.173500
      4 O29         6.3730   -0.0240   -4.0730 os        1 P3N     -0.052000
      5 N30         5.2970   -0.4480   -3.2970 n2        1 P3N      0.009000
      6 C31         4.1920   -0.4450   -4.0750 c1        1 P3N     -0.154000
      7 C33         2.7870   -0.9000   -3.6500 c1        1 P3N      0.383000
      8 O34         1.9000   -0.9680   -4.4700 o         1 P3N     -0.348000
      9 C5          1.0000   -0.0680   -0.9350 c1        1 P3N      0.277000
     10 C41        -1.4030   -7.3400   -0.8840 c3        1 P3N     -0.207333
     11 C40        -2.2670   -6.3690   -1.6970 c3        1 P3N      0.028000
     12 C42        -2.5080   -6.9460   -3.0910 c3        1 P3N     -0.207333
     13 C43        -3.6040   -6.1660   -0.9910 c3        1 P3N     -0.207333
     14 C37        -1.5450   -5.0240   -1.8200 c2        1 P3N     -0.074000
     15 N36        -0.4050   -4.6630   -1.1660 n2        1 P3N     -0.147000
     16 N38        -1.9500   -3.9780   -2.5560 n2        1 P3N     -0.033000
     17 O39        -1.0620   -2.9580   -2.3650 os        1 P3N     -0.115000
     18 C1         -0.1130   -3.3860   -1.5080 c1        1 P3N      0.022000
     19 C2          1.0140   -2.5410   -0.9290 c2        1 P3N     -0.120000
     20 C3          1.2160   -1.3170   -1.7820 c3        1 P3N      0.005000
     21 N4          2.5480   -1.3140   -2.3030 n2        1 P3N     -0.350000
     22 O6          1.9520    0.5140   -0.4570 o         1 P3N     -0.357000
     23 N8         -0.3350    0.4310   -0.7140 n2        1 P3N     -0.331000
     24 C7         -0.5720    1.4040    0.2950 c3        1 P3N      0.000000
     25 C10        -0.8240    0.7050    1.6290 c2        1 P3N      0.271000
     26 O14        -1.4310   -0.3450    1.6590 o         1 P3N     -0.387000
     27 C9         -1.7860    2.2320   -0.0800 c3        1 P3N     -0.157000
     28 C12        -1.3300    3.5860   -0.6440 c3        1 P3N     -0.122000
     29 C13        -2.5460    4.5300   -0.7650 c1        1 P3N     -0.077000
     30 C23        -2.6010    5.6890   -0.0080 c1        1 P3N     -0.128250
     31 C27        -3.5380    4.2640   -1.6990 c1        1 P3N     -0.125000
     32 C24        -3.6500    6.5860   -0.1830 c1        1 P3N     -0.128250
     33 C26        -4.5860    5.1590   -1.8740 c1        1 P3N     -0.128250
     34 C25        -4.6410    6.3200   -1.1160 c1        1 P3N     -0.128250
     35 C15        -0.4810    0.5990    4.1340 c3        1 P3N      0.006000
     36 C16         0.2490    1.3870    5.2580 c2        1 P3N     -0.122000
     37 C17        -0.4850    2.1590    6.1550 c2        1 P3N     -0.115000
     38 C19         1.5310    2.6530    7.3840 c1        1 P3N     -0.061000
     39 C21         1.6220    1.2480    5.4230 c1        1 P3N     -0.108000
     40 N11        -0.3600    1.3200    2.8800 n         1 P3N     -0.361000
     41 C18         0.1570    2.7920    7.2190 c2        1 P3N     -0.134000
     42 C22         2.2290    3.3150    8.5740 c2        1 P3N     -0.173500
     43 C20         2.2650    1.8820    6.4870 c1        1 P3N     -0.131000
     44 H32         3.9650    0.0770   -6.1080 DU        1 P3N      0.197000
     45 H35         6.3810    1.6490   -6.7550 ha        1 P3N      0.096833
     46 H35A        6.6860    0.1500   -7.2370 ha        1 P3N      0.096833
     47 H35B        7.6760    0.8760   -6.1990 ha        1 P3N      0.096833
     48 H41        -1.2000   -6.9450   -0.0140 hc        1 P3N      0.084778
     49 H41A       -1.8890   -8.1790   -0.7550 hc        1 P3N      0.084778
     50 H41B       -0.5710   -7.5160   -1.3630 hc        1 P3N      0.084778
     51 H42        -1.6680   -7.2960   -3.4480 hc        1 P3N      0.084778
     52 H42A       -2.8440   -6.2420   -3.6820 hc        1 P3N      0.084778
     53 H42B       -3.1640   -7.6670   -3.0360 hc        1 P3N      0.084778
     54 H43        -4.1080   -7.0130   -0.9920 hc        1 P3N      0.084778
     55 H43A       -3.4430   -5.8780   -0.0570 hc        1 P3N      0.084778
     56 H43B       -4.1210   -5.4750   -1.4620 hc        1 P3N      0.084778
     57 H2          1.8310   -3.0610   -0.9130 ha        1 P3N      0.149000
     58 H2A         0.7820   -2.2690   -0.0180 ha        1 P3N      0.149000
     59 H3          0.5760   -1.3250   -2.5220 h1        1 P3N      0.161000
     60 HN4         3.2320   -1.6480   -1.8030 hn        1 P3N      0.256000
     61 HN8        -1.0150    0.1660   -1.2580 hn        1 P3N      0.238000
     62 H7          0.2130    1.9910    0.3760 h1        1 P3N      0.137000
     63 H9         -2.3390    2.3790    0.7150 hc        1 P3N      0.101000
     64 H9A        -2.3130    1.7520   -0.7630 hc        1 P3N      0.101000
     65 H12        -0.6700    3.9820   -0.0460 hc        1 P3N      0.097500
     66 H12A       -0.9300    3.4540   -1.5290 hc        1 P3N      0.097500
     67 H23        -1.8960    5.8780    0.6560 ha        1 P3N      0.131250
     68 H27        -3.4990    3.4470   -2.2320 ha        1 P3N      0.135000
     69 H24        -3.6890    7.4020    0.3500 ha        1 P3N      0.131250
     70 H26        -5.2910    4.9700   -2.5390 ha        1 P3N      0.131250
     71 H25        -5.3770    6.9490   -1.2400 ha        1 P3N      0.131250
     72 H15        -1.4330    0.5020    4.3660 h1        1 P3N      0.109500
     73 H15A       -0.0780   -0.2830    4.0410 h1        1 P3N      0.109500
     74 H17        -1.4470    2.2560    6.0400 ha        1 P3N      0.131000
     75 H21         2.1400    0.7040    4.7900 ha        1 P3N      0.142000
     76 HN11       -0.0240    2.1600    2.8730 hn        1 P3N      0.226000
     77 H18        -0.3560    3.3320    7.8470 ha        1 P3N      0.133000
     78 H22         2.0010    4.2750    8.5970 ha        1 P3N      0.096833
     79 H22A        3.1990    3.2120    8.4820 ha        1 P3N      0.096833
     80 H22B        1.9320    2.8860    9.4070 ha        1 P3N      0.096833
     81 H20         3.2320    1.7850    6.6030 ha        1 P3N      0.136000
@<TRIPOS>BOND
     1    1    2 1   
     2    1    6 1   
     3    2    4 1   
     4    3   45 1   
     5    3   46 1   
     6    3   47 1   
     7    4    5 1   
     8    5    6 1   
     9    7    8 1   
    10    9   20 1   
    11    9   22 1   
    12   10   11 1   
    13   10   48 1   
    14   10   49 1   
    15   10   50 1   
    16   11   12 1   
    17   11   13 1   
    18   11   14 1   
    19   12   51 1   
    20   12   52 1   
    21   12   53 1   
    22   13   54 1   
    23   13   55 1   
    24   13   56 1   
    25   14   15 1   
    26   14   16 1   
    27   15   18 1   
    28   16   17 1   
    29   17   18 1   
    30   19   20 1   
    31   19   57 1   
    32   19   58 1   
    33   20   21 1   
    34   20   59 1   
    35   21   60 1   
    36   23   24 1   
    37   23   61 1   
    38   24   25 1   
    39   24   27 1   
    40   24   62 1   
    41   25   26 1   
    42   25   40 1   
    43   27   28 1   
    44   27   63 1   
    45   27   64 1   
    46   28   29 1   
    47   28   65 1   
    48   28   66 1   
    49   29   31 1   
    50   30   32 1   
    51   30   67 1   
    52   31   68 1   
    53   32   69 1   
    54   33   34 1   
    55   33   70 1   
    56   34   71 1   
    57   35   36 1   
    58   35   40 1   
    59   35   72 1   
    60   35   73 1   
    61   36   37 1   
    62   36   39 1   
    63   37   41 1   
    64   37   74 1   
    65   38   41 1   
    66   38   43 1   
    67   39   75 1   
    68   40   76 1   
    69   41   77 1   
    70   42   78 1   
    71   42   79 1   
    72   42   80 1   
    73   43   81 1   
@<TRIPOS>SUBSTRUCTURE
     1 P3N         1 TEMP              0 ****  ****    0 ROOT
