@<TRIPOS>MOLECULE
P3P
   25    24     1     0     0
SMALL
bcc


@<TRIPOS>ATOM
      1 OTP        -3.1490   -2.2590   -2.2930 o         1 P3P     -0.882300
      2 CP         -1.9060   -2.0580   -2.3040 c         1 P3P      0.910600
      3 OP         -1.3140   -1.8370   -3.3930 o         1 P3P     -0.882300
      4 CAP        -1.1240   -2.0830   -1.0110 c3        1 P3P      0.047500
      5 NP         -0.2300   -3.1890   -1.0190 n3        1 P3P     -0.913800
      6 CBP        -0.3380   -0.8000   -0.8720 c3        1 P3P     -0.055400
      7 CGP        -0.5200   -0.2450    0.5230 c3        1 P3P     -0.343600
      8 PDP         0.3630    1.3350    0.6660 p5        1 P3P      1.601100
      9 OEA         0.6160    1.8830   -0.6860 o         1 P3P     -0.976300
     10 CEP        -0.6450    2.5080    1.6170 c3        1 P3P     -0.338300
     11 OEB         1.7400    1.1040    1.4070 os        1 P3P     -0.768800
     12 P12         2.9890    2.0600    1.2520 p5        1 P3P      1.386900
     13 O15         3.1180    2.9230    2.4840 o         1 P3P     -0.910167
     14 O13         2.8020    2.9390    0.0380 o         1 P3P     -0.910167
     15 O14         4.2400    1.2310    1.0850 o         1 P3P     -0.910167
     16 HAP        -1.7420   -2.1690   -0.2580 h1        1 P3P      0.033700
     17 HNP1       -0.2820   -3.6300   -0.2180 hn        1 P3P      0.332800
     18 HNP2       -0.4570   -3.7610   -1.6970 hn        1 P3P      0.332800
     19 HBP1        0.6110   -0.9810   -1.0300 hc        1 P3P      0.039700
     20 HBP2       -0.6590   -0.1480   -1.5270 hc        1 P3P      0.039700
     21 HGP1       -0.1620   -0.8790    1.1760 hc        1 P3P      0.055200
     22 HGP2       -1.4720   -0.1030    0.6960 hc        1 P3P      0.055200
     23 HEP1       -1.5660    2.4950    1.2810 hc        1 P3P      0.018700
     24 HEP2       -0.2750    3.4110    1.5190 hc        1 P3P      0.018700
     25 HEP3       -0.6390    2.2530    2.5630 hc        1 P3P      0.018700
@<TRIPOS>BOND
     1    1    2 1   
     2    2    3 1   
     3    2    4 1   
     4    4    5 1   
     5    4    6 1   
     6    4   16 1   
     7    5   17 1   
     8    5   18 1   
     9    6    7 1   
    10    6   19 1   
    11    6   20 1   
    12    7    8 1   
    13    7   21 1   
    14    7   22 1   
    15    8    9 2   
    16    8   10 1   
    17    8   11 1   
    18   10   23 1   
    19   10   24 1   
    20   10   25 1   
    21   11   12 1   
    22   12   13 1   
    23   12   14 1   
    24   12   15 1   
@<TRIPOS>SUBSTRUCTURE
     1 P3P         1 TEMP              0 ****  ****    0 ROOT
