@<TRIPOS>MOLECULE
P3Q
   51    52     1     0     0
SMALL
bcc


@<TRIPOS>ATOM
      1 C           3.8850   -3.1780   -0.6740 c         1 P3Q      0.886600
      2 N           2.2360   -2.8490    1.2310 n3        1 P3Q     -0.886800
      3 O           4.1280   -4.3140   -0.1930 o         1 P3Q     -0.832300
      4 C1         -0.8890    2.4860    1.6100 c2        1 P3Q      0.218800
      5 C2         -1.2170    1.0170    1.6940 c3        1 P3Q     -0.071200
      6 C3         -2.2020    0.6220    0.6100 c3        1 P3Q     -0.070400
      7 C4         -2.5090   -0.8620    0.6890 c3        1 P3Q     -0.043100
      8 C5         -3.4710   -1.2800   -0.3670 ca        1 P3Q     -0.071300
      9 C6         -3.0420   -2.0530   -1.4520 ca        1 P3Q     -0.125000
     10 C7         -3.9480   -2.4510   -2.4340 ca        1 P3Q     -0.132500
     11 C8         -5.2900   -2.0820   -2.3410 ca        1 P3Q     -0.140000
     12 C9         -5.7240   -1.3120   -1.2620 ca        1 P3Q     -0.132500
     13 CA          2.8220   -2.2730    0.0290 c3        1 P3Q      0.014500
     14 CB          3.4430   -0.8840    0.2680 c3        1 P3Q     -0.028100
     15 CG          2.5860    0.2060   -0.2730 ca        1 P3Q     -0.164300
     16 CZ          0.9700    2.2720   -1.2700 ca        1 P3Q      0.125100
     17 C10        -4.8200   -0.9130   -0.2790 ca        1 P3Q     -0.125000
     18 C11        -1.7250    3.4270    2.1540 ce        1 P3Q     -0.428200
     19 C12        -2.9500    3.1310    2.8630 c         1 P3Q      0.587100
     20 O12        -3.6820    4.0060    3.3490 o         1 P3Q     -0.588100
     21 OAZ         0.1850    3.3170   -1.7190 oh        1 P3Q     -0.517100
     22 CD1         1.8590    1.0150    0.5940 ca        1 P3Q     -0.053000
     23 CD2         2.4970    0.4350   -1.6670 ca        1 P3Q      0.210100
     24 CE1         1.0220    2.0500    0.1290 ca        1 P3Q     -0.002400
     25 CE2         1.6980    1.4810   -2.1590 ca        1 P3Q     -0.269000
     26 OXT         4.4320   -2.7080   -1.7190 o         1 P3Q     -0.832300
     27 HN          1.9790   -3.7970    1.0120 hn        1 P3Q      0.335800
     28 HNA         2.9480   -2.9060    1.9380 hn        1 P3Q      0.335800
     29 H2         -0.2910    0.3850    1.5960 hc        1 P3Q      0.070200
     30 H2A        -1.6460    0.7950    2.7060 hc        1 P3Q      0.070200
     31 H3         -3.1490    1.2130    0.7210 hc        1 P3Q      0.051700
     32 H3A        -1.7680    0.8640   -0.3960 hc        1 P3Q      0.051700
     33 H4         -1.5530   -1.4450    0.5930 hc        1 P3Q      0.057200
     34 H4A        -2.9420   -1.0990    1.6980 hc        1 P3Q      0.057200
     35 H6         -1.9830   -2.3460   -1.5300 ha        1 P3Q      0.137500
     36 H7         -3.6010   -3.0570   -3.2830 ha        1 P3Q      0.126500
     37 H8         -6.0030   -2.3970   -3.1160 ha        1 P3Q      0.122000
     38 H9         -6.7810   -1.0190   -1.1860 ha        1 P3Q      0.126500
     39 HA          1.9780   -2.1640   -0.7150 h1        1 P3Q      0.046700
     40 HB          3.6310   -0.7090    1.3600 hc        1 P3Q      0.057700
     41 HBA         4.4450   -0.8490   -0.2450 hc        1 P3Q      0.057700
     42 H10        -5.1630   -0.3050    0.5710 ha        1 P3Q      0.137500
     43 H11        -1.4890    4.5010    2.0750 ha        1 P3Q      0.139000
     44 H12        -3.2370    2.0570    2.9580 h4        1 P3Q     -0.025800
     45 HOAD        3.6010   -1.0730   -2.2000 ho        1 P3Q      0.505000
     46 HOAZ        0.2420    3.3320   -2.6850 ho        1 P3Q      0.420000
     47 HD1         1.9390    0.8340    1.6800 ha        1 P3Q      0.145000
     48 HE2         1.6520    1.6580   -3.2420 ha        1 P3Q      0.144000
     49 HNAE        0.3650    3.8480    0.7940 hn        1 P3Q      0.419800
     50 OAD         3.1610   -0.2850   -2.6080 oh        1 P3Q     -0.527100
     51 NAE         0.3190    2.8790    1.0430 nh        1 P3Q     -0.590400
@<TRIPOS>BOND
     1    1    3 1   
     2    1   13 1   
     3    1   26 1   
     4    2   13 1   
     5    2   27 1   
     6    2   28 1   
     7    4    5 1   
     8    4   18 2   
     9    4   51 1   
    10    5    6 1   
    11    5   29 1   
    12    5   30 1   
    13    6    7 1   
    14    6   31 1   
    15    6   32 1   
    16    7    8 1   
    17    7   33 1   
    18    7   34 1   
    19    8    9 ar  
    20    8   17 ar  
    21    9   10 ar  
    22    9   35 1   
    23   10   11 ar  
    24   10   36 1   
    25   11   12 ar  
    26   11   37 1   
    27   12   17 ar  
    28   12   38 1   
    29   13   14 1   
    30   13   39 1   
    31   14   15 1   
    32   14   40 1   
    33   14   41 1   
    34   15   22 ar  
    35   15   23 ar  
    36   16   21 1   
    37   16   24 ar  
    38   16   25 ar  
    39   17   42 1   
    40   18   19 1   
    41   18   43 1   
    42   19   20 2   
    43   19   44 1   
    44   21   46 1   
    45   22   24 ar  
    46   22   47 1   
    47   23   25 ar  
    48   23   50 1   
    49   24   51 1   
    50   25   48 1   
    51   45   50 1   
    52   49   51 1   
@<TRIPOS>SUBSTRUCTURE
     1 P3Q         1 TEMP              0 ****  ****    0 ROOT
