@<TRIPOS>MOLECULE
P3S
   26    25     1     0     0
SMALL
bcc


@<TRIPOS>ATOM
      1 O3A         0.5590   -1.6630   -1.5030 oh        1 P3S     -0.808900
      2 PA          1.7080   -2.0270   -0.3860 p5        1 P3S      1.637600
      3 O1A         1.4960   -3.6340   -0.4910 oh        1 P3S     -0.808900
      4 O2A         1.0560   -1.5770    0.8590 o         1 P3S     -0.886500
      5 NE          3.0730   -1.6040   -0.8140 ne        1 P3S     -1.110900
      6 SD          4.3700   -1.1780   -1.2780 sy        1 P3S      2.111600
      7 OE          4.3410    0.1130   -1.9650 o         1 P3S     -0.742800
      8 CE          5.2550   -0.8220    0.2070 c3        1 P3S     -0.268300
      9 CG          5.2260   -2.1830   -1.9710 c2        1 P3S     -1.470200
     10 CB          5.7850   -3.4640   -1.5100 c3        1 P3S      0.119800
     11 CA          5.4250   -4.6800   -2.3810 c3        1 P3S      0.035500
     12 N           4.0650   -5.1700   -2.1760 n3        1 P3S     -0.892800
     13 C           6.5130   -5.7820   -2.1960 c         1 P3S      0.879600
     14 OT          7.6940   -5.5420   -2.5810 o         1 P3S     -0.871800
     15 O           6.1770   -6.9020   -1.6980 o         1 P3S     -0.871800
     16 HEC1        6.2400   -0.3860   -0.0720 h1        1 P3S      0.065367
     17 HEC2        5.4490   -1.7370    0.8070 h1        1 P3S      0.065367
     18 HEC3        4.7230   -0.0870    0.8480 h1        1 P3S      0.065367
     19 HGC1        5.5610   -1.9740   -2.9990 h4        1 P3S      0.173000
     20 HGC2       -0.2680   -1.4440   -1.0920 ho        1 P3S      0.447500
     21 HBC1        5.4770   -3.6640   -0.4450 hc        1 P3S      0.001200
     22 HBC2        6.9090   -3.4000   -1.5130 hc        1 P3S      0.001200
     23 HA          5.4810   -4.3560   -3.4600 h1        1 P3S      0.041700
     24 HN1         4.0580   -6.1510   -2.4090 hn        1 P3S      0.320300
     25 HN2         3.8470   -5.1170   -1.1960 hn        1 P3S      0.320300
     26 HN3         1.8790   -4.0710   -1.2440 ho        1 P3S      0.447500
@<TRIPOS>BOND
     1    1    2 1   
     2    1   20 1   
     3    2    3 1   
     4    2    4 1   
     5    2    5 2   
     6    3   26 1   
     7    5    6 1   
     8    6    7 2   
     9    6    8 1   
    10    6    9 2   
    11    8   16 1   
    12    8   17 1   
    13    8   18 1   
    14    9   10 1   
    15    9   19 1   
    16   10   11 1   
    17   10   21 1   
    18   10   22 1   
    19   11   12 1   
    20   11   13 1   
    21   11   23 1   
    22   12   24 1   
    23   12   25 1   
    24   13   14 1   
    25   13   15 1   
@<TRIPOS>SUBSTRUCTURE
     1 P3S         1 TEMP              0 ****  ****    0 ROOT
