@<TRIPOS>MOLECULE
P3S
   25    22     1     0     0
SMALL
bcc


@<TRIPOS>ATOM
      1 O3A         0.4740    0.7030    3.4550 o         1 P3S     -0.953833
      2 PA         -1.0030    0.9810    3.3170 p5        1 P3S      1.653500
      3 O1A        -1.6650    0.8720    4.6700 o         1 P3S     -0.953833
      4 O2A        -1.2040    2.3740    2.7700 o         1 P3S     -0.953833
      5 NE         -1.6770   -0.1180    2.2850 n2        1 P3S     -1.543000
      6 SD         -1.6840    0.1570    0.7420 ss        1 P3S      2.856000
      7 OE         -1.3850    1.5460    0.5280 o         1 P3S     -1.010000
      8 CE         -2.7600   -0.8280   -0.2650 c2        1 P3S     -0.879000
      9 CG         -0.1430   -0.5640    0.2450 c2        1 P3S     -0.805000
     10 CB          0.5100    0.3120   -0.8020 c3        1 P3S     -0.129000
     11 CA          1.7320   -0.3860   -1.3530 c3        1 P3S     -0.104000
     12 N           2.8970    0.1220   -0.7130 n3        1 P3S     -0.340000
     13 C           1.8260   -0.1390   -2.8410 c2        1 P3S      0.328000
     14 OT          1.8820   -1.1120   -3.6380 o         1 P3S     -0.605000
     15 O           1.8480    1.0400   -3.2830 o         1 P3S     -0.605000
     16 HEC1       -2.6200   -0.6040   -1.2090 ha        1 P3S      0.107333
     17 HEC2       -3.6920   -0.6460   -0.0210 ha        1 P3S      0.107333
     18 HEC3       -2.5640   -1.7770   -0.1210 ha        1 P3S      0.107333
     19 HGC1       -0.3040   -1.4540   -0.1290 ha        1 P3S      0.114500
     20 HGC2        0.4480   -0.6400    1.0210 ha        1 P3S      0.114500
     21 HBC1        0.7750    1.1620   -0.3970 hc        1 P3S      0.082000
     22 HBC2       -0.1240    0.4800   -1.5270 hc        1 P3S      0.082000
     23 HA          1.6620   -1.3470   -1.1860 h1        1 P3S      0.082000
     24 HN1         3.2760   -0.5360   -0.2020 hn        1 P3S      0.124500
     25 HN2         3.4970    0.4000   -1.3470 hn        1 P3S      0.124500
@<TRIPOS>BOND
     1    1    2 1   
     2    2    3 1   
     3    2    4 1   
     4    2    5 1   
     5    5    6 1   
     6    6    7 1   
     7    8   16 1   
     8    8   17 1   
     9    8   18 1   
    10    9   10 1   
    11    9   19 1   
    12    9   20 1   
    13   10   11 1   
    14   10   21 1   
    15   10   22 1   
    16   11   12 1   
    17   11   13 1   
    18   11   23 1   
    19   12   24 1   
    20   12   25 1   
    21   13   14 1   
    22   13   15 1   
@<TRIPOS>SUBSTRUCTURE
     1 P3S         1 TEMP              0 ****  ****    0 ROOT
