@<TRIPOS>MOLECULE
P3S
   26    25     1     0     0
SMALL
bcc


@<TRIPOS>ATOM
      1 O3A         0.7340   -2.0700    0.5470 oh        1 P3S     -0.813400
      2 PA          1.4590   -0.6220    0.1400 p5        1 P3S      1.689600
      3 O1A         1.5670    0.1520    1.4090 o         1 P3S     -0.894000
      4 O2A         0.5210   -0.1960   -0.9390 o         1 P3S     -0.894000
      5 NE          2.8950   -1.0280   -0.4050 n2        1 P3S     -1.118700
      6 SD          4.1510   -1.3970   -0.7770 s6        1 P3S      1.337700
      7 OE          5.0300   -0.4800   -1.4460 o         1 P3S     -0.685800
      8 CE          5.0540   -1.9690    0.5830 c3        1 P3S     -0.325300
      9 CG          4.1350   -2.8520   -1.7220 c3        1 P3S     -0.289600
     10 CB          5.4570   -3.5790   -1.8250 c3        1 P3S     -0.031400
     11 CA          5.5000   -4.6230   -2.9440 c3        1 P3S      0.029500
     12 N           4.4130   -5.5930   -2.8910 n8        1 P3S     -0.891800
     13 C           6.9280   -5.2630   -2.9530 c         1 P3S      0.885600
     14 OT          7.9230   -4.4910   -3.0300 o         1 P3S     -0.852300
     15 O           7.0200   -6.5260   -2.9060 o         1 P3S     -0.852300
     16 HEC1        5.0180   -1.2420    1.4290 h1        1 P3S      0.094700
     17 HEC2        4.6790   -2.9420    0.9760 h1        1 P3S      0.094700
     18 HEC3        6.1270   -2.1070    0.3110 h1        1 P3S      0.094700
     19 HGC1        3.8090   -2.5940   -2.7660 h1        1 P3S      0.103700
     20 HGC2        3.3630   -3.5750   -1.3470 h1        1 P3S      0.103700
     21 HBC1        5.6850   -4.0850   -0.8490 hc        1 P3S      0.050700
     22 HBC2        6.2850   -2.8470   -2.0340 hc        1 P3S      0.050700
     23 HA          5.3860   -4.0830   -3.9300 h1        1 P3S      0.043700
     24 HN1         4.2350   -5.8310   -1.9320 hn        1 P3S      0.328800
     25 HN2        -0.0130   -2.2290   -0.0170 ho        1 P3S      0.411000
     26 HN3         4.7390   -6.4350   -3.3390 hn        1 P3S      0.328800
@<TRIPOS>BOND
     1    1    2 1   
     2    1   25 1   
     3    2    3 1   
     4    2    4 1   
     5    2    5 1   
     6    5    6 2   
     7    6    7 2   
     8    6    8 1   
     9    6    9 1   
    10    8   16 1   
    11    8   17 1   
    12    8   18 1   
    13    9   10 1   
    14    9   19 1   
    15    9   20 1   
    16   10   11 1   
    17   10   21 1   
    18   10   22 1   
    19   11   12 1   
    20   11   13 1   
    21   11   23 1   
    22   12   24 1   
    23   12   26 1   
    24   13   14 1   
    25   13   15 1   
@<TRIPOS>SUBSTRUCTURE
     1 P3S         1 TEMP              0 ****  ****    0 ROOT
