@<TRIPOS>MOLECULE
P3S
   26    25     1     0     0
SMALL
bcc


@<TRIPOS>ATOM
      1 O3A         0.3520   -0.8050   -0.4730 oh        1 P3S     -0.807400
      2 PA          1.5940   -0.8620    0.6360 p5        1 P3S      1.688600
      3 O1A         1.1460   -2.0560    1.4150 o         1 P3S     -0.896500
      4 O2A         1.6560    0.4760    1.2860 o         1 P3S     -0.896500
      5 NE          2.9080   -1.1640   -0.2080 n2        1 P3S     -1.121700
      6 SD          4.0700   -1.4380   -0.8600 s6        1 P3S      1.340700
      7 OE          4.6060   -0.5480   -1.8490 o         1 P3S     -0.684800
      8 CE          5.3580   -1.6790    0.2700 c3        1 P3S     -0.323300
      9 CG          4.0400   -3.0150   -1.5820 c3        1 P3S     -0.292600
     10 CB          5.3920   -3.5920   -1.9400 c3        1 P3S     -0.031400
     11 CA          5.3230   -4.7560   -2.9320 c3        1 P3S      0.029500
     12 N           4.4080   -5.8200   -2.5400 n3        1 P3S     -0.892800
     13 C           6.7850   -5.2390   -3.2090 c         1 P3S      0.886600
     14 OT          7.6330   -4.3810   -3.5800 o         1 P3S     -0.851800
     15 O           7.0490   -6.4710   -3.0710 o         1 P3S     -0.851800
     16 HEC1        6.3360   -1.7570   -0.2640 h1        1 P3S      0.093700
     17 HEC2        5.4400   -0.8270    0.9840 h1        1 P3S      0.093700
     18 HEC3        5.2350   -2.6050    0.8780 h1        1 P3S      0.093700
     19 HGC1        3.4340   -2.9610   -2.5280 h1        1 P3S      0.104700
     20 HGC2        3.5010   -3.7540   -0.9330 h1        1 P3S      0.104700
     21 HBC1        5.9090   -3.9410   -1.0070 hc        1 P3S      0.050200
     22 HBC2        6.0360   -2.8020   -2.4150 hc        1 P3S      0.050200
     23 HA          4.9300   -4.3560   -3.9130 h1        1 P3S      0.043700
     24 HN1         4.7520   -6.6790   -2.9400 hn        1 P3S      0.329800
     25 HN2         4.4450   -5.9330   -1.5430 hn        1 P3S      0.329800
     26 HN3        -0.2340   -1.5390   -0.3390 ho        1 P3S      0.411000
@<TRIPOS>BOND
     1    1    2 1   
     2    1   26 1   
     3    2    3 1   
     4    2    4 1   
     5    2    5 1   
     6    5    6 2   
     7    6    7 2   
     8    6    8 1   
     9    6    9 1   
    10    8   16 1   
    11    8   17 1   
    12    8   18 1   
    13    9   10 1   
    14    9   19 1   
    15    9   20 1   
    16   10   11 1   
    17   10   21 1   
    18   10   22 1   
    19   11   12 1   
    20   11   13 1   
    21   11   23 1   
    22   12   24 1   
    23   12   25 1   
    24   13   14 1   
    25   13   15 1   
@<TRIPOS>SUBSTRUCTURE
     1 P3S         1 TEMP              0 ****  ****    0 ROOT
