@<TRIPOS>MOLECULE
P3S
   25    24     1     0     0
SMALL
bcc


@<TRIPOS>ATOM
      1 O3A         1.9240   -0.6140    3.2080 o         1 P3S     -0.954500
      2 PA          0.4270   -0.4710    3.4230 p5        1 P3S      1.503700
      3 O1A        -0.2620   -1.7780    3.7700 o         1 P3S     -0.954500
      4 O2A         0.0700    0.6720    4.3600 o         1 P3S     -0.954500
      5 NE         -0.1950    0.0060    1.9000 n2        1 P3S     -0.967700
      6 SD         -0.5410    0.4950    0.7020 s6        1 P3S      1.230700
      7 OE         -1.9180    0.7280    0.2870 o         1 P3S     -0.726800
      8 CE          0.2310    2.0280    0.3370 c3        1 P3S     -0.301300
      9 CG          0.1590   -0.4130   -0.6570 c3        1 P3S     -0.267600
     10 CB          0.0100    0.2100   -2.0230 c3        1 P3S     -0.055400
     11 CA          0.2370   -0.7650   -3.1920 c3        1 P3S      0.045500
     12 N           1.4740   -1.5280   -3.1420 n3        1 P3S     -0.907800
     13 C           0.1290    0.0380   -4.5270 c         1 P3S      0.914600
     14 OT         -0.9530   -0.0280   -5.1800 o         1 P3S     -0.870300
     15 O           1.1290    0.7120   -4.9190 o         1 P3S     -0.870300
     16 HEC1        1.3220    1.9070    0.1640 h1        1 P3S      0.067700
     17 HEC2       -0.2190    2.4860   -0.5710 h1        1 P3S      0.067700
     18 HEC3        0.1020    2.7370    1.1850 h1        1 P3S      0.067700
     19 HGC1        1.2420   -0.5890   -0.4390 h1        1 P3S      0.073700
     20 HGC2       -0.3290   -1.4210   -0.6690 h1        1 P3S      0.073700
     21 HBC1       -1.0280    0.6250   -2.1290 hc        1 P3S      0.042200
     22 HBC2        0.7310    1.0640   -2.1290 hc        1 P3S      0.042200
     23 HA         -0.6020   -1.5200   -3.1760 h1        1 P3S      0.039700
     24 HN1         2.2070   -0.9810   -3.5580 hn        1 P3S      0.329800
     25 HN2         1.7250   -1.7000   -2.1860 hn        1 P3S      0.329800
@<TRIPOS>BOND
     1    1    2 1   
     2    2    3 1   
     3    2    4 1   
     4    2    5 1   
     5    5    6 2   
     6    6    7 2   
     7    6    8 1   
     8    6    9 1   
     9    8   16 1   
    10    8   17 1   
    11    8   18 1   
    12    9   10 1   
    13    9   19 1   
    14    9   20 1   
    15   10   11 1   
    16   10   21 1   
    17   10   22 1   
    18   11   12 1   
    19   11   13 1   
    20   11   23 1   
    21   12   24 1   
    22   12   25 1   
    23   13   14 1   
    24   13   15 1   
@<TRIPOS>SUBSTRUCTURE
     1 P3S         1 TEMP              0 ****  ****    0 ROOT
