@<TRIPOS>MOLECULE
P3T
   41    38     1     0     0
SMALL
bcc


@<TRIPOS>ATOM
      1 OAE         0.1540   -3.5940    4.7280 o         1 P3T     -1.243000
      2 PAU         1.6120   -3.2650    4.5590 p3        1 P3T      2.499000
      3 OAF         2.3180   -3.3780    5.9150 o         1 P3T     -1.243000
      4 OAC         2.2370   -4.2360    3.5810 o         1 P3T     -1.243000
      5 OAP         1.7620   -1.7940    4.0070 o         1 P3T     -0.716000
      6 CAM         1.2320   -1.4910    2.6950 c3        1 P3T      0.089000
      7 CAS         1.8030   -0.1140    2.2010 c2        1 P3T     -0.029000
      8 CAH         2.5910    0.6360    3.0330 c1        1 P3T     -0.065000
      9 NAO         3.2030    1.7950    2.5620 n1        1 P3T     -0.148000
     10 CAQ         3.0230    2.1800    1.2930 c1        1 P3T     -0.140000
     11 CAA         3.6200    3.5160    0.8030 c2        1 P3T     -0.149000
     12 CAR         2.2050    1.4050    0.4260 c2        1 P3T     -0.006000
     13 OAD         2.0320    1.7910   -0.9080 oh        1 P3T     -0.290000
     14 CAT         1.6130    0.2800    0.8880 c2        1 P3T     -0.104000
     15 CAG         0.7570   -0.5680   -0.0410 c3        1 P3T     -0.028000
     16 NAN        -0.4370    0.1970   -0.4350 n3        1 P3T     -0.294000
     17 CAL        -1.1740   -0.5320   -1.4890 c3        1 P3T     -0.068000
     18 CAK        -2.5050    0.2740   -1.8740 c3        1 P3T     -0.158000
     19 CAJ        -3.1940   -0.4270   -3.0830 c3        1 P3T     -0.197000
     20 CAI        -4.3940    0.2980   -3.4430 c3        1 P3T     -0.094000
     21 NAB        -5.0070   -0.3290   -4.5230 n3        1 P3T     -0.340000
     22 HAM1        0.2240   -1.4380    2.7430 h1        1 P3T      0.067000
     23 HAM2        1.4950   -2.2040    2.0620 h1        1 P3T      0.067000
     24 HAH         2.7240    0.3590    3.9510 ha        1 P3T      0.221000
     25 HAA1        2.9190    4.0700    0.4470 ha        1 P3T      0.065000
     26 HAA2        4.2880    3.3390    0.1020 ha        1 P3T      0.065000
     27 HAA3        4.0510    3.9790    1.5560 ha        1 P3T      0.065000
     28 HOAD        2.7550    1.5560   -1.3840 ho        1 P3T      0.197000
     29 HAG1        0.4880   -1.3720    0.4170 h1        1 P3T      0.091000
     30 HAG2        1.2890   -0.8110   -0.8650 h1        1 P3T      0.091000
     31 HNAN       -0.1700    1.0400   -0.7660 hn        1 P3T      0.157000
     32 HAL1       -1.4140   -1.4220   -1.1640 h1        1 P3T      0.060000
     33 HAL2       -0.6260   -0.6150   -2.2560 h1        1 P3T      0.060000
     34 HAK1       -2.2700    1.2050   -2.1200 hc        1 P3T      0.083000
     35 HAK2       -3.1210    0.2840   -1.1040 hc        1 P3T      0.083000
     36 HAJ1       -2.5760   -0.4420   -3.8480 hc        1 P3T      0.077000
     37 HAJ2       -3.4310   -1.3440   -2.8360 hc        1 P3T      0.077000
     38 HAI1       -5.0290    0.3110   -2.6540 h1        1 P3T      0.088500
     39 HAI2       -4.1610    1.2130   -3.6880 h1        1 P3T      0.088500
     40 HAB1       -5.8060   -0.6030   -4.2860 hn        1 P3T      0.132000
     41 HAB2       -5.0790    0.2520   -5.2050 hn        1 P3T      0.132000
@<TRIPOS>BOND
     1    1    2 1   
     2    2    3 1   
     3    2    4 1   
     4    5    6 1   
     5    6    7 1   
     6    6   22 1   
     7    6   23 1   
     8    7    8 1   
     9    7   14 1   
    10    8   24 1   
    11    9   10 1   
    12   10   12 1   
    13   11   25 1   
    14   11   26 1   
    15   11   27 1   
    16   12   13 1   
    17   12   14 1   
    18   13   28 1   
    19   14   15 1   
    20   15   16 1   
    21   15   29 1   
    22   15   30 1   
    23   16   17 1   
    24   16   31 1   
    25   17   18 1   
    26   17   32 1   
    27   17   33 1   
    28   18   19 1   
    29   18   34 1   
    30   18   35 1   
    31   19   20 1   
    32   19   36 1   
    33   19   37 1   
    34   20   21 1   
    35   20   38 1   
    36   20   39 1   
    37   21   40 1   
    38   21   41 1   
@<TRIPOS>SUBSTRUCTURE
     1 P3T         1 TEMP              0 ****  ****    0 ROOT
