@<TRIPOS>MOLECULE
P3T
   41    41     1     0     0
SMALL
bcc


@<TRIPOS>ATOM
      1 OAE        -1.4470   -3.0910   -0.0210 o         1 P3T     -0.929500
      2 PAU        -0.0350   -3.2980   -0.5270 p5        1 P3T      1.327900
      3 OAF         0.8010   -4.3100    0.1900 o         1 P3T     -0.929500
      4 OAC         0.0980   -3.1870   -2.0210 o         1 P3T     -0.929500
      5 OAP         0.6860   -1.7760   -0.0420 os        1 P3T     -0.560200
      6 CAM         0.1240   -0.7630   -0.7770 c3        1 P3T      0.225700
      7 CAS         0.4130    0.5930   -0.1990 ca        1 P3T     -0.097600
      8 CAH         1.2730    0.7080    0.9280 ca        1 P3T      0.383200
      9 NAO         1.5990    1.8600    1.5200 nb        1 P3T     -0.673000
     10 CAQ         1.0720    3.0090    1.0180 ca        1 P3T      0.321600
     11 CAA         1.3920    4.3180    1.6570 c3        1 P3T     -0.113400
     12 CAR         0.2000    2.9900   -0.0960 ca        1 P3T     -0.009200
     13 OAD        -0.2980    4.2150   -0.5010 oh        1 P3T     -0.528100
     14 CAT        -0.1340    1.7700   -0.7230 ca        1 P3T     -0.195300
     15 CAG        -1.0370    1.7470   -1.9220 c3        1 P3T      0.196100
     16 NAN        -2.4440    2.0160   -1.6830 n3        1 P3T     -0.827200
     17 CAL        -3.2630    0.8450   -1.4250 c3        1 P3T      0.150800
     18 CAK        -3.3550    0.3780    0.0280 c3        1 P3T     -0.097400
     19 CAJ        -3.8010   -1.0640    0.0910 c3        1 P3T     -0.152400
     20 CAI        -4.0070   -1.5280    1.5350 c3        1 P3T      0.183800
     21 NAB        -3.6880   -2.9090    1.8120 n3        1 P3T     -0.923800
     22 HAM1        0.5220   -0.7910   -1.8360 h1        1 P3T      0.036700
     23 HAM2       -1.0010   -0.8980   -0.8230 h1        1 P3T      0.036700
     24 HAH         1.6950   -0.2300    1.3480 h4        1 P3T      0.073100
     25 HAA1        1.5790    5.0830    0.8640 hc        1 P3T      0.028700
     26 HAA2        0.5180    4.6560    2.2680 hc        1 P3T      0.028700
     27 HAA3        2.2880    4.2550    2.3200 hc        1 P3T      0.028700
     28 HOAD       -0.7040    4.0990   -1.3700 ho        1 P3T      0.412000
     29 HAG1       -0.6850    2.5400   -2.6490 h1        1 P3T      0.056700
     30 HAG2       -0.9240    0.7550   -2.4490 h1        1 P3T      0.056700
     31 HNAN       -2.5360    2.6650   -0.9200 hn        1 P3T      0.341800
     32 HAL1       -4.3000    1.1070   -1.7840 h1        1 P3T      0.048200
     33 HAL2       -2.8930   -0.0150   -2.0550 h1        1 P3T      0.048200
     34 HAK1       -2.3480    0.4610    0.5200 hc        1 P3T      0.031700
     35 HAK2       -4.0630    1.0390    0.5920 hc        1 P3T      0.031700
     36 HAJ1       -4.7510   -1.1960   -0.4870 hc        1 P3T      0.082200
     37 HAJ2       -3.0020   -1.7190   -0.3840 hc        1 P3T      0.082200
     38 HAI1       -3.3770   -0.8910    2.2180 h1        1 P3T      0.003200
     39 HAI2       -5.0860   -1.3530    1.8210 h1        1 P3T      0.003200
     40 HAB1       -4.1160   -3.4900    1.1130 hn        1 P3T      0.374800
     41 HAB2       -2.6860   -3.0450    1.7010 hn        1 P3T      0.374800
@<TRIPOS>BOND
     1    1    2 1   
     2    2    3 1   
     3    2    4 1   
     4    2    5 1   
     5    5    6 1   
     6    6    7 1   
     7    6   22 1   
     8    6   23 1   
     9    7    8 ar  
    10    7   14 ar  
    11    8    9 ar  
    12    8   24 1   
    13    9   10 ar  
    14   10   11 1   
    15   10   12 ar  
    16   11   25 1   
    17   11   26 1   
    18   11   27 1   
    19   12   13 1   
    20   12   14 ar  
    21   13   28 1   
    22   14   15 1   
    23   15   16 1   
    24   15   29 1   
    25   15   30 1   
    26   16   17 1   
    27   16   31 1   
    28   17   18 1   
    29   17   32 1   
    30   17   33 1   
    31   18   19 1   
    32   18   34 1   
    33   18   35 1   
    34   19   20 1   
    35   19   36 1   
    36   19   37 1   
    37   20   21 1   
    38   20   38 1   
    39   20   39 1   
    40   21   40 1   
    41   21   41 1   
@<TRIPOS>SUBSTRUCTURE
     1 P3T         1 TEMP              0 ****  ****    0 ROOT
