@<TRIPOS>MOLECULE
P3T
   43    43     1     0     0
SMALL
bcc


@<TRIPOS>ATOM
      1 OAE         0.0000    0.0000    0.0000 o         1 P3T     -0.564500
      2 PAU         1.4790    0.0000    0.0000 p5        1 P3T      0.763900
      3 OAF         2.0160    0.0000    1.5180 o         1 P3T     -0.564500
      4 OAC         2.0170    1.3140   -0.7590 o         1 P3T     -0.564500
      5 OAP         2.0160   -1.3150   -0.7580 os        1 P3T     -0.476200
      6 CAM         1.6270   -2.6400   -0.3890 c3        1 P3T      0.345700
      7 CAS         2.3060   -3.6340   -1.2960 ca        1 P3T     -0.155600
      8 CAH         3.1560   -3.2000   -2.2970 ca        1 P3T      0.443200
      9 NAO         3.7550   -4.0620   -3.0950 nb        1 P3T     -0.539000
     10 CAQ         3.5730   -5.3620   -2.9760 ca        1 P3T      0.332600
     11 CAA         4.2830   -6.3040   -3.9150 c3        1 P3T     -0.032400
     12 CAR         2.7350   -5.8730   -1.9950 ca        1 P3T     -0.002200
     13 OAD         2.5510   -7.2150   -1.8750 oh        1 P3T     -0.517100
     14 CAT         2.0910   -4.9930   -1.1320 ca        1 P3T     -0.217300
     15 CAG         1.1770   -5.5050   -0.0480 c3        1 P3T      0.063100
     16 NAN        -0.1920   -5.6060   -0.5700 ny        1 P3T     -0.059000
     17 CAL        -1.1130   -6.1040    0.4610 c3        1 P3T     -0.025200
     18 CAK        -2.5260   -6.1950   -0.1190 c3        1 P3T     -0.036400
     19 CAJ        -3.4850   -6.7120    0.9550 c3        1 P3T     -0.025400
     20 CAI        -4.8990   -6.8050    0.3750 c3        1 P3T     -0.016200
     21 NAB        -5.8190   -7.3020    1.4060 nz        1 P3T     -0.196600
     22 HAM1        0.5530   -2.7400   -0.4830 h1        1 P3T     -0.021800
     23 HAM2        1.9190   -2.8290    0.6370 h1        1 P3T     -0.021800
     24 HAH         3.3310   -2.1390   -2.4270 h4        1 P3T      0.045100
     25 HAA1        3.5610   -6.9670   -4.3750 hc        1 P3T      0.014700
     26 HAA2        5.0080   -6.8870   -3.3610 hc        1 P3T      0.014700
     27 HAA3        4.7900   -5.7330   -4.6840 hc        1 P3T      0.014700
     28 HOAD        3.2770   -7.5910   -1.4060 ho        1 P3T      0.412000
     29 HAG1        1.5140   -6.4820    0.2760 hx        1 P3T      0.071700
     30 HAG2        1.1940   -4.8210    0.7920 hx        1 P3T      0.071700
     31 HNAN       -0.2010   -6.2350   -1.3490 hn        1 P3T      0.245800
     32 HAL1       -0.7930   -7.0850    0.7880 hx        1 P3T      0.066700
     33 HAL2       -1.1120   -5.4240    1.3040 hx        1 P3T      0.066700
     34 HAK1       -2.5270   -6.8760   -0.9620 hc        1 P3T      0.034700
     35 HAK2       -2.8460   -5.2140   -0.4470 hc        1 P3T      0.034700
     36 HAJ1       -3.1650   -7.6940    1.2830 hc        1 P3T      0.028700
     37 HAJ2       -3.4840   -6.0320    1.7970 hc        1 P3T      0.028700
     38 HAI1       -5.2190   -5.8230    0.0480 hx        1 P3T      0.052200
     39 HAI2       -4.8990   -7.4850   -0.4680 hx        1 P3T      0.052200
     40 HAB1       -5.8190   -6.6740    2.1850 hn        1 P3T      0.196133
     41 HAB2       -6.7440   -7.3620    1.0270 hn        1 P3T      0.196133
     42 HAN2       -0.4960   -4.7020   -0.8740 hn        1 P3T      0.245800
     43 HAB3       -5.5250   -8.2100    1.7070 hn        1 P3T      0.196133
@<TRIPOS>BOND
     1    1    2 1   
     2    2    3 1   
     3    2    4 1   
     4    2    5 1   
     5    5    6 1   
     6    6    7 1   
     7    6   22 1   
     8    6   23 1   
     9    7    8 ar  
    10    7   14 ar  
    11    8    9 ar  
    12    8   24 1   
    13    9   10 ar  
    14   10   11 1   
    15   10   12 ar  
    16   11   25 1   
    17   11   26 1   
    18   11   27 1   
    19   12   13 1   
    20   12   14 ar  
    21   13   28 1   
    22   14   15 1   
    23   15   16 1   
    24   15   29 1   
    25   15   30 1   
    26   16   17 1   
    27   16   31 1   
    28   16   42 1   
    29   17   18 1   
    30   17   32 1   
    31   17   33 1   
    32   18   19 1   
    33   18   34 1   
    34   18   35 1   
    35   19   20 1   
    36   19   36 1   
    37   19   37 1   
    38   20   21 1   
    39   20   38 1   
    40   20   39 1   
    41   21   40 1   
    42   21   41 1   
    43   21   43 1   
@<TRIPOS>SUBSTRUCTURE
     1 P3T         1 TEMP              0 ****  ****    0 ROOT
