@<TRIPOS>MOLECULE
P3U
   65    68     1     0     0
SMALL
bcc


@<TRIPOS>ATOM
      1 CAP        -0.1290    0.2530   -0.2610 c3        1 P3U      0.183800
      2 CAN         1.3560    0.0280   -0.6180 c3        1 P3U      0.158800
      3 NAU         2.1800   -0.2520    0.5400 n7        1 P3U     -0.821200
      4 CAO         1.6460   -1.3070    1.3770 c3        1 P3U      0.158800
      5 CAQ         0.1630   -1.0850    1.7420 c3        1 P3U      0.183800
      6 NBG        -0.6590   -0.8260    0.5650 nh        1 P3U     -0.732300
      7 CBB        -2.0610   -0.8030    0.8230 ca        1 P3U      0.622200
      8 CAM        -2.6630   -1.9720    1.3790 ca        1 P3U     -0.250300
      9 NAS        -2.8190    0.2850    0.4720 nb        1 P3U     -0.702000
     10 CAI        -4.1450    0.2120    0.6560 ca        1 P3U      0.425200
     11 CAJ        -4.8140   -0.8970    1.1960 ca        1 P3U     -0.260300
     12 CAY        -4.0470   -2.0110    1.5640 cp        1 P3U     -0.003000
     13 CAZ        -4.6860   -3.2000    2.1270 cp        1 P3U      0.030000
     14 CAL        -5.9040   -3.6620    1.6130 ca        1 P3U     -0.146500
     15 CAX        -6.5080   -4.7900    2.1650 ca        1 P3U      0.118400
     16 ClH        -7.9560   -5.2910    1.4160 cl        1 P3U     -0.052400
     17 CAK        -4.0950   -3.9010    3.1790 ca        1 P3U     -0.146500
     18 CAW        -4.7210   -5.0310    3.7240 ca        1 P3U      0.118400
     19 ClG        -3.8530   -5.7960    4.9640 cl        1 P3U     -0.052400
     20 CBE        -5.9660   -5.4920    3.2630 ca        1 P3U     -0.313500
     21 SBI        -6.8830   -6.7850    3.9820 sy        1 P3U      1.493200
     22 OAE        -6.2520   -7.2910    5.1250 o         1 P3U     -0.633800
     23 OAF        -8.1870   -6.3020    4.2160 o         1 P3U     -0.633800
     24 NAV        -6.9390   -7.8800    2.7920 nu        1 P3U     -0.747500
     25 CBD        -5.9140   -8.7380    2.4290 cc        1 P3U     -0.067700
     26 CBA        -5.1190   -8.6810    1.2530 cd        1 P3U     -0.091600
     27 CAA        -5.1460   -7.7140    0.1450 c3        1 P3U     -0.036800
     28 NBH        -4.2670   -9.7920    1.3090 na        1 P3U      0.097400
     29 CAD        -3.2470  -10.0690    0.3270 c3        1 P3U      0.039600
     30 NAT        -4.4540  -10.5220    2.4200 nd        1 P3U     -0.507800
     31 CBC        -5.4560   -9.9370    3.1320 cc        1 P3U      0.343600
     32 CAR        -5.9590  -10.4510    4.4290 c3        1 P3U     -0.111700
     33 CBF        -6.8920  -11.6460    4.2570 c3        1 P3U     -0.062700
     34 CAC        -7.1060  -12.3230    5.5950 c3        1 P3U     -0.091100
     35 CAB        -8.2190  -11.2250    3.6640 c3        1 P3U     -0.091100
     36 HAP1       -0.2310    1.2540    0.2490 h1        1 P3U      0.052200
     37 HAP2       -0.7130    0.2840   -1.2220 h1        1 P3U      0.052200
     38 HAN1        1.4160   -0.7910   -1.3930 h1        1 P3U      0.037450
     39 HAN2        1.7400    0.9770   -1.0880 h1        1 P3U      0.037450
     40 HAU         3.1150   -0.4790    0.2540 hn        1 P3U      0.367800
     41 HAO1        2.2360   -1.3150    2.3360 h1        1 P3U      0.037450
     42 HAO2        1.7450   -2.3260    0.9000 h1        1 P3U      0.037450
     43 HAQ1       -0.2080   -2.0170    2.2500 h1        1 P3U      0.052200
     44 HAQ2        0.0950   -0.2330    2.4790 h1        1 P3U      0.052200
     45 HAM        -2.0500   -2.8480    1.6380 ha        1 P3U      0.151000
     46 HAI        -4.7080    1.1150    0.3540 h4        1 P3U      0.027100
     47 HAJ        -5.9030   -0.8830    1.3330 ha        1 P3U      0.151000
     48 HAL        -6.3750   -3.1350    0.7670 ha        1 P3U      0.161000
     49 HAK        -3.1310   -3.5580    3.5880 ha        1 P3U      0.161000
     50 HAV        -7.7630   -7.9940    2.2420 hn        1 P3U      0.458800
     51 HAA1       -4.1220   -7.3120   -0.0620 hc        1 P3U      0.055367
     52 HAA2       -5.5290   -8.1980   -0.7890 hc        1 P3U      0.055367
     53 HAA3       -5.8190   -6.8580    0.4040 hc        1 P3U      0.055367
     54 HAD1       -2.8880  -11.1280    0.4210 h1        1 P3U      0.059367
     55 HAD2       -2.3800   -9.3700    0.4770 h1        1 P3U      0.059367
     56 HAD3       -3.6810   -9.9070   -0.6950 h1        1 P3U      0.059367
     57 HAR1       -6.4920   -9.6240    4.9730 hc        1 P3U      0.070200
     58 HAR2       -5.0880  -10.7590    5.0720 hc        1 P3U      0.070200
     59 HBF        -6.4030  -12.3820    3.5580 hc        1 P3U      0.054700
     60 HAC1       -7.8100  -13.1820    5.4830 hc        1 P3U      0.034033
     61 HAC2       -6.1380  -12.7070    5.9980 hc        1 P3U      0.034033
     62 HAC3       -7.5370  -11.6050    6.3340 hc        1 P3U      0.034033
     63 HAB1       -8.0580  -10.6690    2.7090 hc        1 P3U      0.034033
     64 HAB2       -8.8500  -12.1220    3.4530 hc        1 P3U      0.034033
     65 HAB3       -8.7740  -10.5620    4.3710 hc        1 P3U      0.034033
@<TRIPOS>BOND
     1    1    2 1   
     2    1    6 1   
     3    1   36 1   
     4    1   37 1   
     5    2    3 1   
     6    2   38 1   
     7    2   39 1   
     8    3    4 1   
     9    3   40 1   
    10    4    5 1   
    11    4   41 1   
    12    4   42 1   
    13    5    6 1   
    14    5   43 1   
    15    5   44 1   
    16    6    7 1   
    17    7    8 ar  
    18    7    9 ar  
    19    8   12 ar  
    20    8   45 1   
    21    9   10 ar  
    22   10   11 ar  
    23   10   46 1   
    24   11   12 ar  
    25   11   47 1   
    26   12   13 1   
    27   13   14 ar  
    28   13   17 ar  
    29   14   15 ar  
    30   14   48 1   
    31   15   16 1   
    32   15   20 ar  
    33   17   18 ar  
    34   17   49 1   
    35   18   19 1   
    36   18   20 ar  
    37   20   21 1   
    38   21   22 2   
    39   21   23 2   
    40   21   24 1   
    41   24   25 1   
    42   24   50 1   
    43   25   26 2   
    44   25   31 1   
    45   26   27 1   
    46   26   28 1   
    47   27   51 1   
    48   27   52 1   
    49   27   53 1   
    50   28   29 1   
    51   28   30 1   
    52   29   54 1   
    53   29   55 1   
    54   29   56 1   
    55   30   31 2   
    56   31   32 1   
    57   32   33 1   
    58   32   57 1   
    59   32   58 1   
    60   33   34 1   
    61   33   35 1   
    62   33   59 1   
    63   34   60 1   
    64   34   61 1   
    65   34   62 1   
    66   35   63 1   
    67   35   64 1   
    68   35   65 1   
@<TRIPOS>SUBSTRUCTURE
     1 P3U         1 TEMP              0 ****  ****    0 ROOT
