@<TRIPOS>MOLECULE
P3U
   65    68     1     0     0
SMALL
bcc


@<TRIPOS>ATOM
      1 CAP        -0.1420    0.2710   -0.2370 c3        1 P3U      0.183800
      2 CAN         1.3390    0.0480   -0.6110 c3        1 P3U      0.158800
      3 NAU         2.1730   -0.2450    0.5370 n3        1 P3U     -0.821200
      4 CAO         1.6450   -1.3080    1.3670 c3        1 P3U      0.158800
      5 CAQ         0.1660   -1.0880    1.7490 c3        1 P3U      0.183800
      6 NBG        -0.6660   -0.8160    0.5820 nh        1 P3U     -0.732300
      7 CBB        -2.0660   -0.7940    0.8540 ca        1 P3U      0.622200
      8 CAM        -2.6640   -1.9680    1.4030 ca        1 P3U     -0.250300
      9 NAS        -2.8260    0.2980    0.5210 nb        1 P3U     -0.702000
     10 CAI        -4.1500    0.2250    0.7160 ca        1 P3U      0.425200
     11 CAJ        -4.8160   -0.8890    1.2510 ca        1 P3U     -0.260300
     12 CAY        -4.0470   -2.0070    1.6000 cp        1 P3U     -0.003000
     13 CAZ        -4.6820   -3.2010    2.1570 cp        1 P3U      0.030000
     14 CAL        -5.9050   -3.6570    1.6490 ca        1 P3U     -0.146500
     15 CAX        -6.5060   -4.7900    2.1950 ca        1 P3U      0.118400
     16 CLH        -7.9610   -5.2810    1.4540 cl        1 P3U     -0.052400
     17 CAK        -4.0820   -3.9140    3.1950 ca        1 P3U     -0.146500
     18 CAW        -4.7040   -5.0480    3.7350 ca        1 P3U      0.118400
     19 CLG        -3.8260   -5.8280    4.9590 cl        1 P3U     -0.052400
     20 CBE        -5.9540   -5.5040    3.2800 ca        1 P3U     -0.313500
     21 SBI        -6.8660   -6.8020    3.9950 sy        1 P3U      1.493200
     22 OAE        -6.2260   -7.3210    5.1260 o         1 P3U     -0.633800
     23 OAF        -8.1670   -6.3200    4.2460 o         1 P3U     -0.633800
     24 NAV        -6.9350   -7.8850    2.7940 nh        1 P3U     -0.747500
     25 CBD        -5.9140   -8.7410    2.4120 cc        1 P3U     -0.067700
     26 CBA        -5.1300   -8.6720    1.2300 cd        1 P3U     -0.091600
     27 CAA        -5.1660   -7.6940    0.1330 c3        1 P3U     -0.036800
     28 NBH        -4.2790   -9.7860    1.2660 na        1 P3U      0.097400
     29 CAD        -3.2680  -10.0530    0.2730 c3        1 P3U      0.039600
     30 NAT        -4.4570  -10.5270    2.3720 nd        1 P3U     -0.507800
     31 CBC        -5.4520   -9.9480    3.0990 cc        1 P3U      0.343600
     32 CAR        -5.9440  -10.4750    4.3950 c3        1 P3U     -0.111700
     33 CBF        -6.8800  -11.6660    4.2190 c3        1 P3U     -0.062700
     34 CAC        -7.0820  -12.3570    5.5520 c3        1 P3U     -0.091100
     35 CAB        -8.2120  -11.2380    3.6420 c3        1 P3U     -0.091100
     36 HAP1       -0.7360    0.3130   -1.1920 h1        1 P3U      0.052200
     37 HAP2       -0.2380    1.2670    0.2840 h1        1 P3U      0.052200
     38 HAN1        1.7190    1.0020   -1.0740 h1        1 P3U      0.037450
     39 HAN2        1.3900   -0.7620   -1.3950 h1        1 P3U      0.037450
     40 HAU         3.1040   -0.4700    0.2390 hn        1 P3U      0.367800
     41 HAO1        2.2440   -1.3280    2.3200 h1        1 P3U      0.037450
     42 HAO2        1.7380   -2.3220    0.8780 h1        1 P3U      0.037450
     43 HAQ1        0.1060   -0.2440    2.4950 h1        1 P3U      0.052200
     44 HAQ2       -0.2010   -2.0260    2.2500 h1        1 P3U      0.052200
     45 HAM        -2.0500   -2.8470    1.6460 ha        1 P3U      0.151000
     46 HAI        -4.7150    1.1320    0.4290 h4        1 P3U      0.027100
     47 HAJ        -5.9030   -0.8750    1.3980 ha        1 P3U      0.151000
     48 HAL        -6.3830   -3.1200    0.8130 ha        1 P3U      0.161000
     49 HAK        -3.1130   -3.5760    3.5990 ha        1 P3U      0.161000
     50 HAV        -7.7640   -7.9920    2.2500 hn        1 P3U      0.458800
     51 HAA1       -5.8350   -6.8400    0.4070 hc        1 P3U      0.055367
     52 HAA2       -5.5590   -8.1680   -0.8030 hc        1 P3U      0.055367
     53 HAA3       -4.1430   -7.2920   -0.0800 hc        1 P3U      0.055367
     54 HAD1       -3.7110   -9.8800   -0.7440 h1        1 P3U      0.059367
     55 HAD2       -2.3990   -9.3580    0.4220 h1        1 P3U      0.059367
     56 HAD3       -2.9110  -11.1140    0.3510 h1        1 P3U      0.059367
     57 HAR1       -5.0670  -10.7900    5.0260 hc        1 P3U      0.070200
     58 HAR2       -6.4700   -9.6530    4.9520 hc        1 P3U      0.070200
     59 HBF        -6.3990  -12.3960    3.5080 hc        1 P3U      0.054700
     60 HAC1       -6.1110  -12.7470    5.9420 hc        1 P3U      0.034033
     61 HAC2       -7.7890  -13.2140    5.4380 hc        1 P3U      0.034033
     62 HAC3       -7.5050  -11.6460    6.3020 hc        1 P3U      0.034033
     63 HAB1       -8.7590  -10.5810    4.3610 hc        1 P3U      0.034033
     64 HAB2       -8.8460  -12.1320    3.4280 hc        1 P3U      0.034033
     65 HAB3       -8.0580  -10.6720    2.6920 hc        1 P3U      0.034033
@<TRIPOS>BOND
     1    1    2 1   
     2    1    6 1   
     3    1   36 1   
     4    1   37 1   
     5    2    3 1   
     6    2   38 1   
     7    2   39 1   
     8    3    4 1   
     9    3   40 1   
    10    4    5 1   
    11    4   41 1   
    12    4   42 1   
    13    5    6 1   
    14    5   43 1   
    15    5   44 1   
    16    6    7 1   
    17    7    8 ar  
    18    7    9 ar  
    19    8   12 ar  
    20    8   45 1   
    21    9   10 ar  
    22   10   11 ar  
    23   10   46 1   
    24   11   12 ar  
    25   11   47 1   
    26   12   13 1   
    27   13   14 ar  
    28   13   17 ar  
    29   14   15 ar  
    30   14   48 1   
    31   15   16 1   
    32   15   20 ar  
    33   17   18 ar  
    34   17   49 1   
    35   18   19 1   
    36   18   20 ar  
    37   20   21 1   
    38   21   22 2   
    39   21   23 2   
    40   21   24 1   
    41   24   25 1   
    42   24   50 1   
    43   25   26 2   
    44   25   31 1   
    45   26   27 1   
    46   26   28 1   
    47   27   51 1   
    48   27   52 1   
    49   27   53 1   
    50   28   29 1   
    51   28   30 1   
    52   29   54 1   
    53   29   55 1   
    54   29   56 1   
    55   30   31 2   
    56   31   32 1   
    57   32   33 1   
    58   32   57 1   
    59   32   58 1   
    60   33   34 1   
    61   33   35 1   
    62   33   59 1   
    63   34   60 1   
    64   34   61 1   
    65   34   62 1   
    66   35   63 1   
    67   35   64 1   
    68   35   65 1   
@<TRIPOS>SUBSTRUCTURE
     1 P3U         1 TEMP              0 ****  ****    0 ROOT
