@<TRIPOS>MOLECULE
P3U
   65    68     1     0     0
SMALL
bcc


@<TRIPOS>ATOM
      1 CAP        -0.0510    0.2400   -0.1580 c3        1 P3U      0.183800
      2 CAN         1.4270   -0.0150   -0.5250 c3        1 P3U      0.158800
      3 NAU         2.2450   -0.3470    0.6240 n3        1 P3U     -0.821200
      4 CAO         1.6840   -1.4070    1.4350 c3        1 P3U      0.158800
      5 CAQ         0.2080   -1.1550    1.8100 c3        1 P3U      0.183800
      6 NBG        -0.6080   -0.8450    0.6410 nh        1 P3U     -0.732300
      7 CBB        -2.0090   -0.7910    0.9030 ca        1 P3U      0.622200
      8 CAM        -2.6400   -1.9570    1.4320 ca        1 P3U     -0.250300
      9 NAS        -2.7390    0.3240    0.5800 nb        1 P3U     -0.702000
     10 CAI        -4.0650    0.2820    0.7650 ca        1 P3U      0.425200
     11 CAJ        -4.7630   -0.8220    1.2790 ca        1 P3U     -0.260300
     12 CAY        -4.0260   -1.9640    1.6190 cp        1 P3U     -0.002000
     13 CAZ        -4.6950   -3.1490    2.1540 cp        1 P3U      0.031000
     14 CAL        -5.9240   -3.5670    1.6300 ca        1 P3U     -0.146500
     15 CAX        -6.5580   -4.6910    2.1570 ca        1 P3U      0.119400
     16 CLH        -8.0160   -5.1410    1.3940 cl        1 P3U     -0.052900
     17 CAK        -4.1220   -3.8900    3.1880 ca        1 P3U     -0.146500
     18 CAW        -4.7770   -5.0150    3.7080 ca        1 P3U      0.119400
     19 CLG        -3.9270   -5.8340    4.9270 cl        1 P3U     -0.052900
     20 CBE        -6.0350   -5.4320    3.2390 ca        1 P3U     -0.313500
     21 SBI        -6.9870   -6.7120    3.9320 sy        1 P3U      1.493200
     22 OAE        -6.3730   -7.2530    5.0680 o         1 P3U     -0.633800
     23 OAF        -8.2790   -6.2010    4.1700 o         1 P3U     -0.633800
     24 NAV        -7.0690   -7.7870    2.7240 nh        1 P3U     -0.745500
     25 CBD        -6.0610   -8.6540    2.3330 cc        1 P3U     -0.066700
     26 CBA        -5.3210   -8.6190    1.1210 cd        1 P3U     -0.094600
     27 CAA        -5.3970   -7.6740   -0.0030 c3        1 P3U     -0.035800
     28 NBH        -4.4530   -9.7190    1.1680 na        1 P3U      0.097400
     29 CAD        -3.5380  -10.0610    0.1070 c3        1 P3U      0.040600
     30 NAT        -4.5950  -10.4320    2.2960 nd        1 P3U     -0.507800
     31 CBC        -5.5680   -9.8370    3.0400 cc        1 P3U      0.343600
     32 CAR        -6.0000  -10.3170    4.3750 c3        1 P3U     -0.107700
     33 CBF        -6.6270  -11.7060    4.3330 c3        1 P3U     -0.063700
     34 CAC        -6.8100  -12.2230    5.7450 c3        1 P3U     -0.090600
     35 CAB        -7.9540  -11.6880    3.6040 c3        1 P3U     -0.090600
     36 HAP1       -0.6360    0.3100   -1.1170 h1        1 P3U      0.052200
     37 HAP2       -0.1250    1.2300    0.3760 h1        1 P3U      0.052200
     38 HAN1        1.8350    0.9340   -0.9720 h1        1 P3U      0.037450
     39 HAN2        1.4630   -0.8160   -1.3210 h1        1 P3U      0.037450
     40 HAU         3.1730   -0.5910    0.3300 hn        1 P3U      0.366800
     41 HAO1        2.2750   -1.4560    2.3920 h1        1 P3U      0.037450
     42 HAO2        1.7550   -2.4160    0.9320 h1        1 P3U      0.037450
     43 HAQ1       -0.1860   -2.0900    2.2950 h1        1 P3U      0.052200
     44 HAQ2        0.1650   -0.3200    2.5680 h1        1 P3U      0.052200
     45 HAM        -2.0510   -2.8550    1.6680 ha        1 P3U      0.151000
     46 HAI        -4.6050    1.2070    0.4860 h4        1 P3U      0.027100
     47 HAJ        -5.8510   -0.7820    1.4180 ha        1 P3U      0.151000
     48 HAL        -6.3810   -3.0080    0.7970 ha        1 P3U      0.160500
     49 HAK        -3.1470   -3.5830    3.6030 ha        1 P3U      0.160500
     50 HAV        -7.8920   -7.8620    2.1670 hn        1 P3U      0.458800
     51 HAA1       -6.2460   -6.9640    0.1540 hc        1 P3U      0.055700
     52 HAA2       -5.5580   -8.2160   -0.9690 hc        1 P3U      0.055700
     53 HAA3       -4.4490   -7.0840   -0.0860 hc        1 P3U      0.055700
     54 HAD1       -2.9900   -9.1340   -0.2100 h1        1 P3U      0.059367
     55 HAD2       -2.8020  -10.8330    0.4530 h1        1 P3U      0.059367
     56 HAD3       -4.1160  -10.4650   -0.7670 h1        1 P3U      0.059367
     57 HAR1       -5.1080  -10.3380    5.0610 hc        1 P3U      0.068200
     58 HAR2       -6.7310   -9.5860    4.8140 hc        1 P3U      0.068200
     59 HBF        -5.9280  -12.4010    3.7870 hc        1 P3U      0.057700
     60 HAC1       -7.4650  -11.5360    6.3330 hc        1 P3U      0.033867
     61 HAC2       -7.2830  -13.2350    5.7270 hc        1 P3U      0.033867
     62 HAC3       -5.8240  -12.3010    6.2630 hc        1 P3U      0.033867
     63 HAB1       -8.3700  -12.7210    3.5340 hc        1 P3U      0.033867
     64 HAB2       -7.8220  -11.2850    2.5710 hc        1 P3U      0.033867
     65 HAB3       -8.6910  -11.0460    4.1440 hc        1 P3U      0.033867
@<TRIPOS>BOND
     1    1    2 1   
     2    1    6 1   
     3    1   36 1   
     4    1   37 1   
     5    2    3 1   
     6    2   38 1   
     7    2   39 1   
     8    3    4 1   
     9    3   40 1   
    10    4    5 1   
    11    4   41 1   
    12    4   42 1   
    13    5    6 1   
    14    5   43 1   
    15    5   44 1   
    16    6    7 1   
    17    7    8 ar  
    18    7    9 ar  
    19    8   12 ar  
    20    8   45 1   
    21    9   10 ar  
    22   10   11 ar  
    23   10   46 1   
    24   11   12 ar  
    25   11   47 1   
    26   12   13 1   
    27   13   14 ar  
    28   13   17 ar  
    29   14   15 ar  
    30   14   48 1   
    31   15   16 1   
    32   15   20 ar  
    33   17   18 ar  
    34   17   49 1   
    35   18   19 1   
    36   18   20 ar  
    37   20   21 1   
    38   21   22 2   
    39   21   23 2   
    40   21   24 1   
    41   24   25 1   
    42   24   50 1   
    43   25   26 2   
    44   25   31 1   
    45   26   27 1   
    46   26   28 1   
    47   27   51 1   
    48   27   52 1   
    49   27   53 1   
    50   28   29 1   
    51   28   30 1   
    52   29   54 1   
    53   29   55 1   
    54   29   56 1   
    55   30   31 2   
    56   31   32 1   
    57   32   33 1   
    58   32   57 1   
    59   32   58 1   
    60   33   34 1   
    61   33   35 1   
    62   33   59 1   
    63   34   60 1   
    64   34   61 1   
    65   34   62 1   
    66   35   63 1   
    67   35   64 1   
    68   35   65 1   
@<TRIPOS>SUBSTRUCTURE
     1 P3U         1 TEMP              0 ****  ****    0 ROOT
