@<TRIPOS>MOLECULE
P3Y
   49    52     1     0     0
SMALL
bcc


@<TRIPOS>ATOM
      1 N1         -0.2170    0.3380   -0.0620 nb        1 P3Y     -0.659000
      2 C2          1.1130    0.4100   -0.0230 ca        1 P3Y      0.426200
      3 C3          1.9120    0.3860    1.1590 cp        1 P3Y     -0.250300
      4 C4          1.2810    0.2840    2.4030 ca        1 P3Y      0.010000
      5 C5         -0.1070    0.1980    2.4330 ca        1 P3Y     -0.173100
      6 C6         -0.8270    0.2300    1.1600 ca        1 P3Y      0.435800
      7 C9         -1.1070    0.0730    3.4690 cc        1 P3Y     -0.041400
      8 C10        -2.3500    0.0380    2.8230 cd        1 P3Y     -0.084100
      9 N11        -2.1920    0.1290    1.4390 na        1 P3Y     -0.269100
     10 C14        -0.9130   -0.0430    4.8950 ca        1 P3Y     -0.055800
     11 C15        -0.0270    0.7800    5.6250 ca        1 P3Y      0.127100
     12 C16         0.1050    0.6380    7.0140 ca        1 P3Y     -0.190000
     13 C17        -0.6390   -0.3280    7.6850 ca        1 P3Y     -0.088000
     14 C18        -1.5140   -1.1530    6.9790 ca        1 P3Y     -0.150000
     15 C19        -1.6460   -1.0100    5.6020 ca        1 P3Y     -0.097000
     16 O1          0.7250    1.6940    4.9060 os        1 P3Y     -0.347900
     17 C24         3.3550    0.4750    1.0580 cp        1 P3Y     -0.087300
     18 C25         4.1090    1.1900    2.0330 ca        1 P3Y      0.471200
     19 N26         5.4460    1.2990    2.0070 nb        1 P3Y     -0.640000
     20 C27         6.1130    0.7060    1.0030 ca        1 P3Y      0.482200
     21 C28         5.4600   -0.0190   -0.0270 ca        1 P3Y     -0.328900
     22 C29         4.0600   -0.1380    0.0180 ca        1 P3Y     -0.079000
     23 C33         6.3020   -0.6310   -1.0440 c         1 P3Y      0.583700
     24 O34         7.4800   -0.9520   -0.9640 o         1 P3Y     -0.424100
     25 N35         5.6460   -0.8840   -2.4080 nx        1 P3Y     -0.593200
     26 C41         6.5190   -0.3910   -3.5030 c3        1 P3Y      0.083100
     27 C45         5.3590   -2.3320   -2.5610 c3        1 P3Y      0.083100
     28 C1          1.1290    2.8570    5.6270 c3        1 P3Y      0.111700
     29 H11A        0.2860    3.2760    6.2270 h1        1 P3Y      0.047700
     30 H12         1.4350    3.5730    4.8230 h1        1 P3Y      0.047700
     31 H13         1.9970    2.6120    6.2870 h1        1 P3Y      0.047700
     32 H16         0.7920    1.2870    7.5750 ha        1 P3Y      0.144000
     33 H17        -0.5340   -0.4380    8.7750 ha        1 P3Y      0.143000
     34 H18        -2.1020   -1.9160    7.5110 ha        1 P3Y      0.144000
     35 H19        -2.3380   -1.6630    5.0470 ha        1 P3Y      0.137000
     36 H10        -3.3490   -0.0430    3.2620 h4        1 P3Y      0.186000
     37 H11        -2.9180    0.1510    0.7690 hn        1 P3Y      0.321700
     38 H2          1.5960    0.5170   -1.0110 h4        1 P3Y      0.002100
     39 H4          1.8520    0.2760    3.3460 ha        1 P3Y      0.162000
     40 H25         3.5940    1.6970    2.8760 h4        1 P3Y      0.063100
     41 H27         7.2170    0.8070    1.0170 h4        1 P3Y      0.058100
     42 H29         3.5020   -0.7340   -0.7210 ha        1 P3Y      0.137000
     43 H411        7.5160   -0.9070   -3.4450 hx        1 P3Y      0.108200
     44 H412        6.0360   -0.6100   -4.4920 hx        1 P3Y      0.108200
     45 H413        6.6650    0.7160   -3.3870 hx        1 P3Y      0.108200
     46 H451        6.3200   -2.9100   -2.4800 hx        1 P3Y      0.108200
     47 H452        4.8920   -2.5200   -3.5650 hx        1 P3Y      0.108200
     48 H453        4.6540   -2.6570   -1.7490 hx        1 P3Y      0.108200
     49 H351        4.7600   -0.3640   -2.4390 hn        1 P3Y      0.453800
@<TRIPOS>BOND
     1    1    2 ar  
     2    1    6 ar  
     3    2    3 ar  
     4    2   38 1   
     5    3    4 ar  
     6    3   17 1   
     7    4    5 ar  
     8    4   39 1   
     9    5    6 ar  
    10    5    7 1   
    11    6    9 1   
    12    7    8 2   
    13    7   10 1   
    14    8    9 1   
    15    8   36 1   
    16    9   37 1   
    17   10   11 ar  
    18   10   15 ar  
    19   11   12 ar  
    20   11   16 1   
    21   12   13 ar  
    22   12   32 1   
    23   13   14 ar  
    24   13   33 1   
    25   14   15 ar  
    26   14   34 1   
    27   15   35 1   
    28   16   28 1   
    29   17   18 ar  
    30   17   22 ar  
    31   18   19 ar  
    32   18   40 1   
    33   19   20 ar  
    34   20   21 ar  
    35   20   41 1   
    36   21   22 ar  
    37   21   23 1   
    38   22   42 1   
    39   23   24 2   
    40   23   25 1   
    41   25   26 1   
    42   25   27 1   
    43   25   49 1   
    44   26   43 1   
    45   26   44 1   
    46   26   45 1   
    47   27   46 1   
    48   27   47 1   
    49   27   48 1   
    50   28   29 1   
    51   28   30 1   
    52   28   31 1   
@<TRIPOS>SUBSTRUCTURE
     1 P3Y         1 TEMP              0 ****  ****    0 ROOT
