@<TRIPOS>MOLECULE
P3Y
   48    37     1     0     0
SMALL
bcc


@<TRIPOS>ATOM
      1 N1         -2.4560    0.8460   -2.6930 n1        1 P3Y     -0.140000
      2 C2         -1.0680    0.8530   -2.6920 c1        1 P3Y     -0.040667
      3 C3         -0.3720    0.8420   -1.4810 c1        1 P3Y     -0.099333
      4 C4         -1.0700    0.8230   -0.2800 c1        1 P3Y     -0.040667
      5 C5         -2.4590    0.8160   -0.2850 c1        1 P3Y     -0.099333
      6 C6         -3.1520    0.8280   -1.4930 c1        1 P3Y      0.031000
      7 C9         -3.3900    0.7990    0.7440 c1        1 P3Y     -0.098000
      8 C10        -4.6660    0.8010    0.1710 c1        1 P3Y     -0.035000
      9 N11        -4.5190    0.8180   -1.2040 n1        1 P3Y     -0.197000
     10 C14        -3.3500    0.7970    2.1700 c1        1 P3Y     -0.017000
     11 C15        -3.5700   -0.3790    2.8690 c1        1 P3Y      0.078000
     12 C16        -3.6270   -0.3590    4.2460 c1        1 P3Y     -0.195000
     13 C17        -3.4630    0.8490    4.9370 c1        1 P3Y     -0.128000
     14 C18        -3.2430    2.0250    4.2360 c1        1 P3Y     -0.128000
     15 C19        -3.1860    2.0110    2.8710 c1        1 P3Y     -0.101000
     16 O1         -3.7920   -1.6200    2.1580 os        1 P3Y     -0.220000
     17 C24         1.0350    0.8870   -1.4870 c1        1 P3Y     -0.099333
     18 C25         1.6910    1.9970   -0.9830 c1        1 P3Y     -0.052000
     19 N26         3.0520    1.9950   -0.8710 n1        1 P3Y     -0.139000
     20 C27         3.7670    0.8920   -1.2580 c1        1 P3Y     -0.048000
     21 C28         3.1110   -0.2070   -1.7580 c1        1 P3Y     -0.162000
     22 C29         1.7350   -0.1980   -1.8680 c1        1 P3Y     -0.040667
     23 C33         3.9040   -1.4080   -2.2640 c2        1 P3Y      0.351000
     24 O34         3.3090   -2.3970   -2.7130 o         1 P3Y     -0.358000
     25 N35         5.4040   -1.3450   -2.3240 n         1 P3Y     -0.337000
     26 C41         6.1870   -2.2700   -1.5600 c3        1 P3Y     -0.075500
     27 C45         6.0310   -0.4300   -3.1580 c3        1 P3Y     -0.075500
     28 C1         -2.9830   -2.6780    2.6090 c3        1 P3Y     -0.076000
     29 H11A       -2.0500   -2.4420    2.4880 h1        1 P3Y      0.084000
     30 H12        -3.1570   -2.8380    3.5480 h1        1 P3Y      0.084000
     31 H13        -3.1880   -3.5080    2.0870 h1        1 P3Y      0.084000
     32 H16        -3.7770   -1.1600    4.7230 ha        1 P3Y      0.137000
     33 H17        -3.5040    0.8630    5.9370 ha        1 P3Y      0.134000
     34 H18        -3.1340    2.8290    4.6980 ha        1 P3Y      0.134000
     35 H19        -3.0250    2.8690    2.3640 ha        1 P3Y      0.136000
     36 H10        -5.4700    0.7490    0.6330 DU        1 P3Y      0.224500
     37 H11        -5.2250    0.8220   -1.8420 DU        1 P3Y      0.224500
     38 H2         -0.5740    0.8670   -3.5460 ha        1 P3Y      0.156000
     39 H4         -0.5800    0.8140    0.5790 ha        1 P3Y      0.156000
     40 H25         1.1900    2.7630   -0.7150 ha        1 P3Y      0.164000
     41 H27         4.7490    0.8870   -1.1790 ha        1 P3Y      0.167000
     42 H29         1.2710   -0.9720   -2.2210 ha        1 P3Y      0.156000
     43 H411        7.1710   -2.0260   -1.6340 h1        1 P3Y      0.084000
     44 H412        5.9030   -2.2320   -0.5930 h1        1 P3Y      0.084000
     45 H413        6.0460   -3.1940   -1.9110 h1        1 P3Y      0.084000
     46 H451        5.4190   -0.1390   -3.8340 h1        1 P3Y      0.084000
     47 H452        6.7690   -0.8330   -3.5590 h1        1 P3Y      0.084000
     48 H453        6.3080    0.2920   -2.6660 h1        1 P3Y      0.084000
@<TRIPOS>BOND
     1    1    6 1   
     2    2    3 1   
     3    2   38 1   
     4    4    5 1   
     5    4   39 1   
     6    7    8 1   
     7    7   10 1   
     8    8    9 1   
     9   10   15 1   
    10   11   12 1   
    11   11   16 1   
    12   12   32 1   
    13   13   14 1   
    14   13   33 1   
    15   14   34 1   
    16   15   35 1   
    17   16   28 1   
    18   17   22 1   
    19   18   19 1   
    20   18   40 1   
    21   20   21 1   
    22   20   41 1   
    23   21   23 1   
    24   22   42 1   
    25   23   24 1   
    26   23   25 1   
    27   25   26 1   
    28   25   27 1   
    29   26   43 1   
    30   26   44 1   
    31   26   45 1   
    32   27   46 1   
    33   27   47 1   
    34   27   48 1   
    35   28   29 1   
    36   28   30 1   
    37   28   31 1   
@<TRIPOS>SUBSTRUCTURE
     1 P3Y         1 TEMP              0 ****  ****    0 ROOT
