@<TRIPOS>MOLECULE
P3Y
   49    52     1     0     0
SMALL
bcc


@<TRIPOS>ATOM
      1 N1         -0.2130    0.3550   -0.0650 nb        1 P3Y     -0.659000
      2 C2          1.1180    0.4170   -0.0240 ca        1 P3Y      0.426200
      3 C3          1.9150    0.3870    1.1580 cp        1 P3Y     -0.250300
      4 C4          1.2820    0.2910    2.4020 ca        1 P3Y      0.010000
      5 C5         -0.1060    0.2160    2.4310 ca        1 P3Y     -0.173100
      6 C6         -0.8250    0.2520    1.1560 ca        1 P3Y      0.435800
      7 C9         -1.1090    0.0990    3.4650 cc        1 P3Y     -0.041400
      8 C10        -2.3510    0.0730    2.8180 cd        1 P3Y     -0.084100
      9 N11        -2.1910    0.1630    1.4340 na        1 P3Y     -0.269100
     10 C14        -0.9170   -0.0170    4.8910 ca        1 P3Y     -0.055800
     11 C15        -0.0260    0.7990    5.6220 ca        1 P3Y      0.127100
     12 C16         0.1030    0.6570    7.0110 ca        1 P3Y     -0.190000
     13 C17        -0.6490   -0.3020    7.6820 ca        1 P3Y     -0.088000
     14 C18        -1.5300   -1.1210    6.9750 ca        1 P3Y     -0.150000
     15 C19        -1.6590   -0.9780    5.5980 ca        1 P3Y     -0.097000
     16 O1          0.7340    1.7070    4.9030 os        1 P3Y     -0.347900
     17 C24         3.3590    0.4650    1.0590 cp        1 P3Y     -0.087300
     18 C25         4.1170    1.1750    2.0350 ca        1 P3Y      0.471200
     19 N26         5.4550    1.2740    2.0110 nb        1 P3Y     -0.640000
     20 C27         6.1190    0.6740    1.0070 ca        1 P3Y      0.482200
     21 C28         5.4620   -0.0450   -0.0230 ca        1 P3Y     -0.328900
     22 C29         4.0600   -0.1540    0.0210 ca        1 P3Y     -0.079000
     23 C33         6.3000   -0.6650   -1.0380 c         1 P3Y      0.583700
     24 O34         7.4750   -0.9950   -0.9570 o         1 P3Y     -0.424100
     25 N35         5.6440   -0.9130   -2.4030 n4        1 P3Y     -0.593200
     26 C41         6.5210   -0.4280   -3.4970 c3        1 P3Y      0.083100
     27 C45         5.3460   -2.3600   -2.5560 c3        1 P3Y      0.083100
     28 C1          1.1450    2.8670    5.6240 c3        1 P3Y      0.111700
     29 H11A        0.3050    3.2930    6.2230 h1        1 P3Y      0.047700
     30 H12         1.4590    3.5810    4.8200 h1        1 P3Y      0.047700
     31 H13         2.0110    2.6160    6.2850 h1        1 P3Y      0.047700
     32 H16         0.7940    1.3010    7.5730 ha        1 P3Y      0.144000
     33 H17        -0.5470   -0.4130    8.7720 ha        1 P3Y      0.143000
     34 H18        -2.1240   -1.8800    7.5070 ha        1 P3Y      0.144000
     35 H19        -2.3550   -1.6270    5.0430 ha        1 P3Y      0.137000
     36 H10        -3.3510    0.0010    3.2550 h4        1 P3Y      0.186000
     37 H11        -2.9160    0.1900    0.7630 hn        1 P3Y      0.321700
     38 H2          1.6030    0.5200   -1.0120 h4        1 P3Y      0.002100
     39 H4          1.8520    0.2790    3.3460 ha        1 P3Y      0.162000
     40 H25         3.6050    1.6860    2.8770 h4        1 P3Y      0.063100
     41 H27         7.2230    0.7670    1.0220 h4        1 P3Y      0.058100
     42 H29         3.4990   -0.7460   -0.7190 ha        1 P3Y      0.137000
     43 H411        7.5150   -0.9500   -3.4380 hx        1 P3Y      0.108200
     44 H412        6.0380   -0.6430   -4.4870 hx        1 P3Y      0.108200
     45 H413        6.6760    0.6780   -3.3810 hx        1 P3Y      0.108200
     46 H451        6.3020   -2.9440   -2.4740 hx        1 P3Y      0.108200
     47 H452        4.8790   -2.5440   -3.5600 hx        1 P3Y      0.108200
     48 H453        4.6380   -2.6790   -1.7450 hx        1 P3Y      0.108200
     49 H351        4.7620   -0.3870   -2.4360 hn        1 P3Y      0.453800
@<TRIPOS>BOND
     1    1    2 ar  
     2    1    6 ar  
     3    2    3 ar  
     4    2   38 1   
     5    3    4 ar  
     6    3   17 1   
     7    4    5 ar  
     8    4   39 1   
     9    5    6 ar  
    10    5    7 1   
    11    6    9 1   
    12    7    8 2   
    13    7   10 1   
    14    8    9 1   
    15    8   36 1   
    16    9   37 1   
    17   10   11 ar  
    18   10   15 ar  
    19   11   12 ar  
    20   11   16 1   
    21   12   13 ar  
    22   12   32 1   
    23   13   14 ar  
    24   13   33 1   
    25   14   15 ar  
    26   14   34 1   
    27   15   35 1   
    28   16   28 1   
    29   17   18 ar  
    30   17   22 ar  
    31   18   19 ar  
    32   18   40 1   
    33   19   20 ar  
    34   20   21 ar  
    35   20   41 1   
    36   21   22 ar  
    37   21   23 1   
    38   22   42 1   
    39   23   24 2   
    40   23   25 1   
    41   25   26 1   
    42   25   27 1   
    43   25   49 1   
    44   26   43 1   
    45   26   44 1   
    46   26   45 1   
    47   27   46 1   
    48   27   47 1   
    49   27   48 1   
    50   28   29 1   
    51   28   30 1   
    52   28   31 1   
@<TRIPOS>SUBSTRUCTURE
     1 P3Y         1 TEMP              0 ****  ****    0 ROOT
