@<TRIPOS>MOLECULE
P3Y
   48    51     1     0     0
SMALL
bcc


@<TRIPOS>ATOM
      1 N1         -0.1740   -3.0880    0.4250 nb        1 P3Y     -0.671000
      2 C2          0.7380   -2.1230    0.5520 ca        1 P3Y      0.425200
      3 C3          0.4660   -0.7220    0.5760 cp        1 P3Y     -0.195300
      4 C4         -0.8560   -0.2870    0.4620 ca        1 P3Y     -0.015000
      5 C5         -1.8600   -1.2450    0.3300 ca        1 P3Y     -0.171100
      6 C6         -1.4650   -2.6500    0.3140 ca        1 P3Y      0.421800
      7 C9         -3.3000   -1.2200    0.1970 cc        1 P3Y     -0.055400
      8 C10        -3.7180   -2.5540    0.1060 cd        1 P3Y     -0.096100
      9 N11        -2.6280   -3.4200    0.1740 na        1 P3Y     -0.282100
     10 C14        -4.1870   -0.0810    0.2010 ca        1 P3Y     -0.042800
     11 C15        -3.9370    1.1000   -0.5380 ca        1 P3Y      0.134100
     12 C16        -4.8430    2.1680   -0.5080 ca        1 P3Y     -0.202000
     13 C17        -6.0040    2.0730    0.2560 ca        1 P3Y     -0.094000
     14 C18        -6.2660    0.9180    0.9900 ca        1 P3Y     -0.162000
     15 C19        -5.3650   -0.1430    0.9600 ca        1 P3Y     -0.099000
     16 O1         -2.7590    1.1320   -1.2600 os        1 P3Y     -0.324900
     17 C24         1.5590    0.2250    0.7140 cp        1 P3Y     -0.137300
     18 C25         1.4030    1.4040    1.4820 ca        1 P3Y      0.415200
     19 N26         2.3680    2.3280    1.6380 nb        1 P3Y     -0.665000
     20 C27         3.5470    2.1110    1.0280 ca        1 P3Y      0.436200
     21 C28         3.8120    0.9610    0.2540 ca        1 P3Y     -0.249900
     22 C29         2.7990    0.0120    0.0930 ca        1 P3Y     -0.066000
     23 C33         5.1300    0.8450   -0.4260 c         1 P3Y      0.678700
     24 O34         5.5750    1.7940   -1.1040 o         1 P3Y     -0.598100
     25 N35         5.8590   -0.3290   -0.3000 n         1 P3Y     -0.478800
     26 C41         7.1040   -0.4880   -1.0020 c3        1 P3Y      0.079800
     27 C45         5.4720   -1.4000    0.5690 c3        1 P3Y      0.079800
     28 C1         -2.6190    2.2000   -2.1910 c3        1 P3Y      0.110700
     29 H11A       -1.6730    1.9460   -2.7340 h1        1 P3Y      0.046367
     30 H12        -3.4820    2.2330   -2.8970 h1        1 P3Y      0.046367
     31 H13        -2.5120    3.1740   -1.6540 h1        1 P3Y      0.046367
     32 H16        -4.6480    3.0850   -1.0820 ha        1 P3Y      0.139000
     33 H17        -6.7120    2.9140    0.2780 ha        1 P3Y      0.134000
     34 H18        -7.1810    0.8430    1.5940 ha        1 P3Y      0.135000
     35 H19        -5.5720   -1.0530    1.5450 ha        1 P3Y      0.134000
     36 H10        -4.7310   -2.9470   -0.0100 h4        1 P3Y      0.172000
     37 H11        -2.6580   -4.4040    0.1130 hn        1 P3Y      0.311700
     38 H2          1.7810   -2.4780    0.6500 h4        1 P3Y      0.019100
     39 H4         -1.1100    0.7840    0.4500 ha        1 P3Y      0.157000
     40 H25         0.4480    1.6130    1.9980 h4        1 P3Y      0.030100
     41 H27         4.3190    2.8940    1.1510 h4        1 P3Y      0.041100
     42 H29         2.9650   -0.8840   -0.5260 ha        1 P3Y      0.149000
     43 H411        7.9620   -0.4840   -0.2760 h1        1 P3Y      0.044033
     44 H412        7.1010   -1.4680   -1.5500 h1        1 P3Y      0.044033
     45 H413        7.2470    0.3470   -1.7380 h1        1 P3Y      0.044033
     46 H451        4.9590   -2.2110   -0.0170 h1        1 P3Y      0.044033
     47 H452        6.3840   -1.8390    1.0580 h1        1 P3Y      0.044033
     48 H453        4.7770   -1.0390    1.3710 h1        1 P3Y      0.044033
@<TRIPOS>BOND
     1    1    2 ar  
     2    1    6 ar  
     3    2    3 ar  
     4    2   38 1   
     5    3    4 ar  
     6    3   17 1   
     7    4    5 ar  
     8    4   39 1   
     9    5    6 ar  
    10    5    7 1   
    11    6    9 1   
    12    7    8 2   
    13    7   10 1   
    14    8    9 1   
    15    8   36 1   
    16    9   37 1   
    17   10   11 ar  
    18   10   15 ar  
    19   11   12 ar  
    20   11   16 1   
    21   12   13 ar  
    22   12   32 1   
    23   13   14 ar  
    24   13   33 1   
    25   14   15 ar  
    26   14   34 1   
    27   15   35 1   
    28   16   28 1   
    29   17   18 ar  
    30   17   22 ar  
    31   18   19 ar  
    32   18   40 1   
    33   19   20 ar  
    34   20   21 ar  
    35   20   41 1   
    36   21   22 ar  
    37   21   23 1   
    38   22   42 1   
    39   23   24 2   
    40   23   25 1   
    41   25   26 1   
    42   25   27 1   
    43   26   43 1   
    44   26   44 1   
    45   26   45 1   
    46   27   46 1   
    47   27   47 1   
    48   27   48 1   
    49   28   29 1   
    50   28   30 1   
    51   28   31 1   
@<TRIPOS>SUBSTRUCTURE
     1 P3Y         1 TEMP              0 ****  ****    0 ROOT
