@<TRIPOS>MOLECULE
P3Y
   49    52     1     0     0
SMALL
bcc


@<TRIPOS>ATOM
      1 N1         -0.2190    0.3280   -0.0600 nb        1 P3Y     -0.659000
      2 C2          1.1110    0.4030   -0.0220 ca        1 P3Y      0.426200
      3 C3          1.9110    0.3840    1.1590 cp        1 P3Y     -0.250300
      4 C4          1.2810    0.2840    2.4040 ca        1 P3Y      0.010000
      5 C5         -0.1060    0.1960    2.4350 ca        1 P3Y     -0.173100
      6 C6         -0.8280    0.2230    1.1620 ca        1 P3Y      0.435800
      7 C9         -1.1060    0.0710    3.4720 cc        1 P3Y     -0.041400
      8 C10        -2.3490    0.0330    2.8270 cd        1 P3Y     -0.084100
      9 N11        -2.1920    0.1200    1.4420 na        1 P3Y     -0.269100
     10 C14        -0.9100   -0.0400    4.8980 ca        1 P3Y     -0.055800
     11 C15        -0.0260    0.7870    5.6250 ca        1 P3Y      0.127100
     12 C16         0.1070    0.6490    7.0140 ca        1 P3Y     -0.190000
     13 C17        -0.6350   -0.3170    7.6890 ca        1 P3Y     -0.088000
     14 C18        -1.5090   -1.1460    6.9860 ca        1 P3Y     -0.150000
     15 C19        -1.6420   -1.0060    5.6070 ca        1 P3Y     -0.097000
     16 O1          0.7240    1.7010    4.9030 os        1 P3Y     -0.347900
     17 C24         3.3540    0.4750    1.0570 cp        1 P3Y     -0.087300
     18 C25         4.1070    1.1940    2.0300 ca        1 P3Y      0.471200
     19 N26         5.4440    1.3050    2.0030 nb        1 P3Y     -0.640000
     20 C27         6.1120    0.7100    0.9990 ca        1 P3Y      0.482200
     21 C28         5.4600   -0.0180   -0.0290 ca        1 P3Y     -0.328900
     22 C29         4.0590   -0.1390    0.0180 ca        1 P3Y     -0.079000
     23 C33         6.3010   -0.6310   -1.0450 c         1 P3Y      0.583700
     24 O34         7.4800   -0.9490   -0.9640 o         1 P3Y     -0.424100
     25 N35         5.6450   -0.8870   -2.4070 n4        1 P3Y     -0.593200
     26 C41         6.5160   -0.3950   -3.5040 c3        1 P3Y      0.083100
     27 C45         5.3600   -2.3370   -2.5580 c3        1 P3Y      0.083100
     28 C1          1.1250    2.8660    5.6200 c3        1 P3Y      0.111700
     29 H11A        1.4300    3.5810    4.8150 h1        1 P3Y      0.047700
     30 H12         0.2810    3.2850    6.2200 h1        1 P3Y      0.047700
     31 H13         1.9940    2.6260    6.2810 h1        1 P3Y      0.047700
     32 H16         0.7930    1.3010    7.5740 ha        1 P3Y      0.144000
     33 H17        -0.5290   -0.4240    8.7790 ha        1 P3Y      0.143000
     34 H18        -2.0940   -1.9090    7.5190 ha        1 P3Y      0.144000
     35 H19        -2.3320   -1.6630    5.0550 ha        1 P3Y      0.137000
     36 H10        -3.3480   -0.0490    3.2660 h4        1 P3Y      0.186000
     37 H11        -2.9190    0.1400    0.7730 hn        1 P3Y      0.321700
     38 H2          1.5940    0.5090   -1.0110 h4        1 P3Y      0.002100
     39 H4          1.8520    0.2790    3.3470 ha        1 P3Y      0.162000
     40 H25         3.5920    1.7010    2.8720 h4        1 P3Y      0.063100
     41 H27         7.2150    0.8140    1.0120 h4        1 P3Y      0.058100
     42 H29         3.5020   -0.7370   -0.7190 ha        1 P3Y      0.137000
     43 H411        6.0330   -0.6170   -4.4930 hx        1 P3Y      0.108200
     44 H412        6.6600    0.7120   -3.3900 hx        1 P3Y      0.108200
     45 H413        7.5140   -0.9090   -3.4470 hx        1 P3Y      0.108200
     46 H451        4.6570   -2.6610   -1.7440 hx        1 P3Y      0.108200
     47 H452        6.3220   -2.9120   -2.4770 hx        1 P3Y      0.108200
     48 H453        4.8930   -2.5270   -3.5610 hx        1 P3Y      0.108200
     49 H351        4.7580   -0.3690   -2.4390 hn        1 P3Y      0.453800
@<TRIPOS>BOND
     1    1    2 ar  
     2    1    6 ar  
     3    2    3 ar  
     4    2   38 1   
     5    3    4 ar  
     6    3   17 1   
     7    4    5 ar  
     8    4   39 1   
     9    5    6 ar  
    10    5    7 1   
    11    6    9 1   
    12    7    8 2   
    13    7   10 1   
    14    8    9 1   
    15    8   36 1   
    16    9   37 1   
    17   10   11 ar  
    18   10   15 ar  
    19   11   12 ar  
    20   11   16 1   
    21   12   13 ar  
    22   12   32 1   
    23   13   14 ar  
    24   13   33 1   
    25   14   15 ar  
    26   14   34 1   
    27   15   35 1   
    28   16   28 1   
    29   17   18 ar  
    30   17   22 ar  
    31   18   19 ar  
    32   18   40 1   
    33   19   20 ar  
    34   20   21 ar  
    35   20   41 1   
    36   21   22 ar  
    37   21   23 1   
    38   22   42 1   
    39   23   24 2   
    40   23   25 1   
    41   25   26 1   
    42   25   27 1   
    43   25   49 1   
    44   26   43 1   
    45   26   44 1   
    46   26   45 1   
    47   27   46 1   
    48   27   47 1   
    49   27   48 1   
    50   28   29 1   
    51   28   30 1   
    52   28   31 1   
@<TRIPOS>SUBSTRUCTURE
     1 P3Y         1 TEMP              0 ****  ****    0 ROOT
