@<TRIPOS>MOLECULE
P3Z
   35    37     1     0     0
SMALL
bcc


@<TRIPOS>ATOM
      1 CAA         0.2510   -0.5490   -0.3990 c3        1 P3Z      0.112700
      2 OAB         5.1580    0.7010    4.8230 oh        1 P3Z     -0.593800
      3 CAC         1.3780   -0.5640    2.1710 ca        1 P3Z     -0.183000
      4 CAD         3.2200    0.7540    1.2670 ca        1 P3Z     -0.183000
      5 CAE         1.9960   -0.5430    3.4190 ca        1 P3Z     -0.077000
      6 CAF         3.8190    0.7650    2.5200 ca        1 P3Z     -0.077000
      7 CAG         4.2780   -3.8080    6.3870 ca        1 P3Z      0.628900
      8 CAH         5.1250   -2.0450    5.1850 ca        1 P3Z      0.439200
      9 CAI         3.0110   -1.8930    6.3130 ca        1 P3Z      0.439200
     10 CAJ         3.3310    2.4420    6.1280 cx        1 P3Z     -0.124400
     11 CAK         3.5200    1.4600    7.2440 cx        1 P3Z     -0.124400
     12 NAL         5.2850   -3.3100    5.6180 nb        1 P3Z     -0.693000
     13 NAM         3.1420   -3.1590    6.7580 nb        1 P3Z     -0.693000
     14 OAN         1.4790    0.1370   -0.1870 os        1 P3Z     -0.325900
     15 CAO         1.9930    0.0860    1.0940 ca        1 P3Z      0.130100
     16 CAP         3.2130    0.1170    3.6050 ca        1 P3Z     -0.115300
     17 CAQ         3.9860   -1.2680    5.5070 ca        1 P3Z     -0.345900
     18 CAR         3.0010    0.9890    5.9100 cx        1 P3Z     -0.158700
     19 CAS         3.8500    0.1380    4.9800 c3        1 P3Z      0.299400
     20 HAA         0.0430   -0.3820   -1.4860 h1        1 P3Z      0.045033
     21 HAAA        0.3640   -1.6390   -0.1820 h1        1 P3Z      0.045033
     22 HAAB       -0.5610   -0.1070    0.2290 h1        1 P3Z      0.045033
     23 HOAB        5.5420    0.7630    5.7060 ho        1 P3Z      0.408000
     24 HAC         0.4220   -1.0900    2.0460 ha        1 P3Z      0.145000
     25 HAD         3.6870    1.2580    0.4090 ha        1 P3Z      0.145000
     26 HAE         1.5170   -1.0600    4.2660 ha        1 P3Z      0.143000
     27 HAF         4.7800    1.2860    2.6610 ha        1 P3Z      0.143000
     28 HAH         5.9310   -1.6230    4.5550 h4        1 P3Z      0.037600
     29 HAI         2.0910   -1.3630    6.6200 h4        1 P3Z      0.037600
     30 HAJ         2.5030    3.1710    6.1810 hc        1 P3Z      0.076450
     31 HAJA        4.2220    2.8620    5.6250 hc        1 P3Z      0.076450
     32 HAK         4.5440    1.1900    7.5560 hc        1 P3Z      0.076450
     33 HAKA        2.8250    1.4770    8.1030 hc        1 P3Z      0.076450
     34 HAR         1.9300    0.7100    5.8400 hc        1 P3Z      0.089700
     35 HAG         4.3970   -4.8510    6.7470 h5        1 P3Z      0.056100
@<TRIPOS>BOND
     1    1   14 1   
     2    1   20 1   
     3    1   21 1   
     4    1   22 1   
     5    2   19 1   
     6    2   23 1   
     7    3    5 ar  
     8    3   15 ar  
     9    3   24 1   
    10    4    6 ar  
    11    4   15 ar  
    12    4   25 1   
    13    5   16 ar  
    14    5   26 1   
    15    6   16 ar  
    16    6   27 1   
    17    7   12 ar  
    18    7   13 ar  
    19    7   35 1   
    20    8   12 ar  
    21    8   17 ar  
    22    8   28 1   
    23    9   13 ar  
    24    9   17 ar  
    25    9   29 1   
    26   10   11 1   
    27   10   18 1   
    28   10   30 1   
    29   10   31 1   
    30   11   18 1   
    31   11   32 1   
    32   11   33 1   
    33   14   15 1   
    34   16   19 1   
    35   17   19 1   
    36   18   19 1   
    37   18   34 1   
@<TRIPOS>SUBSTRUCTURE
     1 P3Z         1 TEMP              0 ****  ****    0 ROOT
