@<TRIPOS>MOLECULE
P3Z
   35    37     1     0     0
SMALL
bcc


@<TRIPOS>ATOM
      1 CAA         0.1500    0.0360   -0.4020 c3        1 P3Z      0.112700
      2 OAB         4.9610    0.6620    4.9580 oh        1 P3Z     -0.591800
      3 CAC         1.1570   -0.0120    2.2160 ca        1 P3Z     -0.185000
      4 CAD         3.3960    0.0960    1.2560 ca        1 P3Z     -0.185000
      5 CAE         1.7200   -0.0370    3.4910 ca        1 P3Z     -0.077000
      6 CAF         3.9380    0.0670    2.5340 ca        1 P3Z     -0.077000
      7 CAG         4.4680   -4.0340    6.1670 ca        1 P3Z      0.626900
      8 CAH         3.0390   -2.5000    5.2310 ca        1 P3Z      0.436700
      9 CAI         5.2010   -1.8600    6.0510 ca        1 P3Z      0.436700
     10 CAJ         3.0800    0.5830    7.5220 cx        1 P3Z     -0.126400
     11 CAK         1.8350   -0.0080    6.9330 cx        1 P3Z     -0.126400
     12 NAL         3.2640   -3.7800    5.5860 nb        1 P3Z     -0.692000
     13 NAM         5.4560   -3.1330    6.4160 nb        1 P3Z     -0.692000
     14 OAN         1.5590    0.0860   -0.2100 os        1 P3Z     -0.325900
     15 CAO         1.9980    0.0540    1.0990 ca        1 P3Z      0.132100
     16 CAP         3.1060   -0.0030    3.6610 ca        1 P3Z     -0.122300
     17 CAQ         3.9820   -1.4700    5.4510 ca        1 P3Z     -0.333900
     18 CAR         2.8250    0.6890    6.0410 cx        1 P3Z     -0.165700
     19 CAS         3.7130   -0.0430    5.0470 c3        1 P3Z      0.300400
     20 HAA        -0.3440    0.9200    0.0680 h1        1 P3Z      0.045033
     21 HAAA       -0.2720   -0.9130    0.0100 h1        1 P3Z      0.045033
     22 HAAB        0.0380    0.0670   -1.5160 h1        1 P3Z      0.045033
     23 HOAB        5.1820    0.9570    5.8510 ho        1 P3Z      0.407000
     24 HAC         0.0650   -0.0420    2.1040 ha        1 P3Z      0.145000
     25 HAD         4.0390    0.1520    0.3660 ha        1 P3Z      0.145000
     26 HAE         1.0600   -0.0800    4.3730 ha        1 P3Z      0.146000
     27 HAF         5.0310    0.1080    2.6690 ha        1 P3Z      0.146000
     28 HAH         2.0700   -2.2860    4.7410 h4        1 P3Z      0.034600
     29 HAI         6.0080   -1.1280    6.2330 h4        1 P3Z      0.034600
     30 HAJ         3.8760   -0.0980    7.8770 hc        1 P3Z      0.076700
     31 HAJA        3.0070    1.4940    8.1420 hc        1 P3Z      0.076700
     32 HAK         0.8630    0.4830    7.1210 hc        1 P3Z      0.076700
     33 HAKA        1.7370   -1.1080    6.8820 hc        1 P3Z      0.076700
     34 HAR         2.5410    1.6830    5.6350 hc        1 P3Z      0.099700
     35 HAG         4.6660   -5.0850    6.4640 h5        1 P3Z      0.056100
@<TRIPOS>BOND
     1    1   14 1   
     2    1   20 1   
     3    1   21 1   
     4    1   22 1   
     5    2   19 1   
     6    2   23 1   
     7    3    5 ar  
     8    3   15 ar  
     9    3   24 1   
    10    4    6 ar  
    11    4   15 ar  
    12    4   25 1   
    13    5   16 ar  
    14    5   26 1   
    15    6   16 ar  
    16    6   27 1   
    17    7   12 ar  
    18    7   13 ar  
    19    7   35 1   
    20    8   12 ar  
    21    8   17 ar  
    22    8   28 1   
    23    9   13 ar  
    24    9   17 ar  
    25    9   29 1   
    26   10   11 1   
    27   10   18 1   
    28   10   30 1   
    29   10   31 1   
    30   11   18 1   
    31   11   32 1   
    32   11   33 1   
    33   14   15 1   
    34   16   19 1   
    35   17   19 1   
    36   18   19 1   
    37   18   34 1   
@<TRIPOS>SUBSTRUCTURE
     1 P3Z         1 TEMP              0 ****  ****    0 ROOT
