@<TRIPOS>MOLECULE
P3Z
   35    37     1     0     0
SMALL
bcc


@<TRIPOS>ATOM
      1 CAA         5.4330   -0.8060   -0.7190 c3        1 P3Z      0.112700
      2 OAB        -0.9540    1.6410    1.4080 oh        1 P3Z     -0.592800
      3 CAC         2.8580    0.3140   -0.7620 ca        1 P3Z     -0.182000
      4 CAD         2.2530   -1.2460    1.0100 ca        1 P3Z     -0.182000
      5 CAE         1.5620    0.8290   -0.7360 ca        1 P3Z     -0.081000
      6 CAF         0.9690   -0.7210    1.0170 ca        1 P3Z     -0.081000
      7 CAG        -3.6500   -2.2240    0.1120 ca        1 P3Z      0.625900
      8 CAH        -2.8700   -0.3120    1.1190 ca        1 P3Z      0.437700
      9 CAI        -1.7630   -1.2700   -0.7850 ca        1 P3Z      0.437700
     10 CAJ        -2.1610    2.8690   -0.8210 cx        1 P3Z     -0.115400
     11 CAK        -0.7170    3.2570   -0.9070 cx        1 P3Z     -0.115400
     12 NAL        -3.7950   -1.2940    1.0940 nb        1 P3Z     -0.692000
     13 NAM        -2.6750   -2.2600   -0.8380 nb        1 P3Z     -0.692000
     14 OAN         4.4490   -1.3120    0.1770 os        1 P3Z     -0.324900
     15 CAO         3.2030   -0.7230    0.1100 ca        1 P3Z      0.135100
     16 CAP         0.6060    0.3160    0.1420 ca        1 P3Z     -0.161300
     17 CAQ        -1.8070   -0.2510    0.1920 ca        1 P3Z     -0.342900
     18 CAR        -1.1060    1.8020   -0.9540 cx        1 P3Z     -0.132700
     19 CAS        -0.8000    0.8740    0.2090 c3        1 P3Z      0.299400
     20 HAA         6.3370   -1.4240   -0.4870 h1        1 P3Z      0.046367
     21 HAAA        5.1140   -0.9570   -1.7790 h1        1 P3Z      0.046367
     22 HAAB        5.6310    0.2740   -0.5180 h1        1 P3Z      0.046367
     23 HOAB       -0.5460    1.1360    2.1220 ho        1 P3Z      0.409000
     24 HAC         3.5930    0.7320   -1.4640 ha        1 P3Z      0.147500
     25 HAD         2.5410   -2.0600    1.6900 ha        1 P3Z      0.147500
     26 HAE         1.3020    1.6580   -1.4140 ha        1 P3Z      0.140500
     27 HAF         0.2200   -1.1290    1.7140 ha        1 P3Z      0.140500
     28 HAH        -2.9830    0.4600    1.9030 h4        1 P3Z      0.037600
     29 HAI        -0.9650   -1.2910   -1.5490 h4        1 P3Z      0.037600
     30 HAJ        -2.6810    2.9790    0.1480 hc        1 P3Z      0.076950
     31 HAJA       -2.8280    3.0620   -1.6800 hc        1 P3Z      0.076950
     32 HAK        -0.3340    3.7310   -1.8280 hc        1 P3Z      0.076950
     33 HAKA       -0.2170    3.6380    0.0030 hc        1 P3Z      0.076950
     34 HAR        -1.0240    1.2620   -1.9180 hc        1 P3Z      0.083700
     35 HAG        -4.4060   -3.0350    0.0790 h5        1 P3Z      0.055100
@<TRIPOS>BOND
     1    1   14 1   
     2    1   20 1   
     3    1   21 1   
     4    1   22 1   
     5    2   19 1   
     6    2   23 1   
     7    3    5 ar  
     8    3   15 ar  
     9    3   24 1   
    10    4    6 ar  
    11    4   15 ar  
    12    4   25 1   
    13    5   16 ar  
    14    5   26 1   
    15    6   16 ar  
    16    6   27 1   
    17    7   12 ar  
    18    7   13 ar  
    19    7   35 1   
    20    8   12 ar  
    21    8   17 ar  
    22    8   28 1   
    23    9   13 ar  
    24    9   17 ar  
    25    9   29 1   
    26   10   11 1   
    27   10   18 1   
    28   10   30 1   
    29   10   31 1   
    30   11   18 1   
    31   11   32 1   
    32   11   33 1   
    33   14   15 1   
    34   16   19 1   
    35   17   19 1   
    36   18   19 1   
    37   18   34 1   
@<TRIPOS>SUBSTRUCTURE
     1 P3Z         1 TEMP              0 ****  ****    0 ROOT
