@<TRIPOS>MOLECULE
P3Z
   35    31     1     0     0
SMALL
bcc


@<TRIPOS>ATOM
      1 CAA        -2.2230    1.3990   -4.6210 c3        1 P3Z      0.112700
      2 OAB         1.9670    0.7230    0.9390 oh        1 P3Z     -0.599800
      3 CAC        -1.9580    0.0570   -1.7000 c1        1 P3Z     -0.086500
      4 CAD         0.2030    0.3030   -2.7430 c1        1 P3Z     -0.099500
      5 CAE        -1.3490    0.0120   -0.4490 c1        1 P3Z     -0.086500
      6 CAF         0.8120    0.2570   -1.4920 c1        1 P3Z      0.000000
      7 CAG         1.6420   -3.8590    2.2470 c1        1 P3Z      0.358800
      8 CAH         2.0660   -1.5490    2.1580 c1        1 P3Z      0.358800
      9 CAI         0.1390   -2.4530    1.1140 c1        1 P3Z      0.000000
     10 CAJ         0.5730    1.5230    3.1420 cx        1 P3Z     -0.122900
     11 CAK        -0.1180    2.2940    2.0250 cx        1 P3Z     -0.122900
     12 NAL         2.4230   -2.7820    2.5630 n1        1 P3Z     -0.494300
     13 NAM         0.4980   -3.6850    1.5200 n1        1 P3Z     -0.494300
     14 OAN        -1.7920    0.1410   -4.1270 os        1 P3Z     -0.308400
     15 CAO        -1.1820    0.2030   -2.8480 c1        1 P3Z      0.117600
     16 CAP         0.0360    0.1110   -0.3450 c1        1 P3Z     -0.132100
     17 CAQ         0.9200   -1.3740    1.4290 c1        1 P3Z     -0.132100
     18 CAR        -0.1670    0.7710    2.0430 cx        1 P3Z     -0.157700
     19 CAS         0.7120    0.0670    1.0150 c3        1 P3Z      0.231000
     20 HAA        -2.2810    1.3640   -5.6020 h1        1 P3Z      0.046033
     21 HAAA       -3.1060    1.6130   -4.2480 h1        1 P3Z      0.046033
     22 HAAB       -1.5790    2.0920   -4.3570 h1        1 P3Z      0.046033
     23 HOAB        2.0340    1.1480    0.1590 ho        1 P3Z      0.413000
     24 HAC        -2.9350   -0.0130   -1.7740 ha        1 P3Z      0.079500
     25 HAD         0.7510    0.4050   -3.5510 ha        1 P3Z      0.095500
     26 HAE        -1.8960   -0.0910    0.3590 ha        1 P3Z      0.079500
     27 HAF         1.7870    0.3270   -1.4180 ha        1 P3Z      0.100500
     28 HAG         1.9040   -4.7570    2.5430 ha        1 P3Z      0.131000
     29 HAH         2.6260   -0.7770    2.3850 ha        1 P3Z      0.131000
     30 HAI        -0.6820   -2.3290    0.5920 ha        1 P3Z      0.100500
     31 HAJ         1.5540    1.4910    3.0950 hc        1 P3Z      0.075950
     32 HAJA        0.1270    1.5480    4.0180 hc        1 P3Z      0.075950
     33 HAK        -0.9520    2.7510    2.2740 hc        1 P3Z      0.075950
     34 HAKA        0.4760    2.6920    1.3520 hc        1 P3Z      0.075950
     35 HAR        -1.0290    0.3750    2.3030 hc        1 P3Z      0.086700
@<TRIPOS>BOND
     1    1   14 1   
     2    1   20 1   
     3    1   21 1   
     4    1   22 1   
     5    2   19 1   
     6    2   23 1   
     7    3    5 3   
     8    3   24 1   
     9    4   15 3   
    10    4   25 1   
    11    5   26 1   
    12    6   16 3   
    13    6   27 1   
    14    7   13 3   
    15    7   28 1   
    16    8   12 3   
    17    8   29 1   
    18    9   17 3   
    19    9   30 1   
    20   10   11 1   
    21   10   18 1   
    22   10   31 1   
    23   10   32 1   
    24   11   18 1   
    25   11   33 1   
    26   11   34 1   
    27   14   15 1   
    28   16   19 1   
    29   17   19 1   
    30   18   19 1   
    31   18   35 1   
@<TRIPOS>SUBSTRUCTURE
     1 P3Z         1 TEMP              0 ****  ****    0 ROOT
