@<TRIPOS>MOLECULE
P40
   63    67     1     0     0
SMALL
bcc


@<TRIPOS>ATOM
      1 C1         -0.3050   -1.5330   -0.2140 c3        1 P40      0.108800
      2 C2          1.2120   -1.7760   -0.0600 c3        1 P40      0.139800
      3 C7          3.9170    0.5390    1.2530 c3        1 P40      0.124900
      4 C8          3.2290   -0.4930    0.3480 c3        1 P40      0.122800
      5 C9         -6.0500    0.5920   -1.7830 ca        1 P40     -0.077000
      6 C10        -6.4520    0.7150   -3.1020 cp        1 P40     -0.021000
      7 C11        -5.4890    0.6260   -4.1430 ca        1 P40     -0.081000
      8 C12        -4.1550    0.4250   -3.8740 ca        1 P40     -0.149300
      9 C13        -7.8640    0.9300   -3.4350 cp        1 P40     -0.066000
     10 C14        -8.8090    0.0010   -2.9820 ca        1 P40     -0.026000
     11 C15       -10.1720    0.1630   -3.2790 ca        1 P40     -0.210600
     12 C16       -10.5940    1.2820   -4.0150 ca        1 P40     -0.076000
     13 C19       -11.0880   -0.8450   -2.7430 c         1 P40      0.577700
     14 C20       -12.8230   -2.4150   -3.6020 cx        1 P40     -0.010500
     15 C21       -14.0260   -2.7860   -4.4480 cx        1 P40     -0.097900
     16 C22       -12.6510   -3.1500   -4.9160 cx        1 P40     -0.097900
     17 N29        -2.9210    0.1140    0.1690 nb        1 P40     -0.677000
     18 C30        -4.1990    0.2810   -0.1250 ca        1 P40      0.503200
     19 N3          1.8480   -0.7540    0.7520 n3        1 P40     -0.774600
     20 C4          1.7370   -1.0230    2.1850 c3        1 P40      0.122800
     21 C5          2.4650    0.0250    3.0370 c3        1 P40      0.124900
     22 O6          3.8140    0.1770    2.6220 os        1 P40     -0.387600
     23 C17        -9.6570    2.2050   -4.4570 ca        1 P40     -0.126000
     24 C18        -8.2870    2.0450   -4.1830 ca        1 P40      0.031700
     25 C23        -7.3400    3.0650   -4.6880 c3        1 P40     -0.088800
     26 O24       -10.9060   -1.5800   -1.7820 o         1 P40     -0.417100
     27 C25        -4.6880    0.3960   -1.4730 ca        1 P40     -0.248600
     28 C26        -3.7150    0.3130   -2.5200 ca        1 P40      0.421600
     29 N27        -2.3720    0.1350   -2.2330 nb        1 P40     -0.637000
     30 C28        -2.0520    0.0550   -0.9320 ca        1 P40      0.708900
     31 N31        -0.6070   -0.1180   -0.5960 n4        1 P40     -0.729700
     32 N32       -12.4200   -1.0050   -3.4610 n4        1 P40     -0.638800
     33 H9         -6.7820    0.6570   -0.9610 ha        1 P40      0.162000
     34 H11        -5.8290    0.7230   -5.1890 ha        1 P40      0.166000
     35 H12        -3.4200    0.3550   -4.6940 ha        1 P40      0.182000
     36 H14        -8.4820   -0.8680   -2.3850 ha        1 P40      0.167000
     37 H16       -11.6570    1.4720   -4.2290 ha        1 P40      0.138000
     38 H17        -9.9900    3.0890   -5.0290 ha        1 P40      0.175000
     39 H20       -12.6440   -2.9630   -2.6450 hx        1 P40      0.162700
     40 H30        -4.8990    0.3350    0.7350 h4        1 P40      0.069100
     41 HN31       -0.0260    0.1490   -1.4030 hn        1 P40      0.481800
     42 HN32      -13.1430   -0.5220   -2.9100 hn        1 P40      0.459300
     43 H31        -0.7020   -2.2130   -1.0200 hx        1 P40      0.111200
     44 H41        -0.8410   -1.7490    0.7540 hx        1 P40      0.111200
     45 H52         1.3100   -2.8150    0.3760 h1        1 P40      0.080700
     46 H62         1.6820   -1.7940   -1.0850 h1        1 P40      0.080700
     47 H74         0.6450   -1.0140    2.4550 h1        1 P40      0.051450
     48 H84         2.1530   -2.0410    2.4430 h1        1 P40      0.051450
     49 H95         1.9370    1.0130    2.9900 h1        1 P40      0.068450
     50 H05         2.5350   -0.3270    4.1010 h1        1 P40      0.068450
     51 H17A        3.4820    1.5600    1.0940 h1        1 P40      0.068450
     52 H27         5.0210    0.5510    1.0470 h1        1 P40      0.068450
     53 H38         3.2160   -0.0940   -0.7040 h1        1 P40      0.051450
     54 H48         3.8420   -1.4400    0.3590 h1        1 P40      0.051450
     55 H221      -14.7020   -3.5700   -4.0510 hc        1 P40      0.113200
     56 H321      -14.5900   -2.0030   -4.9900 hc        1 P40      0.113200
     57 H422      -12.3130   -4.2040   -4.8670 hc        1 P40      0.113200
     58 H522      -12.2290   -2.6290   -5.7950 hc        1 P40      0.113200
     59 H623       -6.3920    3.0770   -4.0970 hc        1 P40      0.076367
     60 H723       -7.7970    4.0870   -4.6420 hc        1 P40      0.076367
     61 H823       -7.0870    2.8480   -5.7590 hc        1 P40      0.076367
     62 H312       -0.3710    0.5040    0.1940 hn        1 P40      0.481800
     63 H322      -12.3630   -0.5680   -4.3870 hn        1 P40      0.459300
@<TRIPOS>BOND
     1    1    2 1   
     2    1   31 1   
     3    1   43 1   
     4    1   44 1   
     5    2   19 1   
     6    2   45 1   
     7    2   46 1   
     8    3    4 1   
     9    3   22 1   
    10    3   51 1   
    11    3   52 1   
    12    4   19 1   
    13    4   53 1   
    14    4   54 1   
    15    5    6 ar  
    16    5   27 ar  
    17    5   33 1   
    18    6    7 ar  
    19    6    9 1   
    20    7    8 ar  
    21    7   34 1   
    22    8   28 ar  
    23    8   35 1   
    24    9   10 ar  
    25    9   24 ar  
    26   10   11 ar  
    27   10   36 1   
    28   11   12 ar  
    29   11   13 1   
    30   12   23 ar  
    31   12   37 1   
    32   13   26 2   
    33   13   32 1   
    34   14   15 1   
    35   14   16 1   
    36   14   32 1   
    37   14   39 1   
    38   15   16 1   
    39   15   55 1   
    40   15   56 1   
    41   16   57 1   
    42   16   58 1   
    43   17   18 ar  
    44   17   30 ar  
    45   18   27 ar  
    46   18   40 1   
    47   19   20 1   
    48   20   21 1   
    49   20   47 1   
    50   20   48 1   
    51   21   22 1   
    52   21   49 1   
    53   21   50 1   
    54   23   24 ar  
    55   23   38 1   
    56   24   25 1   
    57   25   59 1   
    58   25   60 1   
    59   25   61 1   
    60   27   28 ar  
    61   28   29 ar  
    62   29   30 ar  
    63   30   31 1   
    64   31   41 1   
    65   31   62 1   
    66   32   42 1   
    67   32   63 1   
@<TRIPOS>SUBSTRUCTURE
     1 P40         1 TEMP              0 ****  ****    0 ROOT
