@<TRIPOS>MOLECULE
P40
   62    66     1     0     0
SMALL
bcc


@<TRIPOS>ATOM
      1 C1         -0.1250   -0.3710   -0.0060 c3        1 P40      0.212800
      2 C2          1.3850   -0.7050   -0.0860 c3        1 P40      0.156800
      3 C7          4.2460   -0.1550    2.3310 c3        1 P40      0.126400
      4 C8          3.5070   -0.3500    1.0020 c3        1 P40      0.130300
      5 C9         -6.1210    0.6470   -2.1060 ca        1 P40     -0.033000
      6 C10        -6.6190    0.7160   -3.3940 cp        1 P40     -0.126000
      7 C11        -5.7410    0.5120   -4.4950 ca        1 P40     -0.087000
      8 C12        -4.4110    0.2460   -4.3100 ca        1 P40     -0.187300
      9 C13        -8.0390    0.9700   -3.6300 cp        1 P40     -0.009000
     10 C14        -8.9770    0.1580   -2.9780 ca        1 P40     -0.041000
     11 C15       -10.3520    0.3450   -3.1850 ca        1 P40     -0.216600
     12 C16       -10.7990    1.3740   -4.0290 ca        1 P40     -0.100000
     13 C19       -11.2610   -0.5350   -2.4580 c         1 P40      0.588700
     14 C20       -12.6740   -2.3660   -3.3580 cx        1 P40     -0.001500
     15 C21       -13.7110   -2.9510   -4.2950 cx        1 P40     -0.101900
     16 C22       -12.2590   -3.0490   -4.6450 cx        1 P40     -0.101900
     17 N29        -2.8970    0.0750   -0.3540 nb        1 P40     -0.718000
     18 C30        -4.1680    0.3220   -0.5750 ca        1 P40      0.496200
     19 N3          2.0600   -0.4420    1.1760 n3        1 P40     -0.725600
     20 C4          1.6920   -1.3880    2.2230 c3        1 P40      0.130300
     21 C5          2.4810   -1.1700    3.5190 c3        1 P40      0.126400
     22 O6          3.8830   -1.1470    3.2820 os        1 P40     -0.409600
     23 C17        -9.8710    2.1890   -4.6600 ca        1 P40     -0.129000
     24 C18        -8.4900    2.0010   -4.4780 ca        1 P40      0.017700
     25 C23        -7.5510    2.9070   -5.1760 c3        1 P40     -0.082800
     26 O24       -11.1370   -1.0360   -1.3510 o         1 P40     -0.421100
     27 C25        -4.7550    0.3870   -1.8850 ca        1 P40     -0.346600
     28 C26        -3.8620    0.1760   -2.9830 ca        1 P40      0.493600
     29 N27        -2.5320   -0.0800   -2.8000 nb        1 P40     -0.776000
     30 C28        -2.0810   -0.1370   -1.5020 ca        1 P40      0.909900
     31 N31        -0.7510   -0.4600   -1.3030 nh        1 P40     -0.841900
     32 N32       -12.5510   -0.9090   -3.1940 n4        1 P40     -0.647800
     33 H9         -6.7810    0.8040   -1.2370 ha        1 P40      0.134000
     34 H11        -6.1550    0.5660   -5.5140 ha        1 P40      0.135000
     35 H12        -3.7420    0.0840   -5.1710 ha        1 P40      0.163000
     36 H14        -8.6260   -0.6370   -2.2970 ha        1 P40      0.166000
     37 H16       -11.8710    1.5810   -4.1700 ha        1 P40      0.127000
     38 H17       -10.2200    3.0090   -5.3090 ha        1 P40      0.162000
     39 H20       -12.4730   -2.8730   -2.3840 hx        1 P40      0.157700
     40 H30        -4.8010    0.4880    0.3190 h4        1 P40      0.031100
     41 HN31       -0.1630   -0.5120   -2.1060 hn        1 P40      0.453800
     42 HN32      -12.5690   -0.4510   -4.1110 hn        1 P40      0.454800
     43 H31        -0.6350   -1.1000    0.6860 h1        1 P40      0.066700
     44 H41        -0.2590    0.6650    0.4190 h1        1 P40      0.066700
     45 H52         1.5030   -1.7800   -0.4120 h1        1 P40      0.041200
     46 H62         1.8640   -0.0540   -0.8720 h1        1 P40      0.041200
     47 H74         1.8430   -2.4560    1.8880 h1        1 P40      0.042700
     48 H84         0.5990   -1.2440    2.4470 h1        1 P40      0.042700
     49 H95         2.1680   -0.2150    4.0180 h1        1 P40      0.057950
     50 H05         2.3280   -2.0380    4.2130 h1        1 P40      0.057950
     51 H17A        4.0420    0.8650    2.7520 h1        1 P40      0.057950
     52 H27         5.3480   -0.2990    2.1820 h1        1 P40      0.057950
     53 H38         3.9210   -1.2700    0.4950 h1        1 P40      0.042700
     54 H48         3.7190    0.5380    0.3440 h1        1 P40      0.042700
     55 H221      -14.2570   -3.8510   -3.9490 hc        1 P40      0.110200
     56 H321      -14.3640   -2.2850   -4.8900 hc        1 P40      0.110200
     57 H422      -11.8680   -2.4510   -5.4910 hc        1 P40      0.110200
     58 H522      -11.7330   -4.0200   -4.5570 hc        1 P40      0.110200
     59 H623       -7.3490    2.5210   -6.2080 hc        1 P40      0.072700
     60 H723       -7.9820    3.9350   -5.2660 hc        1 P40      0.072700
     61 H823       -6.5740    2.9770   -4.6320 hc        1 P40      0.072700
     62 H322      -13.3540   -0.5820   -2.6420 hn        1 P40      0.454800
@<TRIPOS>BOND
     1    1    2 1   
     2    1   31 1   
     3    1   43 1   
     4    1   44 1   
     5    2   19 1   
     6    2   45 1   
     7    2   46 1   
     8    3    4 1   
     9    3   22 1   
    10    3   51 1   
    11    3   52 1   
    12    4   19 1   
    13    4   53 1   
    14    4   54 1   
    15    5    6 ar  
    16    5   27 ar  
    17    5   33 1   
    18    6    7 ar  
    19    6    9 1   
    20    7    8 ar  
    21    7   34 1   
    22    8   28 ar  
    23    8   35 1   
    24    9   10 ar  
    25    9   24 ar  
    26   10   11 ar  
    27   10   36 1   
    28   11   12 ar  
    29   11   13 1   
    30   12   23 ar  
    31   12   37 1   
    32   13   26 2   
    33   13   32 1   
    34   14   15 1   
    35   14   16 1   
    36   14   32 1   
    37   14   39 1   
    38   15   16 1   
    39   15   55 1   
    40   15   56 1   
    41   16   57 1   
    42   16   58 1   
    43   17   18 ar  
    44   17   30 ar  
    45   18   27 ar  
    46   18   40 1   
    47   19   20 1   
    48   20   21 1   
    49   20   47 1   
    50   20   48 1   
    51   21   22 1   
    52   21   49 1   
    53   21   50 1   
    54   23   24 ar  
    55   23   38 1   
    56   24   25 1   
    57   25   59 1   
    58   25   60 1   
    59   25   61 1   
    60   27   28 ar  
    61   28   29 ar  
    62   29   30 ar  
    63   30   31 1   
    64   31   41 1   
    65   32   42 1   
    66   32   62 1   
@<TRIPOS>SUBSTRUCTURE
     1 P40         1 TEMP              0 ****  ****    0 ROOT
