@<TRIPOS>MOLECULE
P40
   61    56     1     0     0
SMALL
bcc


@<TRIPOS>ATOM
      1 C1          2.2880    4.1020   -2.6890 c3        1 P40     -0.043000
      2 C2          3.2040    2.9840   -3.2200 c3        1 P40     -0.103000
      3 C7          2.9560    2.6920   -6.9190 c3        1 P40     -0.024000
      4 C8          2.5900    2.5870   -5.4460 c3        1 P40     -0.107000
      5 C9         -1.7200    0.3850    1.0700 c1        1 P40     -0.021000
      6 C10        -2.4450   -0.6290    0.4510 c1        1 P40     -0.057500
      7 C11        -2.3160   -0.8410   -0.9150 c1        1 P40     -0.073500
      8 C12        -1.4620   -0.0400   -1.6650 c1        1 P40     -0.127000
      9 C13        -2.8700   -1.4200    1.5310 c1        1 P40     -0.057500
     10 C14        -1.9880   -2.3250    2.1170 c1        1 P40     -0.073500
     11 C15        -2.3490   -2.9960    3.2830 c1        1 P40     -0.129000
     12 C16        -3.5940   -2.7630    3.8630 c1        1 P40     -0.098000
     13 C19        -1.3460   -3.9230    3.9730 c2        1 P40      0.352000
     14 C20        -0.7010   -5.3220    5.9260 cx        1 P40     -0.022000
     15 C21        -0.1730   -4.7220    7.2200 cx        1 P40     -0.233000
     16 C22        -1.1470   -5.8890    7.2650 cx        1 P40     -0.233000
     17 N29         0.7040    2.9920    0.1910 n1        1 P40     -0.203000
     18 C30        -0.1240    2.2160    0.9210 c1        1 P40     -0.021000
     19 N3          3.5300    3.2440   -4.6070 n3        1 P40     -0.248000
     20 C4          4.8670    2.8400   -4.8630 c3        1 P40     -0.107000
     21 C5          5.2320    2.9450   -6.3370 c3        1 P40     -0.024000
     22 O6          4.2920    2.2880   -7.1740 os        1 P40     -0.271000
     23 C17        -4.4780   -1.8590    3.2780 c1        1 P40     -0.143000
     24 C18        -4.1170   -1.1880    2.1130 c1        1 P40     -0.029000
     25 C23        -5.0830   -0.1800    1.4780 c3        1 P40     -0.187000
     26 O24        -0.2320   -4.0720    3.5030 o         1 P40     -0.359000
     27 C25        -0.8490    1.2020    0.3050 c1        1 P40     -0.185000
     28 C26        -0.7230    0.9940   -1.0350 c1        1 P40      0.068000
     29 N27         0.1170    1.7820   -1.7710 n1        1 P40     -0.225000
     30 C28         0.8310    2.7810   -1.1610 c1        1 P40      0.142000
     31 N31         1.8510    3.7730   -1.3570 n3        1 P40     -0.258000
     32 N32        -1.6810   -4.5330    5.2250 n         1 P40     -0.353000
     33 H9         -1.8110    0.5350    2.0360 ha        1 P40      0.152000
     34 H11        -2.8270   -1.5570   -1.3510 ha        1 P40      0.151500
     35 H12        -1.3710   -0.1900   -2.6310 ha        1 P40      0.154000
     36 H14        -1.1110   -2.4890    1.7090 ha        1 P40      0.151500
     37 H16        -3.8490   -3.2360    4.6830 ha        1 P40      0.136000
     38 H17        -5.3550   -1.6950    3.6870 ha        1 P40      0.138000
     39 H20        -0.0640   -5.8730    5.4200 h1        1 P40      0.162000
     40 H30        -0.2140    2.3670    1.8870 ha        1 P40      0.152000
     41 HN31        2.1910    4.2310   -0.6360 hn        1 P40      0.220000
     42 HN32       -2.5230   -4.4390    5.5690 hn        1 P40      0.224000
     43 H31         1.5050    4.1920   -3.2780 h1        1 P40      0.113000
     44 H41         2.7840    4.9530   -2.6710 h1        1 P40      0.113000
     45 H52         2.7410    2.1200   -3.1490 h1        1 P40      0.080500
     46 H62         4.0310    2.9570   -2.6880 h1        1 P40      0.080500
     47 H74         4.9790    1.9060   -4.5730 h1        1 P40      0.082250
     48 H84         5.4770    3.4100   -4.3440 h1        1 P40      0.082250
     49 H95         6.1180    2.5410   -6.4750 h1        1 P40      0.092750
     50 H05         5.2720    3.8940   -6.5870 h1        1 P40      0.092750
     51 H17A        2.3460    2.1220   -7.4390 h1        1 P40      0.092750
     52 H27         2.8440    3.6250   -7.2080 h1        1 P40      0.092750
     53 H38         2.5500    1.6360   -5.1950 h1        1 P40      0.082250
     54 H48         1.7040    2.9910   -5.3080 h1        1 P40      0.082250
     55 H221        0.7600   -4.9370    7.4400 hc        1 P40      0.113000
     56 H321       -0.5450   -3.8480    7.4680 hc        1 P40      0.113000
     57 H422       -2.0650   -5.6690    7.5370 hc        1 P40      0.113000
     58 H522       -0.7600   -6.7580    7.5090 hc        1 P40      0.113000
     59 H623       -4.7070    0.1460    0.6340 hc        1 P40      0.091333
     60 H723       -5.2160    0.5770    2.0910 hc        1 P40      0.091333
     61 H823       -5.9460   -0.6180    1.3050 hc        1 P40      0.091333
@<TRIPOS>BOND
     1    1    2 1   
     2    1   31 1   
     3    1   43 1   
     4    1   44 1   
     5    2   19 1   
     6    2   45 1   
     7    2   46 1   
     8    3    4 1   
     9    3   22 1   
    10    3   51 1   
    11    3   52 1   
    12    4   19 1   
    13    4   53 1   
    14    4   54 1   
    15    5   27 1   
    16    5   33 1   
    17    6    7 1   
    18    7   34 1   
    19    8   28 1   
    20    8   35 1   
    21    9   10 1   
    22   10   36 1   
    23   11   12 1   
    24   11   13 1   
    25   12   37 1   
    26   13   26 1   
    27   13   32 1   
    28   14   15 1   
    29   14   16 1   
    30   14   32 1   
    31   14   39 1   
    32   15   16 1   
    33   15   55 1   
    34   15   56 1   
    35   16   57 1   
    36   16   58 1   
    37   17   30 1   
    38   18   27 1   
    39   18   40 1   
    40   19   20 1   
    41   20   21 1   
    42   20   47 1   
    43   20   48 1   
    44   21   22 1   
    45   21   49 1   
    46   21   50 1   
    47   23   24 1   
    48   23   38 1   
    49   24   25 1   
    50   25   59 1   
    51   25   60 1   
    52   25   61 1   
    53   28   29 1   
    54   30   31 1   
    55   31   41 1   
    56   32   42 1   
@<TRIPOS>SUBSTRUCTURE
     1 P40         1 TEMP              0 ****  ****    0 ROOT
