@<TRIPOS>MOLECULE
P40
   62    66     1     0     0
SMALL
bcc


@<TRIPOS>ATOM
      1 C1         -0.1290   -0.3680   -0.0260 c3        1 P40      0.212800
      2 C2          1.3820   -0.6950   -0.1140 c3        1 P40      0.156800
      3 C7          4.2460   -0.1640    2.3040 c3        1 P40      0.126400
      4 C8          3.5050   -0.3440    0.9740 c3        1 P40      0.130300
      5 C9         -6.1350    0.6500   -2.0960 ca        1 P40     -0.033000
      6 C10        -6.6370    0.7320   -3.3820 cp        1 P40     -0.126000
      7 C11        -5.7610    0.5450   -4.4880 ca        1 P40     -0.087000
      8 C12        -4.4290    0.2830   -4.3100 ca        1 P40     -0.187300
      9 C13        -8.0590    0.9820   -3.6110 cp        1 P40     -0.009000
     10 C14        -8.9910    0.1580   -2.9660 ca        1 P40     -0.041000
     11 C15       -10.3680    0.3420   -3.1670 ca        1 P40     -0.216600
     12 C16       -10.8220    1.3790   -3.9970 ca        1 P40     -0.100000
     13 C19       -11.2700   -0.5510   -2.4490 c         1 P40      0.588700
     14 C20       -12.6790   -2.3760   -3.3680 cx        1 P40     -0.001500
     15 C21       -13.7170   -2.9540   -4.3080 cx        1 P40     -0.101900
     16 C22       -12.2650   -3.0390   -4.6650 cx        1 P40     -0.101900
     17 N29        -2.9030    0.0700   -0.3610 nb        1 P40     -0.718000
     18 C30        -4.1760    0.3140   -0.5760 ca        1 P40      0.496200
     19 N3          2.0590   -0.4470    1.1500 n3        1 P40     -0.725600
     20 C4          1.7000   -1.4110    2.1830 c3        1 P40      0.130300
     21 C5          2.4900   -1.2080    3.4810 c3        1 P40      0.126400
     22 O6          3.8920   -1.1730    3.2410 os        1 P40     -0.409600
     23 C17        -9.8990    2.2060   -4.6200 ca        1 P40     -0.129000
     24 C18        -8.5160    2.0220   -4.4450 ca        1 P40      0.017700
     25 C23        -7.5830    2.9400   -5.1350 c3        1 P40     -0.082800
     26 O24       -11.1410   -1.0650   -1.3480 o         1 P40     -0.421100
     27 C25        -4.7680    0.3930   -1.8830 ca        1 P40     -0.346600
     28 C26        -3.8760    0.1990   -2.9860 ca        1 P40      0.493600
     29 N27        -2.5450   -0.0530   -2.8090 nb        1 P40     -0.776000
     30 C28        -2.0900   -0.1240   -1.5130 ca        1 P40      0.909900
     31 N31        -0.7580   -0.4430   -1.3220 nu        1 P40     -0.841900
     32 N32       -12.5620   -0.9200   -3.1840 ny        1 P40     -0.647800
     33 H9         -6.7930    0.7930   -1.2240 ha        1 P40      0.134000
     34 H11        -6.1780    0.6100   -5.5060 ha        1 P40      0.135000
     35 H12        -3.7630    0.1340   -5.1750 ha        1 P40      0.163000
     36 H14        -8.6350   -0.6430   -2.2960 ha        1 P40      0.167000
     37 H16       -11.8950    1.5840   -4.1320 ha        1 P40      0.127000
     38 H17       -10.2530    3.0330   -5.2590 ha        1 P40      0.162000
     39 H20       -12.4710   -2.8960   -2.4010 hx        1 P40      0.157700
     40 H30        -4.8070    0.4670    0.3220 h4        1 P40      0.031100
     41 HN31       -0.1720   -0.4830   -2.1270 hn        1 P40      0.453800
     42 HN32      -12.5850   -0.4510   -4.0950 hn        1 P40      0.454800
     43 H31        -0.6340   -1.1080    0.6580 h1        1 P40      0.066700
     44 H41        -0.2670    0.6620    0.4130 h1        1 P40      0.066700
     45 H52         1.8570   -0.0300   -0.8920 h1        1 P40      0.041200
     46 H62         1.5040   -1.7640   -0.4560 h1        1 P40      0.041200
     47 H74         1.8570   -2.4730    1.8320 h1        1 P40      0.042700
     48 H84         0.6060   -1.2780    2.4120 h1        1 P40      0.042700
     49 H95         2.1720   -0.2630    3.9950 h1        1 P40      0.057950
     50 H05         2.3450   -2.0870    4.1620 h1        1 P40      0.057950
     51 H17A        5.3490   -0.2980    2.1500 h1        1 P40      0.057950
     52 H27         4.0370    0.8480    2.7410 h1        1 P40      0.057950
     53 H38         3.7100    0.5550    0.3290 h1        1 P40      0.042700
     54 H48         3.9240   -1.2530    0.4520 h1        1 P40      0.042700
     55 H221      -14.2570   -3.8610   -3.9720 hc        1 P40      0.110200
     56 H321      -14.3750   -2.2820   -4.8910 hc        1 P40      0.110200
     57 H422      -11.8810   -2.4290   -5.5040 hc        1 P40      0.110200
     58 H522      -11.7350   -4.0100   -4.5920 hc        1 P40      0.110200
     59 H623       -6.6060    3.0080   -4.5930 hc        1 P40      0.072700
     60 H723       -8.0200    3.9680   -5.2120 hc        1 P40      0.072700
     61 H823       -7.3820    2.5670   -6.1720 hc        1 P40      0.072700
     62 H322      -13.3640   -0.6050   -2.6250 hn        1 P40      0.454800
@<TRIPOS>BOND
     1    1    2 1   
     2    1   31 1   
     3    1   43 1   
     4    1   44 1   
     5    2   19 1   
     6    2   45 1   
     7    2   46 1   
     8    3    4 1   
     9    3   22 1   
    10    3   51 1   
    11    3   52 1   
    12    4   19 1   
    13    4   53 1   
    14    4   54 1   
    15    5    6 ar  
    16    5   27 ar  
    17    5   33 1   
    18    6    7 ar  
    19    6    9 1   
    20    7    8 ar  
    21    7   34 1   
    22    8   28 ar  
    23    8   35 1   
    24    9   10 ar  
    25    9   24 ar  
    26   10   11 ar  
    27   10   36 1   
    28   11   12 ar  
    29   11   13 1   
    30   12   23 ar  
    31   12   37 1   
    32   13   26 2   
    33   13   32 1   
    34   14   15 1   
    35   14   16 1   
    36   14   32 1   
    37   14   39 1   
    38   15   16 1   
    39   15   55 1   
    40   15   56 1   
    41   16   57 1   
    42   16   58 1   
    43   17   18 ar  
    44   17   30 ar  
    45   18   27 ar  
    46   18   40 1   
    47   19   20 1   
    48   20   21 1   
    49   20   47 1   
    50   20   48 1   
    51   21   22 1   
    52   21   49 1   
    53   21   50 1   
    54   23   24 ar  
    55   23   38 1   
    56   24   25 1   
    57   25   59 1   
    58   25   60 1   
    59   25   61 1   
    60   27   28 ar  
    61   28   29 ar  
    62   29   30 ar  
    63   30   31 1   
    64   31   41 1   
    65   32   42 1   
    66   32   62 1   
@<TRIPOS>SUBSTRUCTURE
     1 P40         1 TEMP              0 ****  ****    0 ROOT
