@<TRIPOS>MOLECULE
P40
   61    65     1     0     0
SMALL
bcc


@<TRIPOS>ATOM
      1 C1         -5.2010    0.0550   -0.0420 c3        1 P40      0.202800
      2 C2         -6.6340    0.3780    0.4430 c3        1 P40      0.156800
      3 C7        -10.0390   -1.0350   -0.4110 c3        1 P40      0.126400
      4 C8         -8.9770   -0.0430    0.0760 c3        1 P40      0.130800
      5 C9          1.1570    0.6520   -0.7480 ca        1 P40     -0.059000
      6 C10         2.0530    1.4780   -0.0950 cp        1 P40     -0.068000
      7 C11         1.5730    2.3940    0.8790 ca        1 P40     -0.085000
      8 C12         0.2390    2.4860    1.1850 ca        1 P40     -0.196300
      9 C13         3.4860    1.3880   -0.3800 cp        1 P40     -0.044000
     10 C14         4.0980    0.1280   -0.3220 ca        1 P40     -0.067000
     11 C15         5.4630   -0.0160   -0.5780 ca        1 P40     -0.147600
     12 C16         6.2280    1.1040   -0.9170 ca        1 P40     -0.099000
     13 C19         6.0480   -1.3860   -0.5130 c         1 P40      0.679700
     14 C20         7.9690   -2.7490    0.1820 cx        1 P40      0.054700
     15 C21         9.4800   -2.8640    0.1100 cx        1 P40     -0.154400
     16 C22         8.7800   -3.0800    1.4210 cx        1 P40     -0.154400
     17 N29        -2.4940   -0.0370   -0.8400 nb        1 P40     -0.723000
     18 C30        -1.2050   -0.1010   -1.0960 ca        1 P40      0.487200
     19 N3         -7.6190   -0.5490   -0.0940 n3        1 P40     -0.722600
     20 C4         -7.4700   -1.9030    0.4270 c3        1 P40      0.130800
     21 C5         -8.5730   -2.8490   -0.0600 c3        1 P40      0.126400
     22 O6         -9.8700   -2.3170    0.1810 os        1 P40     -0.414600
     23 C17         5.6220    2.3540   -0.9900 ca        1 P40     -0.142000
     24 C18         4.2560    2.5150   -0.7220 ca        1 P40     -0.038300
     25 C23         3.6640    3.8700   -0.8190 c3        1 P40     -0.063800
     26 O24         5.4220   -2.3840   -0.9220 o         1 P40     -0.601100
     27 C25        -0.2210    0.7280   -0.4580 ca        1 P40     -0.319600
     28 C26        -0.7140    1.6510    0.5150 ca        1 P40      0.466600
     29 N27        -2.0510    1.7420    0.8160 nb        1 P40     -0.763000
     30 C28        -2.9000    0.9250    0.1230 ca        1 P40      0.873900
     31 N31        -4.2760    1.1000    0.3330 nh        1 P40     -0.831900
     32 N32         7.3160   -1.5000    0.0310 n         1 P40     -0.541900
     33 H9          1.5070   -0.0720   -1.5010 ha        1 P40      0.144000
     34 H11         2.3030    3.0380    1.3970 ha        1 P40      0.139000
     35 H12        -0.1170    3.1990    1.9450 ha        1 P40      0.153000
     36 H14         3.4970   -0.7650   -0.0770 ha        1 P40      0.158000
     37 H16         7.2990    1.0060   -1.1490 ha        1 P40      0.136000
     38 H17         6.2230    3.2340   -1.2680 ha        1 P40      0.137000
     39 H20         7.3660   -3.5710   -0.2740 h1        1 P40      0.122700
     40 H30        -0.8870   -0.8490   -1.8480 h4        1 P40      0.030100
     41 HN31       -4.5180    1.6220    1.1490 hn        1 P40      0.428800
     42 HN32        7.7580   -0.6960    0.4060 hn        1 P40      0.311500
     43 H31        -4.8790   -0.9370    0.3890 h1        1 P40      0.061200
     44 H41        -5.1950   -0.0360   -1.1650 h1        1 P40      0.061200
     45 H52        -6.6440    0.3900    1.5730 h1        1 P40      0.039200
     46 H62        -6.9140    1.4110    0.0870 h1        1 P40      0.039200
     47 H74        -6.4810   -2.3020    0.0680 h1        1 P40      0.042450
     48 H84        -7.4630   -1.9140    1.5560 h1        1 P40      0.042450
     49 H95        -8.4540   -3.0650   -1.1550 h1        1 P40      0.055450
     50 H05        -8.5490   -3.8040    0.5270 h1        1 P40      0.055450
     51 H17A      -11.0570   -0.7030   -0.0780 h1        1 P40      0.055450
     52 H27       -10.0100   -1.1300   -1.5290 h1        1 P40      0.055450
     53 H38        -9.0690    0.9020   -0.5280 h1        1 P40      0.042450
     54 H48        -9.1930    0.2090    1.1550 h1        1 P40      0.042450
     55 H221        9.9080   -3.7290   -0.4260 hc        1 P40      0.073950
     56 H321       10.0960   -1.9560   -0.0180 hc        1 P40      0.073950
     57 H422        8.9020   -2.3250    2.2170 hc        1 P40      0.073950
     58 H522        8.7030   -4.1010    1.8330 hc        1 P40      0.073950
     59 H623        3.7890    4.4110    0.1530 hc        1 P40      0.052033
     60 H723        4.1730    4.4670   -1.6170 hc        1 P40      0.052033
     61 H823        2.5730    3.8200   -1.0560 hc        1 P40      0.052033
@<TRIPOS>BOND
     1    1    2 1   
     2    1   31 1   
     3    1   43 1   
     4    1   44 1   
     5    2   19 1   
     6    2   45 1   
     7    2   46 1   
     8    3    4 1   
     9    3   22 1   
    10    3   51 1   
    11    3   52 1   
    12    4   19 1   
    13    4   53 1   
    14    4   54 1   
    15    5    6 ar  
    16    5   27 ar  
    17    5   33 1   
    18    6    7 ar  
    19    6    9 1   
    20    7    8 ar  
    21    7   34 1   
    22    8   28 ar  
    23    8   35 1   
    24    9   10 ar  
    25    9   24 ar  
    26   10   11 ar  
    27   10   36 1   
    28   11   12 ar  
    29   11   13 1   
    30   12   23 ar  
    31   12   37 1   
    32   13   26 2   
    33   13   32 1   
    34   14   15 1   
    35   14   16 1   
    36   14   32 1   
    37   14   39 1   
    38   15   16 1   
    39   15   55 1   
    40   15   56 1   
    41   16   57 1   
    42   16   58 1   
    43   17   18 ar  
    44   17   30 ar  
    45   18   27 ar  
    46   18   40 1   
    47   19   20 1   
    48   20   21 1   
    49   20   47 1   
    50   20   48 1   
    51   21   22 1   
    52   21   49 1   
    53   21   50 1   
    54   23   24 ar  
    55   23   38 1   
    56   24   25 1   
    57   25   59 1   
    58   25   60 1   
    59   25   61 1   
    60   27   28 ar  
    61   28   29 ar  
    62   29   30 ar  
    63   30   31 1   
    64   31   41 1   
    65   32   42 1   
@<TRIPOS>SUBSTRUCTURE
     1 P40         1 TEMP              0 ****  ****    0 ROOT
