@<TRIPOS>MOLECULE
P41
   41    33     1     0     0
SMALL
bcc


@<TRIPOS>ATOM
      1 C13         0.1410    0.6300   -0.8560 c1        1 P41     -0.172500
      2 C18        -0.0200    0.4310   -6.4720 c3        1 P41     -0.231000
      3 C17         2.0940    1.7090   -6.4470 c3        1 P41     -0.231000
      4 C16         0.9020    0.6840   -3.2190 c1        1 P41     -0.084000
      5 C15        -0.5000    0.5550    2.7690 c2        1 P41      0.007000
      6 C19         0.9190    1.2490   -5.6130 c3        1 P41     -0.006000
      7 C11         1.5630    0.5430   -0.8720 c1        1 P41     -0.172500
      8 C12        -0.5090   -1.7320    5.1680 c1        1 P41      0.125000
      9 C1         -2.8620   -3.0170    4.4630 c1        1 P41     -0.118500
     10 C2         -1.9520   -3.6470    5.2970 c1        1 P41     -0.118500
     11 C3         -2.5970   -1.7450    3.9820 c1        1 P41     -0.118500
     12 C4          1.5770    0.4250    1.5370 c1        1 P41     -0.118500
     13 C5          2.2650    0.4420    0.3200 c1        1 P41     -0.118500
     14 C6         -0.7750   -3.0040    5.6500 c1        1 P41     -0.118500
     15 C7         -0.5400    0.6130    0.3540 c1        1 P41     -0.049000
     16 C8         -1.1170    2.3780    3.8100 c1        1 P41     -0.046000
     17 C9          0.1700    0.5110    1.5540 c1        1 P41     -0.032000
     18 C10        -1.4200   -1.1020    4.3340 c1        1 P41     -0.045000
     19 C14        -1.1830    0.1940    3.9030 c1        1 P41     -0.073000
     20 N20        -1.5590    1.3190    4.5360 n2        1 P41     -0.119000
     21 N21         2.0480    0.5780   -2.3810 n1        1 P41     -0.173000
     22 N22         1.3870    0.4540   -4.5320 n2        1 P41     -0.250000
     23 O23        -0.4620    1.8960    2.7170 os        1 P41     -0.129000
     24 F24         0.6080   -1.0950    5.5420 f         1 P41     -0.091000
     25 S25        -0.3430    0.7220   -2.3160 s         1 P41      0.390000
     26 H18        -0.5890   -0.1220   -5.8970 hc        1 P41      0.086500
     27 H18A       -0.5800    1.0320   -7.0060 hc        1 P41      0.086500
     28 H18B        0.5020   -0.1460   -7.0670 hc        1 P41      0.086500
     29 H17         1.9480    2.6340   -6.7360 hc        1 P41      0.086500
     30 H17A        2.1820    1.1310   -7.2340 hc        1 P41      0.086500
     31 H17B        2.9140    1.6600   -5.9120 hc        1 P41      0.086500
     32 H19         0.4440    2.0290   -5.2620 h1        1 P41      0.103000
     33 H1         -3.6910   -3.4700    4.2150 ha        1 P41      0.146667
     34 H2         -2.1390   -4.5430    5.6360 ha        1 P41      0.146667
     35 H3         -3.2380   -1.3020    3.3940 ha        1 P41      0.146667
     36 H4          2.0710    0.3630    2.3760 ha        1 P41      0.146667
     37 H5          3.2390    0.3830    0.3090 ha        1 P41      0.146667
     38 H6         -0.1340   -3.4480    6.2370 ha        1 P41      0.146667
     39 H7         -1.5120    0.6970    0.3680 ha        1 P41      0.153000
     40 H8         -1.2460    3.3190    4.0320 DU        1 P41      0.226000
     41 HN22        1.9930   -0.2110   -4.6850 hn        1 P41      0.212000
@<TRIPOS>BOND
     1    1    7 1   
     2    2    6 1   
     3    2   26 1   
     4    2   27 1   
     5    2   28 1   
     6    3    6 1   
     7    3   29 1   
     8    3   30 1   
     9    3   31 1   
    10    4   21 1   
    11    4   25 1   
    12    5   17 1   
    13    5   19 1   
    14    5   23 1   
    15    6   22 1   
    16    6   32 1   
    17    8   18 1   
    18    8   24 1   
    19    9   11 1   
    20    9   33 1   
    21   10   14 1   
    22   10   34 1   
    23   11   35 1   
    24   12   13 1   
    25   12   36 1   
    26   13   37 1   
    27   14   38 1   
    28   15   17 1   
    29   15   39 1   
    30   16   20 1   
    31   16   23 1   
    32   19   20 1   
    33   22   41 1   
@<TRIPOS>SUBSTRUCTURE
     1 P41         1 TEMP              0 ****  ****    0 ROOT
