@<TRIPOS>MOLECULE
P41
   41    44     1     0     0
SMALL
bcc


@<TRIPOS>ATOM
      1 C13         1.0070    0.2570   -0.1430 c2        1 P41     -0.458000
      2 C18         3.7360   -2.6800   -6.8970 c3        1 P41     -0.270000
      3 C17         3.6220    0.6700   -5.2810 c3        1 P41     -0.251000
      4 C16         2.7870    0.7760   -1.6590 c2        1 P41     -0.226000
      5 C15        -1.6660    0.0340    2.7640 c2        1 P41      0.000000
      6 C11         2.2050    0.8130    0.4520 c2        1 P41     -0.084000
      7 C12        -4.1200    2.2420    4.6630 c2        1 P41      0.201000
      8 C1         -2.9780    4.2440    2.9890 c3        1 P41     -0.208000
      9 C2         -3.9790    4.5870    4.0200 c2        1 P41     -0.087000
     10 C3         -2.6020    2.8470    2.8640 c1        1 P41     -0.092000
     11 C4          0.7870    0.4750    2.1590 cu        1 P41     -0.172000
     12 C5          1.9850    1.0460    1.8870 c2        1 P41     -0.021000
     13 C6         -4.5150    3.6330    4.8100 c2        1 P41     -0.213000
     14 C7          0.1220   -0.1630    0.9510 cx        1 P41     -0.120000
     15 C8         -2.7030   -1.7900    3.6310 c1        1 P41      0.069000
     16 C9         -0.6430    0.7040    1.9830 cx        1 P41      0.049000
     17 C10        -3.1840    1.8630    3.7040 c2        1 P41     -0.137000
     18 C14        -2.7430    0.4980    3.5030 c2        1 P41     -0.046000
     19 N20        -3.3700   -0.6660    4.0350 n7        1 P41     -0.274000
     20 N21         3.2200    1.1100   -0.4160 n2        1 P41     -0.099000
     21 N22         3.5360    0.9280   -2.8470 nu        1 P41     -0.124000
     22 O23        -1.6590   -1.3790    2.8540 os        1 P41     -0.132000
     23 S25         1.1800    0.1190   -1.7630 ss        1 P41      0.725000
     24 H18         2.8810   -2.6240   -6.1880 hc        1 P41      0.068250
     25 H18A        3.6280   -1.8900   -7.6710 hc        1 P41      0.068250
     26 H18B        3.7480   -3.6790   -7.3850 hc        1 P41      0.068250
     27 H17         3.6450   -0.3590   -5.7280 hc        1 P41      0.097667
     28 H17A        4.6880   -2.5280   -6.3430 hc        1 P41      0.068250
     29 H17B        2.9830    1.3170   -5.9360 hc        1 P41      0.097667
     30 H19         4.6640    1.0820   -5.2790 hc        1 P41      0.097667
     31 H1         -3.3450    4.5810    1.9710 hc        1 P41      0.175500
     32 H2         -4.2710    5.6440    4.1210 ha        1 P41      0.144000
     33 H3         -2.0240    4.8270    3.1720 hc        1 P41      0.175500
     34 H4         -0.9490    1.7610    1.7620 hc        1 P41      0.189000
     35 H5          2.6520    1.6230    2.5240 ha        1 P41      0.167000
     36 H6         -5.2610    3.8610    5.5870 ha        1 P41      0.158000
     37 H7         -0.2020   -1.2200    0.9190 hc        1 P41      0.172000
     38 H8         -4.1650   -0.6360    4.6190 hn        1 P41      0.262000
     39 HN22        4.4630    1.2990   -2.7440 hn        1 P41      0.197000
     40 F24        -4.7150    1.3700    5.5010 f         1 P41     -0.088000
     41 C19         2.9530    0.5690   -3.9740 c1        1 P41     -0.148000
@<TRIPOS>BOND
     1    1    6 1   
     2    1   14 1   
     3    1   23 1   
     4    2   24 1   
     5    2   25 1   
     6    2   26 1   
     7    2   28 1   
     8    3   27 1   
     9    3   29 1   
    10    3   30 1   
    11    3   41 1   
    12    4   20 1   
    13    4   21 1   
    14    4   23 1   
    15    5   16 1   
    16    5   18 1   
    17    5   22 1   
    18    6   12 1   
    19    6   20 1   
    20    7   13 1   
    21    7   17 1   
    22    7   40 1   
    23    8    9 1   
    24    8   10 1   
    25    8   31 1   
    26    8   33 1   
    27    9   13 1   
    28    9   32 1   
    29   10   17 1   
    30   11   12 1   
    31   11   14 1   
    32   11   16 1   
    33   12   35 1   
    34   13   36 1   
    35   14   16 1   
    36   14   37 1   
    37   15   19 1   
    38   15   22 1   
    39   16   34 1   
    40   17   18 1   
    41   18   19 1   
    42   19   38 1   
    43   21   39 1   
    44   21   41 1   
@<TRIPOS>SUBSTRUCTURE
     1 P41         1 TEMP              0 ****  ****    0 ROOT
