@<TRIPOS>MOLECULE
P41
   41    44     1     0     0
SMALL
bcc


@<TRIPOS>ATOM
      1 C13        -1.2180   -0.1540    0.0500 ca        1 P41     -0.103100
      2 C18        -7.3370    0.5700    0.7260 c3        1 P41     -0.113600
      3 C17        -6.3980   -0.1520   -1.4620 c3        1 P41     -0.113600
      4 C16        -3.6640    0.1400    0.1210 cc        1 P41      0.597100
      5 C15         2.2400   -1.5070   -0.2800 cc        1 P41      0.245900
      6 C11        -2.0050   -1.3190   -0.2380 ca        1 P41      0.135400
      7 C12         3.9630    1.6190    0.6430 ca        1 P41      0.160900
      8 C1          2.5910    2.9080   -1.4240 ca        1 P41     -0.152000
      9 C2          3.2650    3.6600   -0.4600 ca        1 P41     -0.098000
     10 C3          2.6010    1.5180   -1.3590 ca        1 P41     -0.093000
     11 C4          0.0290   -2.5750   -0.5420 ca        1 P41     -0.094000
     12 C5         -1.3530   -2.5340   -0.5330 ca        1 P41     -0.099000
     13 C6          3.9480    3.0270    0.5710 ca        1 P41     -0.174000
     14 C7          0.1710   -0.2150    0.0360 ca        1 P41     -0.055000
     15 C8          4.1840   -2.6020   -0.2620 cc        1 P41      0.483300
     16 C9          0.8020   -1.4250   -0.2640 ca        1 P41     -0.140500
     17 C10         3.2800    0.8530   -0.3290 ca        1 P41     -0.152500
     18 C14         3.3070   -0.5990   -0.2920 cd        1 P41      0.293500
     19 N20         4.5230   -1.3210   -0.2750 nd        1 P41     -0.645000
     20 N21        -3.3900   -1.1290   -0.2060 nd        1 P41     -0.602100
     21 N22        -4.9100    0.6920    0.3760 nh        1 P41     -0.768200
     22 O23         2.7980   -2.7980   -0.2650 os        1 P41     -0.385800
     23 S25        -2.2300    1.1600    0.3810 ss        1 P41     -0.088100
     24 H18        -8.2280   -0.0690    0.5150 hc        1 P41      0.045033
     25 H18A       -7.1900    0.6250    1.8310 hc        1 P41      0.045033
     26 H18B       -7.5380    1.5980    0.3390 hc        1 P41      0.045033
     27 H17        -6.5660    0.8580   -1.9060 hc        1 P41      0.045033
     28 H17A       -5.5470   -0.6420   -1.9920 hc        1 P41      0.045033
     29 H17B       -7.3150   -0.7670   -1.6210 hc        1 P41      0.045033
     30 H19        -5.9850   -1.1000    0.4440 h1        1 P41      0.086700
     31 H1          2.0550    3.4140   -2.2410 ha        1 P41      0.139000
     32 H2          3.2590    4.7590   -0.5160 ha        1 P41      0.138000
     33 H3          2.0760    0.9260   -2.1250 ha        1 P41      0.146000
     34 H4          0.5470   -3.5210   -0.7670 ha        1 P41      0.150000
     35 H5         -1.9450   -3.4350   -0.7510 ha        1 P41      0.155000
     36 H6          4.4850    3.6080    1.3350 ha        1 P41      0.151000
     37 H7          0.7720    0.6820    0.2590 ha        1 P41      0.153000
     38 H8          4.7940   -3.5060   -0.2470 h5        1 P41      0.090100
     39 HN22       -4.9640    1.6650    0.1540 hn        1 P41      0.409800
     40 F24         4.6280    1.0220    1.6580 f         1 P41     -0.124900
     41 C19        -6.1190   -0.0510    0.0380 c3        1 P41      0.196500
@<TRIPOS>BOND
     1    1    6 ar  
     2    1   14 ar  
     3    1   23 1   
     4    2   24 1   
     5    2   25 1   
     6    2   26 1   
     7    2   41 1   
     8    3   27 1   
     9    3   28 1   
    10    3   29 1   
    11    3   41 1   
    12    4   20 2   
    13    4   21 1   
    14    4   23 1   
    15    5   16 1   
    16    5   18 2   
    17    5   22 1   
    18    6   12 ar  
    19    6   20 1   
    20    7   13 ar  
    21    7   17 ar  
    22    7   40 1   
    23    8    9 ar  
    24    8   10 ar  
    25    8   31 1   
    26    9   13 ar  
    27    9   32 1   
    28   10   17 ar  
    29   10   33 1   
    30   11   12 ar  
    31   11   16 ar  
    32   11   34 1   
    33   12   35 1   
    34   13   36 1   
    35   14   16 ar  
    36   14   37 1   
    37   15   19 2   
    38   15   22 1   
    39   15   38 1   
    40   17   18 1   
    41   18   19 1   
    42   21   39 1   
    43   21   41 1   
    44   30   41 1   
@<TRIPOS>SUBSTRUCTURE
     1 P41         1 TEMP              0 ****  ****    0 ROOT
