@<TRIPOS>MOLECULE
P41
   42    44     1     0     0
SMALL
bcc


@<TRIPOS>ATOM
      1 C13         1.8030    0.3310    0.5710 c2        1 P41     -0.365000
      2 C18         2.3810   -2.2230   -4.9900 c3        1 P41     -0.254000
      3 C17         0.8260   -0.4200   -4.2320 c3        1 P41     -0.254000
      4 C16         2.0390   -1.0510   -1.4090 c2        1 P41     -0.386000
      5 C15        -0.9970    1.2530    1.7760 c2        1 P41     -0.110000
      6 C11         3.1510    0.1620    0.0950 c2        1 P41      0.171000
      7 C12        -3.6890    3.9120    2.1890 c3        1 P41      0.253000
      8 C1         -2.4210    4.0760    5.1080 c3        1 P41     -0.009000
      9 C2         -3.3540    4.9190    4.4000 c1        1 P41     -0.124000
     10 C3         -2.1300    2.9980    4.0660 c2        1 P41     -0.103000
     11 C4          5.5570    0.7510    0.4200 c1        1 P41      0.349000
     12 C5          4.2750    0.7620    0.7510 c2        1 P41     -0.474000
     13 C6         -3.8480    4.8480    3.2920 c1        1 P41     -0.211000
     14 C7          1.5000    1.0370    1.6860 c1        1 P41     -0.093000
     15 C8         -2.4200    0.2100    0.3280 c1        1 P41      0.080000
     16 C9          0.3270    1.4630    2.3830 c3        1 P41     -0.067000
     17 C10        -2.6630    2.8990    2.8220 c2        1 P41     -0.122000
     18 C14        -2.2440    1.8310    1.9360 c2        1 P41     -0.031000
     19 N20        -3.1070    1.1570    1.0210 n3        1 P41     -0.247000
     20 N21         3.2810   -0.6130   -1.0310 n2        1 P41     -0.154000
     21 N22         1.9160   -1.9420   -2.5580 n4        1 P41      0.034000
     22 O23        -1.1230    0.2500    0.7820 os        1 P41     -0.195000
     23 S25         0.7560   -0.5290   -0.4780 ss        1 P41      0.715000
     24 H18         2.9530   -0.5180   -3.7640 hx        1 P41      0.166000
     25 H18A        3.3180   -2.7960   -4.7780 hc        1 P41      0.118000
     26 H18B        2.5350   -1.6540   -5.9430 hc        1 P41      0.118000
     27 H17         1.5380   -2.9390   -5.1460 hc        1 P41      0.118000
     28 H17A       -0.0500   -1.0870   -4.4240 hc        1 P41      0.118000
     29 H17B        0.5640    0.3040   -3.4220 hc        1 P41      0.118000
     30 H19         1.0320    0.1630   -5.1650 hc        1 P41      0.118000
     31 H1         -2.8640    3.6120    6.0290 hc        1 P41      0.136500
     32 H2         -1.4730    4.6040    5.3940 hc        1 P41      0.136500
     33 H3         -1.4020    2.2470    4.4160 ha        1 P41      0.141000
     34 H4          0.4480    2.5690    2.6080 hc        1 P41      0.168500
     35 H5          3.9980    1.3170    1.6880 ha        1 P41      0.248000
     36 H6         -3.2050    4.3960    1.2890 h1        1 P41      0.127000
     37 H7          0.3620    0.9360    3.3910 hc        1 P41      0.168500
     38 H8         -4.0760    1.3680    0.9450 hn        1 P41      0.290000
     39 HN22        0.9930   -2.3890   -2.5230 hn        1 P41      0.257000
     40 C19         2.0720   -1.2190   -3.8890 c3        1 P41     -0.060000
     41 H222        2.6430   -2.6720   -2.5060 hn        1 P41      0.257000
     42 F24        -4.8490    3.2890    1.7760 f         1 P41     -0.146000
@<TRIPOS>BOND
     1    1    6 1   
     2    1   14 1   
     3    1   23 1   
     4    2   25 1   
     5    2   26 1   
     6    2   27 1   
     7    2   40 1   
     8    3   28 1   
     9    3   29 1   
    10    3   30 1   
    11    3   40 1   
    12    4   20 1   
    13    4   21 1   
    14    4   23 1   
    15    5   16 1   
    16    5   18 1   
    17    5   22 1   
    18    6   12 1   
    19    6   20 1   
    20    7   13 1   
    21    7   17 1   
    22    7   36 1   
    23    7   42 1   
    24    8    9 1   
    25    8   10 1   
    26    8   31 1   
    27    8   32 1   
    28    9   13 1   
    29   10   17 1   
    30   10   33 1   
    31   11   12 1   
    32   12   35 1   
    33   14   16 1   
    34   15   19 1   
    35   15   22 1   
    36   16   34 1   
    37   16   37 1   
    38   17   18 1   
    39   18   19 1   
    40   19   38 1   
    41   21   39 1   
    42   21   40 1   
    43   21   41 1   
    44   24   40 1   
@<TRIPOS>SUBSTRUCTURE
     1 P41         1 TEMP              0 ****  ****    0 ROOT
