@<TRIPOS>MOLECULE
P42
  140   139     1     0     0
SMALL
bcc


@<TRIPOS>ATOM
      1 C4         -1.1540    0.0840   -1.2050 c3        1 P42      0.196400
      2 C5         -0.7750    1.0680   -0.0820 c3        1 P42      0.088800
      3 C6          1.2800    1.9040   -1.1660 c3        1 P42      0.079100
      4 C7          0.8050    2.4170    1.1590 c3        1 P42      0.079100
      5 C8          1.4370    0.1600    0.5360 c3        1 P42      0.079100
      6 CBX       -21.1130    4.6220   -1.8560 c3        1 P42     -0.092100
      7 CBV       -20.2520    3.4960   -1.3450 c3        1 P42     -0.080400
      8 CBS       -18.7840    3.8650   -1.3690 c3        1 P42     -0.079400
      9 CBH       -17.9230    2.7310   -0.8550 c3        1 P42     -0.079400
     10 CAQ       -16.4550    3.1000   -0.8800 c3        1 P42     -0.078400
     11 CAP       -15.5940    1.9670   -0.3660 c3        1 P42     -0.079400
     12 CAO       -14.1270    2.3360   -0.3920 c3        1 P42     -0.078400
     13 CAN       -13.2660    1.2020    0.1220 c3        1 P42     -0.079400
     14 CAM       -11.7980    1.5710    0.0970 c3        1 P42     -0.078400
     15 CAL       -10.9370    0.4370    0.6120 c3        1 P42     -0.079400
     16 CAK        -9.4690    0.8060    0.5870 c3        1 P42     -0.078400
     17 CAJ        -8.6090   -0.3280    1.1010 c3        1 P42     -0.079400
     18 CAI        -7.1410    0.0410    1.0770 c3        1 P42     -0.078400
     19 CAH        -6.2820   -1.0930    1.5920 c3        1 P42     -0.080400
     20 CAG        -4.8140   -0.7250    1.5690 c3        1 P42     -0.075400
     21 CAE        -2.4900   -1.4950    2.0480 c3        1 P42     -0.118400
     22 CAD        -1.6430   -2.6180    2.6400 c3        1 P42      0.327900
     23 OAA        -1.9050   -2.8860    3.9960 oh        1 P42     -0.621800
     24 CAB         0.6720   -3.2230    2.7110 c3        1 P42      0.123400
     25 CBE         1.4520   -3.4090    1.4040 c3        1 P42      0.108100
     26 CBK         0.5510   -3.4800    0.1580 c3        1 P42      0.181400
     27 OBL         1.1580   -2.8010   -0.8990 os        1 P42     -0.577200
     28 PBM         0.1920   -2.0230   -1.9750 p5        1 P42      1.445800
     29 OBF         1.0300   -0.9050   -2.4660 o         1 P42     -0.811000
     30 OBU        -0.6590   -2.9700   -2.6910 o         1 P42     -0.811000
     31 OBN        -0.7820   -1.2040   -0.8780 os        1 P42     -0.585200
     32 OBD         2.3590   -2.3100    1.2890 os        1 P42     -0.462600
     33 CBC         3.7220   -2.6870    1.1070 c3        1 P42      0.342900
     34 OBJ         3.7710   -3.5960    0.0440 oh        1 P42     -0.631800
     35 CBB         4.4970   -1.3960    0.8410 c3        1 P42     -0.106400
     36 CBA         5.9780   -1.6840    0.7460 c3        1 P42     -0.079400
     37 CAZ         6.7570   -0.4390    0.3810 c3        1 P42     -0.077400
     38 CAY         8.2410   -0.7250    0.3040 c3        1 P42     -0.079400
     39 CAX         9.0220    0.5180   -0.0660 c3        1 P42     -0.078400
     40 CAW        10.5070    0.2320   -0.1410 c3        1 P42     -0.079400
     41 CAV        11.2880    1.4740   -0.5120 c3        1 P42     -0.078400
     42 CAU        12.7720    1.1880   -0.5860 c3        1 P42     -0.079400
     43 CAT        13.5530    2.4300   -0.9570 c3        1 P42     -0.078400
     44 CAS        15.0380    2.1440   -1.0300 c3        1 P42     -0.079400
     45 CAR        15.8200    3.3860   -1.4010 c3        1 P42     -0.078400
     46 CBI        17.3040    3.1000   -1.4750 c3        1 P42     -0.079400
     47 CBT        18.0860    4.3410   -1.8460 c3        1 P42     -0.079400
     48 CBW        19.5710    4.0560   -1.9200 c3        1 P42     -0.080400
     49 CBY        20.3530    5.2900   -2.2890 c3        1 P42     -0.092100
     50 H4         -2.2840    0.1360   -1.2570 h1        1 P42      0.056200
     51 H4A        -0.7130    0.4070   -2.1880 h1        1 P42      0.056200
     52 H5         -1.2950    2.0450   -0.2840 hx        1 P42      0.079700
     53 H5A        -1.1380    0.6340    0.8950 hx        1 P42      0.079700
     54 H6          2.3170    2.2710   -0.9530 hx        1 P42      0.101478
     55 H6A         0.6460    2.7450   -1.5460 hx        1 P42      0.101478
     56 H6B         1.3360    1.0790   -1.9420 hx        1 P42      0.101478
     57 H7          0.2540    3.3410    0.8450 hx        1 P42      0.101478
     58 H7A         1.8870    2.6650    1.3190 hx        1 P42      0.101478
     59 H7B         0.3690    2.0220    2.1140 hx        1 P42      0.101478
     60 H8          2.4650    0.4550    0.8660 hx        1 P42      0.101478
     61 H8A         1.5140   -0.5670   -0.3310 hx        1 P42      0.101478
     62 H8B         0.8880   -0.3560    1.3710 hx        1 P42      0.101478
     63 HBX       -20.9810    5.5370   -1.2290 hc        1 P42      0.032367
     64 HBXA      -20.8430    4.8790   -2.9090 hc        1 P42      0.032367
     65 HBV       -20.5550    3.2370   -0.2960 hc        1 P42      0.038700
     66 HBS       -18.4790    4.1230   -2.4180 hc        1 P42      0.039200
     67 HBSA      -18.6160    4.7790   -0.7420 hc        1 P42      0.039200
     68 HBH       -18.2280    2.4730    0.1930 hc        1 P42      0.039700
     69 HBHA      -18.0910    1.8170   -1.4830 hc        1 P42      0.039700
     70 HAQ       -16.1500    3.3590   -1.9290 hc        1 P42      0.039200
     71 HAQA      -16.2870    4.0150   -0.2530 hc        1 P42      0.039200
     72 HAP       -15.8990    1.7080    0.6820 hc        1 P42      0.039700
     73 HAPA      -15.7630    1.0520   -0.9940 hc        1 P42      0.039700
     74 HAO       -13.8220    2.5940   -1.4400 hc        1 P42      0.039200
     75 HAOA      -13.9580    3.2510    0.2360 hc        1 P42      0.039200
     76 HAN       -13.5700    0.9440    1.1710 hc        1 P42      0.040200
     77 HANA      -13.4340    0.2870   -0.5050 hc        1 P42      0.040200
     78 HAM       -11.4930    1.8290   -0.9510 hc        1 P42      0.038700
     79 HAL       -11.2420    0.1790    1.6600 hc        1 P42      0.040700
     80 HAK        -9.1640    1.0640   -0.4620 hc        1 P42      0.038200
     81 HAKA       -9.3010    1.7210    1.2140 hc        1 P42      0.038200
     82 HAJ        -8.9150   -0.5860    2.1490 hc        1 P42      0.041700
     83 HAJA       -8.7770   -1.2420    0.4730 hc        1 P42      0.041700
     84 HAI        -6.8360    0.2980    0.0280 hc        1 P42      0.037200
     85 HAIA       -6.9730    0.9560    1.7040 hc        1 P42      0.037200
     86 HAH        -6.5880   -1.3520    2.6400 hc        1 P42      0.044200
     87 HAG        -4.5050   -0.4760    0.5190 hc        1 P42      0.034700
     88 HAF        -4.2490   -2.1030    3.1490 hc        1 P42      0.052200
     89 HAFA       -4.1350   -2.7790    1.4770 hc        1 P42      0.052200
     90 HAE        -2.1560   -1.3340    0.9860 hc        1 P42      0.062700
     91 HAEA       -2.3050   -0.5500    2.6190 hc        1 P42      0.062700
     92 HAD        -1.7980   -3.5940    2.1030 h2        1 P42      0.087700
     93 HOAA       -1.7760   -2.0700    4.4930 ho        1 P42      0.407000
     94 HAB         1.3810   -2.8960    3.5190 h1        1 P42      0.054700
     95 HABA        0.1900   -4.1930    3.0020 h1        1 P42      0.054700
     96 HBE         2.0290   -4.3750    1.4840 h1        1 P42      0.064700
     97 HBK         0.4230   -4.5660   -0.1190 h1        1 P42      0.039200
     98 HBKA       -0.4550   -3.0290    0.3740 h1        1 P42      0.039200
     99 HBC         4.1160   -3.2400    2.0050 h2        1 P42      0.059700
    100 HOBJ        3.2610   -3.2290   -0.6960 ho        1 P42      0.450000
    101 HBB         4.1270   -0.9410   -0.1150 hc        1 P42      0.049200
    102 HBBA        4.2920   -0.6730    1.6720 hc        1 P42      0.049200
    103 HBA         6.3480   -2.0880    1.7260 hc        1 P42      0.051700
    104 HAZ         6.3980   -0.0480   -0.6080 hc        1 P42      0.035700
    105 HAY         8.6010   -1.1150    1.2930 hc        1 P42      0.042700
    106 HAYA        8.4300   -1.5280   -0.4560 hc        1 P42      0.042700
    107 HAX         8.6640    0.9060   -1.0560 hc        1 P42      0.037700
    108 HAXA        8.8320    1.3220    0.6920 hc        1 P42      0.037700
    109 HAW        10.8650   -0.1560    0.8490 hc        1 P42      0.041200
    110 HAWA       10.6970   -0.5720   -0.9000 hc        1 P42      0.041200
    111 HAV        10.9300    1.8620   -1.5020 hc        1 P42      0.038700
    112 HAVA       11.0970    2.2790    0.2460 hc        1 P42      0.038700
    113 HAU        13.1300    0.8000    0.4040 hc        1 P42      0.040200
    114 HAUA       12.9630    0.3840   -1.3440 hc        1 P42      0.040200
    115 HAT        13.1960    2.8180   -1.9470 hc        1 P42      0.039200
    116 HATA       13.3630    3.2350   -0.1990 hc        1 P42      0.039200
    117 HAS        15.3960    1.7560   -0.0400 hc        1 P42      0.040200
    118 HAR        15.4620    3.7730   -2.3920 hc        1 P42      0.039200
    119 HBI        17.6620    2.7120   -0.4850 hc        1 P42      0.039700
    120 HBIA       17.4950    2.2950   -2.2330 hc        1 P42      0.039700
    121 HBT        17.7280    4.7290   -2.8360 hc        1 P42      0.039200
    122 HBTA       17.8950    5.1460   -1.0880 hc        1 P42      0.039200
    123 HBW        19.9260    3.6670   -0.9290 hc        1 P42      0.038700
    124 HBY        21.4440    5.0580   -2.3380 hc        1 P42      0.032367
    125 HBYA       20.0300    5.6780   -3.2860 hc        1 P42      0.032367
    126 N           0.6870    1.3750    0.0960 n4        1 P42     -0.581800
    127 H77       -22.1910    4.3300   -1.8300 hc        1 P42      0.032367
    128 H78       -20.4180    2.5810   -1.9720 hc        1 P42      0.038700
    129 H79       -11.6290    2.4860    0.7250 hc        1 P42      0.038700
    130 H80       -11.1060   -0.4770   -0.0160 hc        1 P42      0.040700
    131 H81        -6.4490   -2.0070    0.9630 hc        1 P42      0.044200
    132 H82        -4.6480    0.1940    2.1920 hc        1 P42      0.034700
    133 H83         6.1470   -2.4820   -0.0260 hc        1 P42      0.051700
    134 H84         6.5670    0.3620    1.1440 hc        1 P42      0.035700
    135 H85        15.2290    1.3390   -1.7880 hc        1 P42      0.040200
    136 H86        15.6290    4.1910   -0.6430 hc        1 P42      0.039200
    137 H87        19.7590    3.2500   -2.6780 hc        1 P42      0.038700
    138 H88        20.1980    6.0970   -1.5330 hc        1 P42      0.032367
    139 OAC        -0.2890   -2.1770    2.6200 os        1 P42     -0.463600
    140 CAF        -3.9570   -1.8570    2.0930 c3        1 P42     -0.079400
@<TRIPOS>BOND
     1    1    2 1   
     2    1   31 1   
     3    1   50 1   
     4    1   51 1   
     5    2   52 1   
     6    2   53 1   
     7    2  126 1   
     8    3   54 1   
     9    3   55 1   
    10    3   56 1   
    11    3  126 1   
    12    4   57 1   
    13    4   58 1   
    14    4   59 1   
    15    4  126 1   
    16    5   60 1   
    17    5   61 1   
    18    5   62 1   
    19    5  126 1   
    20    6    7 1   
    21    6   63 1   
    22    6   64 1   
    23    6  127 1   
    24    7    8 1   
    25    7   65 1   
    26    7  128 1   
    27    8    9 1   
    28    8   66 1   
    29    8   67 1   
    30    9   10 1   
    31    9   68 1   
    32    9   69 1   
    33   10   11 1   
    34   10   70 1   
    35   10   71 1   
    36   11   12 1   
    37   11   72 1   
    38   11   73 1   
    39   12   13 1   
    40   12   74 1   
    41   12   75 1   
    42   13   14 1   
    43   13   76 1   
    44   13   77 1   
    45   14   15 1   
    46   14   78 1   
    47   14  129 1   
    48   15   16 1   
    49   15   79 1   
    50   15  130 1   
    51   16   17 1   
    52   16   80 1   
    53   16   81 1   
    54   17   18 1   
    55   17   82 1   
    56   17   83 1   
    57   18   19 1   
    58   18   84 1   
    59   18   85 1   
    60   19   20 1   
    61   19   86 1   
    62   19  131 1   
    63   20   87 1   
    64   20  132 1   
    65   20  140 1   
    66   21   22 1   
    67   21   90 1   
    68   21   91 1   
    69   21  140 1   
    70   22   23 1   
    71   22   92 1   
    72   22  139 1   
    73   23   93 1   
    74   24   25 1   
    75   24   94 1   
    76   24   95 1   
    77   24  139 1   
    78   25   26 1   
    79   25   32 1   
    80   25   96 1   
    81   26   27 1   
    82   26   97 1   
    83   26   98 1   
    84   27   28 1   
    85   28   29 1   
    86   28   30 1   
    87   28   31 1   
    88   32   33 1   
    89   33   34 1   
    90   33   35 1   
    91   33   99 1   
    92   34  100 1   
    93   35   36 1   
    94   35  101 1   
    95   35  102 1   
    96   36   37 1   
    97   36  103 1   
    98   36  133 1   
    99   37   38 1   
   100   37  104 1   
   101   37  134 1   
   102   38   39 1   
   103   38  105 1   
   104   38  106 1   
   105   39   40 1   
   106   39  107 1   
   107   39  108 1   
   108   40   41 1   
   109   40  109 1   
   110   40  110 1   
   111   41   42 1   
   112   41  111 1   
   113   41  112 1   
   114   42   43 1   
   115   42  113 1   
   116   42  114 1   
   117   43   44 1   
   118   43  115 1   
   119   43  116 1   
   120   44   45 1   
   121   44  117 1   
   122   44  135 1   
   123   45   46 1   
   124   45  118 1   
   125   45  136 1   
   126   46   47 1   
   127   46  119 1   
   128   46  120 1   
   129   47   48 1   
   130   47  121 1   
   131   47  122 1   
   132   48   49 1   
   133   48  123 1   
   134   48  137 1   
   135   49  124 1   
   136   49  125 1   
   137   49  138 1   
   138   88  140 1   
   139   89  140 1   
@<TRIPOS>SUBSTRUCTURE
     1 P42         1 TEMP              0 ****  ****    0 ROOT
