@<TRIPOS>MOLECULE
P42
  140   139     1     0     0
SMALL
bcc


@<TRIPOS>ATOM
      1 C4          6.7390    0.3130   -8.7760 c3        1 P42      0.202400
      2 C5          7.1810   -0.5390   -9.9590 c3        1 P42      0.087800
      3 C6          5.8430    0.2830  -11.7350 c3        1 P42      0.085767
      4 C7          8.0930   -0.2890  -12.1280 c3        1 P42      0.085767
      5 C8          7.5890    1.6720  -10.8360 c3        1 P42      0.085767
      6 CBX         1.1480    3.7180    9.2150 c3        1 P42     -0.092100
      7 CBV         0.7790    3.8060    7.7190 c3        1 P42     -0.080400
      8 CBS        -0.7220    4.2140    7.5740 c3        1 P42     -0.078400
      9 CBH        -1.1110    4.2190    6.0880 c3        1 P42     -0.079400
     10 CAQ        -2.4340    5.0180    5.9010 c3        1 P42     -0.078400
     11 CAP        -2.9480    4.8310    4.4710 c3        1 P42     -0.080400
     12 CAO        -3.5670    6.1670    3.9610 c3        1 P42     -0.077400
     13 CAN        -3.8920    6.0380    2.4620 c3        1 P42     -0.080400
     14 CAM        -3.2010    7.1960    1.6730 c3        1 P42     -0.079400
     15 CAL        -3.1940    6.8570    0.1720 c3        1 P42     -0.080400
     16 CAK        -2.0770    7.6870   -0.5470 c3        1 P42     -0.079400
     17 CAJ        -1.6280    6.9550   -1.7880 c3        1 P42     -0.082400
     18 CAI        -0.2400    7.4990   -2.2360 c3        1 P42     -0.076400
     19 CAH         0.5220    6.4000   -3.0130 c3        1 P42     -0.076400
     20 CAG         1.8950    6.1810   -2.3710 c3        1 P42     -0.081400
     21 CAF         2.7690    5.2950   -3.2980 c3        1 P42     -0.077400
     22 CAE         2.4810    3.8020   -3.0090 c3        1 P42     -0.085400
     23 CAD         3.7980    3.0070   -3.0590 c3        1 P42      0.324900
     24 OAA         4.6450    3.5750   -3.9890 oh        1 P42     -0.674800
     25 OAC         3.5210    1.6440   -3.4290 os        1 P42     -0.452600
     26 CAB         4.2950    0.6680   -2.6950 c3        1 P42      0.102400
     27 CBE         4.0010   -0.7210   -3.2330 c3        1 P42      0.091100
     28 CBK         5.1710   -1.1960   -4.0730 c3        1 P42      0.188400
     29 OBL         5.1730   -0.4920   -5.3370 os        1 P42     -0.611200
     30 PBM         6.4010   -0.7450   -6.3600 p5        1 P42      1.442800
     31 OBF         7.5390    0.2030   -6.0260 o         1 P42     -0.820500
     32 OBU         6.8820   -2.1800   -6.2280 o         1 P42     -0.820500
     33 OBN         5.8980   -0.4770   -7.8980 os        1 P42     -0.546200
     34 OBD         3.7980   -1.6210   -2.1410 os        1 P42     -0.454600
     35 CBC         2.6300   -2.3990   -2.2530 c3        1 P42      0.325900
     36 OBJ         2.9320   -3.6070   -2.8960 oh        1 P42     -0.622800
     37 CBB         2.0680   -2.6910   -0.8520 c3        1 P42     -0.106400
     38 CBA         0.9730   -3.8080   -0.9520 c3        1 P42     -0.079400
     39 CAZ         0.0520   -3.7340    0.2790 c3        1 P42     -0.081400
     40 CAY        -0.4760   -5.1230    0.6030 c3        1 P42     -0.078400
     41 CAX        -1.8340   -5.0000    1.3160 c3        1 P42     -0.079400
     42 CAW        -2.0520   -6.2420    2.2410 c3        1 P42     -0.079400
     43 CAV        -3.5430   -6.4140    2.5170 c3        1 P42     -0.079400
     44 CAU        -3.7430   -7.0390    3.9190 c3        1 P42     -0.079400
     45 CAT        -5.2100   -7.4300    4.0990 c3        1 P42     -0.079400
     46 CAS        -5.6470   -7.1250    5.5330 c3        1 P42     -0.079400
     47 CAR        -6.9360   -7.8600    5.8350 c3        1 P42     -0.079400
     48 CBI        -7.5860   -7.2640    7.1350 c3        1 P42     -0.079400
     49 CBT        -8.5590   -8.3080    7.7510 c3        1 P42     -0.079400
     50 CBW        -9.2050   -7.7240    9.0220 c3        1 P42     -0.080400
     51 CBY        -9.9110   -8.8550    9.8070 c3        1 P42     -0.092100
     52 H4          7.5320    0.6230   -8.2800 h1        1 P42      0.054200
     53 H4A         6.2350    1.0870   -9.1010 h1        1 P42      0.054200
     54 H5          8.0890   -0.8780   -9.7970 hx        1 P42      0.087700
     55 H5A         6.5630   -1.2950  -10.0670 hx        1 P42      0.087700
     56 H6          5.2290    0.7410  -11.1190 hx        1 P42      0.099033
     57 H6A         5.5360   -0.6490  -11.8760 hx        1 P42      0.099033
     58 H6B         5.8560    0.7560  -12.5930 hx        1 P42      0.099033
     59 H7          7.9480   -1.2620  -12.1930 hx        1 P42      0.099033
     60 H7A         9.0210   -0.1120  -11.8360 hx        1 P42      0.099033
     61 H7B         7.9450    0.1210  -13.0000 hx        1 P42      0.099033
     62 H8          7.8710    2.1440  -11.6670 hx        1 P42      0.099033
     63 H8A         6.8300    2.1530  -10.4270 hx        1 P42      0.099033
     64 H8B         8.3400    1.6470  -10.2020 hx        1 P42      0.099033
     65 HBX         1.1770    4.6140    9.5950 hc        1 P42      0.031700
     66 HBXA        2.0450    3.2850    9.3120 hc        1 P42      0.031700
     67 HBV         1.3380    4.4720    7.2870 hc        1 P42      0.039200
     68 HBS        -0.8530    5.1020    7.9440 hc        1 P42      0.038700
     69 HBSA       -1.2910    3.5620    8.0630 hc        1 P42      0.038700
     70 HBH        -1.2400    3.2950    5.7800 hc        1 P42      0.040200
     71 HBHA       -0.4080    4.6360    5.5720 hc        1 P42      0.040200
     72 HAQ        -2.2680    5.9600    6.0640 hc        1 P42      0.038200
     73 HAQA       -3.1180    4.6830    6.5460 hc        1 P42      0.038200
     74 HAP        -2.2060    4.5720    3.8890 hc        1 P42      0.041700
     75 HAPA       -3.6290    4.1320    4.4600 hc        1 P42      0.041700
     76 HAO        -2.9340    6.8920    4.0950 hc        1 P42      0.038200
     77 HAOA       -4.4010    6.3580    4.4640 hc        1 P42      0.038200
     78 HAN        -3.5600    5.1730    2.1290 hc        1 P42      0.039700
     79 HANA       -4.8590    6.0880    2.3340 hc        1 P42      0.039700
     80 HAM        -2.2860    7.3010    1.9850 hc        1 P42      0.040700
     81 HAL        -3.0170    5.9010    0.0540 hc        1 P42      0.039700
     82 HAK        -1.3180    7.8010    0.0540 hc        1 P42      0.039200
     83 HAKA       -2.4370    8.5800   -0.8000 hc        1 P42      0.039200
     84 HAJ        -1.5580    6.0130   -1.5990 hc        1 P42      0.043700
     85 HAJA       -2.2840    7.0970   -2.5090 hc        1 P42      0.043700
     86 HAI        -0.3700    8.2970   -2.8270 hc        1 P42      0.038200
     87 HAIA        0.2800    7.7600   -1.4460 hc        1 P42      0.038200
     88 HAH         0.0120    5.5670   -2.9840 hc        1 P42      0.037700
     89 HAG         2.3340    7.0450   -2.2400 hc        1 P42      0.047200
     90 HAF         2.5550    5.4940   -4.2400 hc        1 P42      0.036700
     91 HAFA        3.7160    5.4830   -3.1320 hc        1 P42      0.036700
     92 HAE         1.8650    3.4540   -3.6810 hc        1 P42      0.056700
     93 HAEA        2.0800    3.7140   -2.1210 hc        1 P42      0.056700
     94 HAD         4.2240    3.0260   -2.1780 h2        1 P42      0.090700
     95 HOAA        5.4220    3.7790   -3.5980 ho        1 P42      0.444000
     96 HAB         4.0560    0.7070   -1.7510 h1        1 P42      0.061200
     97 HABA        5.2600    0.8640   -2.8000 h1        1 P42      0.061200
     98 HBE         3.1940   -0.6920   -3.7860 h1        1 P42      0.072700
     99 HBK         6.0110   -1.0160   -3.5960 h1        1 P42      0.050200
    100 HBKA        5.0870   -2.1670   -4.2370 h1        1 P42      0.050200
    101 HBC         1.9620   -1.9090   -2.7760 h2        1 P42      0.083700
    102 HOBJ        3.6050   -3.9960   -2.4880 ho        1 P42      0.413000
    103 HBB         1.6660   -1.8690   -0.4810 hc        1 P42      0.058200
    104 HBBA        2.7960   -2.9960   -0.2610 hc        1 P42      0.058200
    105 HBA         0.4460   -3.6750   -1.7580 hc        1 P42      0.047700
    106 HAZ         0.5570   -3.3900    1.0440 hc        1 P42      0.041700
    107 HAY         0.1480   -5.5780    1.1790 hc        1 P42      0.040200
    108 HAYA       -0.5880   -5.6310   -0.2220 hc        1 P42      0.040200
    109 HAX        -1.8460   -4.1780    1.8610 hc        1 P42      0.039700
    110 HAXA       -2.5600   -4.9590    0.6410 hc        1 P42      0.039700
    111 HAW        -1.7080   -7.0410    1.7980 hc        1 P42      0.039200
    112 HAWA       -1.5800   -6.1090    3.0790 hc        1 P42      0.039200
    113 HAV        -3.9780   -5.5470    2.4850 hc        1 P42      0.039700
    114 HAVA       -3.9350   -7.0010    1.8380 hc        1 P42      0.039700
    115 HAU        -3.1700   -7.8520    4.0060 hc        1 P42      0.039700
    116 HAUA       -3.4920   -6.3850    4.6080 hc        1 P42      0.039700
    117 HAT        -5.3160   -8.3890    3.9210 hc        1 P42      0.039700
    118 HATA       -5.7540   -6.9270    3.4850 hc        1 P42      0.039700
    119 HAS        -5.7880   -6.1690    5.6320 hc        1 P42      0.039700
    120 HAR        -6.7450   -8.8130    5.9710 hc        1 P42      0.039700
    121 HBI        -8.0890   -6.4390    6.9060 hc        1 P42      0.039200
    122 HBIA       -6.8840   -7.0500    7.7830 hc        1 P42      0.039200
    123 HBT        -8.0660   -9.1160    7.9790 hc        1 P42      0.039700
    124 HBTA       -9.2620   -8.5260    7.0980 hc        1 P42      0.039700
    125 HBW        -8.5210   -7.3240    9.5770 hc        1 P42      0.038200
    126 HBY        -9.2430   -9.5010   10.1210 hc        1 P42      0.032367
    127 HBYA      -10.5640   -9.3150    9.2110 hc        1 P42      0.032367
    128 N           7.1730    0.2730  -11.1710 n4        1 P42     -0.590800
    129 H77         0.4730    3.1840    9.6870 hc        1 P42      0.031700
    130 H78         0.9240    2.9280    7.2930 hc        1 P42      0.039200
    131 H79        -3.6940    8.0320    1.8170 hc        1 P42      0.040700
    132 H80        -4.0720    7.0780   -0.2190 hc        1 P42      0.039700
    133 H81         0.6380    6.6800   -3.9480 hc        1 P42      0.037700
    134 H82         1.7840    5.7380   -1.5040 hc        1 P42      0.047200
    135 H83         1.4050   -4.6880   -0.9860 hc        1 P42      0.047700
    136 H84        -0.7020   -3.1330    0.0870 hc        1 P42      0.041700
    137 H85        -4.9430   -7.4210    6.1610 hc        1 P42      0.039700
    138 H86        -7.5510   -7.7560    5.0900 hc        1 P42      0.039700
    139 H87        -9.8670   -7.0350    8.7690 hc        1 P42      0.038200
    140 H88       -10.3780   -8.4770   10.5690 hc        1 P42      0.032367
@<TRIPOS>BOND
     1    1    2 1   
     2    1   33 1   
     3    1   52 1   
     4    1   53 1   
     5    2   54 1   
     6    2   55 1   
     7    2  128 1   
     8    3   56 1   
     9    3   57 1   
    10    3   58 1   
    11    3  128 1   
    12    4   59 1   
    13    4   60 1   
    14    4   61 1   
    15    4  128 1   
    16    5   62 1   
    17    5   63 1   
    18    5   64 1   
    19    5  128 1   
    20    6    7 1   
    21    6   65 1   
    22    6   66 1   
    23    6  129 1   
    24    7    8 1   
    25    7   67 1   
    26    7  130 1   
    27    8    9 1   
    28    8   68 1   
    29    8   69 1   
    30    9   10 1   
    31    9   70 1   
    32    9   71 1   
    33   10   11 1   
    34   10   72 1   
    35   10   73 1   
    36   11   12 1   
    37   11   74 1   
    38   11   75 1   
    39   12   13 1   
    40   12   76 1   
    41   12   77 1   
    42   13   14 1   
    43   13   78 1   
    44   13   79 1   
    45   14   15 1   
    46   14   80 1   
    47   14  131 1   
    48   15   16 1   
    49   15   81 1   
    50   15  132 1   
    51   16   17 1   
    52   16   82 1   
    53   16   83 1   
    54   17   18 1   
    55   17   84 1   
    56   17   85 1   
    57   18   19 1   
    58   18   86 1   
    59   18   87 1   
    60   19   20 1   
    61   19   88 1   
    62   19  133 1   
    63   20   21 1   
    64   20   89 1   
    65   20  134 1   
    66   21   22 1   
    67   21   90 1   
    68   21   91 1   
    69   22   23 1   
    70   22   92 1   
    71   22   93 1   
    72   23   24 1   
    73   23   25 1   
    74   23   94 1   
    75   24   95 1   
    76   25   26 1   
    77   26   27 1   
    78   26   96 1   
    79   26   97 1   
    80   27   28 1   
    81   27   34 1   
    82   27   98 1   
    83   28   29 1   
    84   28   99 1   
    85   28  100 1   
    86   29   30 1   
    87   30   31 1   
    88   30   32 1   
    89   30   33 1   
    90   34   35 1   
    91   35   36 1   
    92   35   37 1   
    93   35  101 1   
    94   36  102 1   
    95   37   38 1   
    96   37  103 1   
    97   37  104 1   
    98   38   39 1   
    99   38  105 1   
   100   38  135 1   
   101   39   40 1   
   102   39  106 1   
   103   39  136 1   
   104   40   41 1   
   105   40  107 1   
   106   40  108 1   
   107   41   42 1   
   108   41  109 1   
   109   41  110 1   
   110   42   43 1   
   111   42  111 1   
   112   42  112 1   
   113   43   44 1   
   114   43  113 1   
   115   43  114 1   
   116   44   45 1   
   117   44  115 1   
   118   44  116 1   
   119   45   46 1   
   120   45  117 1   
   121   45  118 1   
   122   46   47 1   
   123   46  119 1   
   124   46  137 1   
   125   47   48 1   
   126   47  120 1   
   127   47  138 1   
   128   48   49 1   
   129   48  121 1   
   130   48  122 1   
   131   49   50 1   
   132   49  123 1   
   133   49  124 1   
   134   50   51 1   
   135   50  125 1   
   136   50  139 1   
   137   51  126 1   
   138   51  127 1   
   139   51  140 1   
@<TRIPOS>SUBSTRUCTURE
     1 P42         1 TEMP              0 ****  ****    0 ROOT
