@<TRIPOS>MOLECULE
P43
   53    56     1     0     0
SMALL
bcc


@<TRIPOS>ATOM
      1 C1         -3.4750   -0.9270    0.0730 cg        1 P43     -0.193000
      2 C2          3.7590    2.1550    2.0240 ca        1 P43     -0.130000
      3 C3          3.2450    1.0120    1.4160 ca        1 P43     -0.121000
      4 C4          3.7340    0.5940    0.1720 ca        1 P43     -0.081300
      5 C5          4.7460    1.3350   -0.4500 ca        1 P43     -0.106000
      6 C6          5.2610    2.4830    0.1590 ca        1 P43     -0.094300
      7 C7          4.7640    2.8930    1.3990 ca        1 P43     -0.127000
      8 C8          6.3690    3.2560   -0.4950 c3        1 P43      0.203100
      9 N9          6.1250    3.5650   -1.8870 n3        1 P43     -0.916800
     10 C10         3.1940   -0.6300   -0.4950 c3        1 P43     -0.020400
     11 C11         3.4500   -1.8740    0.3490 c3        1 P43     -0.097400
     12 C12         2.8440   -3.1160   -0.3050 c3        1 P43      0.082500
     13 N13         1.4440   -2.9640   -0.6590 n         1 P43     -0.446800
     14 C14         1.1530   -1.7680   -1.4170 c3        1 P43      0.082500
     15 C15         1.7050   -0.4880   -0.7850 c3        1 P43     -0.097400
     16 C16         0.4880   -3.6950    0.0290 c         1 P43      0.590600
     17 O17         0.8120   -4.6700    0.7380 o         1 P43     -0.587100
     18 C18        -0.9510   -3.3980   -0.1530 cc        1 P43      0.210200
     19 O19        -1.3920   -2.0890    0.0590 os        1 P43     -0.340800
     20 C20        -2.7910   -2.1230   -0.0970 cc        1 P43      0.379700
     21 C21        -3.2040   -3.4130   -0.3980 cd        1 P43     -0.231300
     22 C22        -2.0200   -4.2340   -0.4270 cd        1 P43     -0.201300
     23 C23        -4.0820    0.0990    0.2160 ch        1 P43     -0.056000
     24 C24        -4.8080    1.2880    0.3820 ca        1 P43     -0.018000
     25 C25        -6.2130    1.2580    0.4010 ca        1 P43     -0.081000
     26 C26        -6.9470    2.4270    0.5650 ca        1 P43     -0.148000
     27 C27        -6.2950    3.6520    0.7150 ca        1 P43     -0.092000
     28 C28        -4.9060    3.7140    0.7010 ca        1 P43     -0.170000
     29 C29        -4.1530    2.5360    0.5340 ca        1 P43      0.153900
     30 F30        -2.8030    2.6130    0.5220 f         1 P43     -0.127900
     31 H2          3.3700    2.4780    3.0010 ha        1 P43      0.132000
     32 H3          2.4500    0.4370    1.9140 ha        1 P43      0.135000
     33 H7          5.1640    3.7950    1.8850 ha        1 P43      0.130000
     34 H5          5.1420    1.0150   -1.4270 ha        1 P43      0.147000
     35 H10         3.7240   -0.7700   -1.4820 hc        1 P43      0.054700
     36 H81C        6.5700    4.1860    0.1190 h1        1 P43      0.033200
     37 H82C        7.3080    2.6290   -0.4560 h1        1 P43      0.033200
     38 H91N        5.1920    3.8980   -2.0270 hn        1 P43      0.351800
     39 H92N        6.7740    4.2570   -2.2050 hn        1 P43      0.351800
     40 H111        4.5530   -2.0370    0.4600 hc        1 P43      0.057450
     41 H112        3.0210   -1.7320    1.3740 hc        1 P43      0.057450
     42 H121        3.4040   -3.3390   -1.2590 h1        1 P43      0.063200
     43 H122        2.9640   -3.9960    0.3890 h1        1 P43      0.063200
     44 H141        1.6310   -1.9020   -2.4330 h1        1 P43      0.063200
     45 H142        0.0460   -1.6540   -1.5730 h1        1 P43      0.063200
     46 H151        1.1490   -0.2560    0.1600 hc        1 P43      0.057450
     47 H152        1.5350    0.3600   -1.4980 hc        1 P43      0.057450
     48 H22        -1.9830   -5.3040   -0.6200 ha        1 P43      0.177000
     49 H21        -4.2220   -3.7520   -0.5750 ha        1 P43      0.171000
     50 H25        -6.7290    0.2920    0.2840 ha        1 P43      0.146000
     51 H26        -8.0470    2.3850    0.5780 ha        1 P43      0.142000
     52 H27        -6.8800    4.5750    0.8450 ha        1 P43      0.141000
     53 H28        -4.3810    4.6740    0.8180 ha        1 P43      0.153000
@<TRIPOS>BOND
     1    1   20 1   
     2    1   23 3   
     3    2    3 ar  
     4    2    7 ar  
     5    2   31 1   
     6    3    4 ar  
     7    3   32 1   
     8    4    5 ar  
     9    4   10 1   
    10    5    6 ar  
    11    5   34 1   
    12    6    7 ar  
    13    6    8 1   
    14    7   33 1   
    15    8    9 1   
    16    8   36 1   
    17    8   37 1   
    18    9   38 1   
    19    9   39 1   
    20   10   11 1   
    21   10   15 1   
    22   10   35 1   
    23   11   12 1   
    24   11   40 1   
    25   11   41 1   
    26   12   13 1   
    27   12   42 1   
    28   12   43 1   
    29   13   14 1   
    30   13   16 1   
    31   14   15 1   
    32   14   44 1   
    33   14   45 1   
    34   15   46 1   
    35   15   47 1   
    36   16   17 2   
    37   16   18 1   
    38   18   19 1   
    39   18   22 2   
    40   19   20 1   
    41   20   21 2   
    42   21   22 1   
    43   21   49 1   
    44   22   48 1   
    45   23   24 1   
    46   24   25 ar  
    47   24   29 ar  
    48   25   26 ar  
    49   25   50 1   
    50   26   27 ar  
    51   26   51 1   
    52   27   28 ar  
    53   27   52 1   
    54   28   29 ar  
    55   28   53 1   
    56   29   30 1   
@<TRIPOS>SUBSTRUCTURE
     1 P43         1 TEMP              0 ****  ****    0 ROOT
