@<TRIPOS>MOLECULE
P43
   53    47     1     0     0
SMALL
bcc


@<TRIPOS>ATOM
      1 C1          2.5620    3.6090   -2.2610 c1        1 P43     -0.073500
      2 C2         -4.0830   -2.2830    0.9990 c1        1 P43     -0.129000
      3 C3         -2.6790   -2.2080    0.9860 c1        1 P43     -0.122000
      4 C4         -1.9460   -2.8630    1.9460 c1        1 P43     -0.069000
      5 C5         -2.6010   -3.6080    2.9390 c1        1 P43     -0.117000
      6 C6         -4.0030   -3.6820    2.9510 c1        1 P43     -0.122000
      7 C7         -4.7340   -3.0240    1.9880 c1        1 P43     -0.129000
      8 C8         -4.7350   -4.3880    4.1290 c3        1 P43     -0.049000
      9 N9         -5.4120   -5.5580    3.6410 n3        1 P43     -0.333000
     10 C10        -0.3800   -2.6610    2.0120 c3        1 P43     -0.067000
     11 C11         0.2540   -3.4400    0.9100 c3        1 P43     -0.176000
     12 C12         1.7560   -3.1490    0.7810 c3        1 P43     -0.033500
     13 N13         2.0410   -1.7030    0.7040 n         1 P43     -0.305000
     14 C14         1.4300   -0.9190    1.7780 c3        1 P43     -0.033500
     15 C15        -0.0750   -1.1940    1.9140 c3        1 P43     -0.176000
     16 C16         2.8510   -1.1150   -0.3360 c2        1 P43      0.374000
     17 O17         3.3360   -1.8260   -1.2070 o         1 P43     -0.347000
     18 C18         2.9460    0.3940   -0.4540 c2        1 P43     -0.076000
     19 O19         2.4060    1.1600   -1.4650 os        1 P43     -0.082000
     20 C20         2.8350    2.4410   -1.3020 c1        1 P43      0.079000
     21 C21         3.6530    2.4790   -0.1770 c1        1 P43     -0.167000
     22 C22         3.7170    1.2190    0.3390 c1        1 P43     -0.134000
     23 C23         2.3480    4.5340   -3.0200 c1        1 P43     -0.073500
     24 C24         2.0810    5.6960   -3.9720 c1        1 P43     -0.015000
     25 C25         1.4860    6.8550   -3.4970 c2        1 P43     -0.081000
     26 C26         1.0950    7.8550   -4.3880 c1        1 P43     -0.148000
     27 C27         1.3010    7.6920   -5.7460 c1        1 P43     -0.129000
     28 C28         1.8960    6.5350   -6.2230 c1        1 P43     -0.129000
     29 C29         2.2880    5.5330   -5.3350 c1        1 P43      0.120000
     30 F30         2.6990    4.3540   -5.8040 f         1 P43     -0.093000
     31 H2         -4.5990   -1.8220    0.3220 ha        1 P43      0.139500
     32 H3         -2.2250   -1.6910    0.2970 ha        1 P43      0.136000
     33 H7         -5.7030   -3.0760    1.9960 ha        1 P43      0.139500
     34 H5         -2.0760   -4.0800    3.6310 ha        1 P43      0.132000
     35 H10        -0.0520   -2.9970    2.8680 hc        1 P43      0.092000
     36 H81C       -5.3980   -3.7660    4.5290 h1        1 P43      0.098000
     37 H82C       -4.0870   -4.6470    4.8030 h1        1 P43      0.098000
     38 H91N       -5.2600   -5.6450    2.7440 hn        1 P43      0.142500
     39 H92N       -5.0960   -6.2980    4.0780 hn        1 P43      0.142500
     40 H111       -0.1880   -3.2120    0.0640 hc        1 P43      0.097250
     41 H112        0.1280   -4.4090    1.0890 hc        1 P43      0.097250
     42 H121        2.2130   -3.5190    1.5480 h1        1 P43      0.102500
     43 H122        2.1000   -3.5890   -0.0410 h1        1 P43      0.102500
     44 H141        1.5700    0.0670    1.5840 h1        1 P43      0.102500
     45 H142        1.8750   -1.1440    2.6310 h1        1 P43      0.102500
     46 H151       -0.4130   -0.7420    2.7370 hc        1 P43      0.097250
     47 H152       -0.5420   -0.8180    1.1260 hc        1 P43      0.097250
     48 H22         4.2270    0.9430    1.1430 DU        1 P43      0.174000
     49 H21         4.1020    3.2690    0.1800 DU        1 P43      0.174000
     50 H25         1.3420    6.9670   -2.5600 ha        1 P43      0.146000
     51 H26         0.6840    8.6560   -4.0590 ha        1 P43      0.142000
     52 H27         1.0270    8.3930   -6.3690 ha        1 P43      0.139500
     53 H28         2.0380    6.4230   -7.1660 ha        1 P43      0.139500
@<TRIPOS>BOND
     1    1   23 1   
     2    2    7 1   
     3    2   31 1   
     4    3    4 1   
     5    3   32 1   
     6    4   10 1   
     7    5    6 1   
     8    5   34 1   
     9    6    8 1   
    10    7   33 1   
    11    8    9 1   
    12    8   36 1   
    13    8   37 1   
    14    9   38 1   
    15    9   39 1   
    16   10   11 1   
    17   10   15 1   
    18   10   35 1   
    19   11   12 1   
    20   11   40 1   
    21   11   41 1   
    22   12   13 1   
    23   12   42 1   
    24   12   43 1   
    25   13   14 1   
    26   13   16 1   
    27   14   15 1   
    28   14   44 1   
    29   14   45 1   
    30   15   46 1   
    31   15   47 1   
    32   16   17 1   
    33   16   18 1   
    34   18   19 1   
    35   18   22 1   
    36   19   20 1   
    37   20   21 1   
    38   21   22 1   
    39   24   25 1   
    40   24   29 1   
    41   25   26 1   
    42   25   50 1   
    43   26   51 1   
    44   27   28 1   
    45   27   52 1   
    46   28   53 1   
    47   29   30 1   
@<TRIPOS>SUBSTRUCTURE
     1 P43         1 TEMP              0 ****  ****    0 ROOT
