@<TRIPOS>MOLECULE
P43
   54    56     1     0     0
SMALL
bcc


@<TRIPOS>ATOM
      1 C1          7.1410    5.1340   -2.7380 c1        1 P43     -0.115000
      2 C2          0.7110   -2.7180    2.2900 ca        1 P43     -0.116000
      3 C3          1.8860   -2.1760    1.7620 ca        1 P43     -0.080000
      4 C4          2.0390   -0.7900    1.6590 ca        1 P43     -0.026000
      5 C5          0.9920    0.0430    2.0780 ca        1 P43     -0.097000
      6 C6         -0.1970   -0.5040    2.5660 ca        1 P43     -0.191000
      7 C7         -0.3370   -1.8920    2.6850 ca        1 P43     -0.094000
      8 C8         -1.3080    0.4090    2.9470 c3        1 P43     -0.065000
      9 N9         -1.8740    1.0730    1.7220 nz        1 P43     -0.074000
     10 C10         3.2460   -0.1160    1.0710 c3        1 P43     -0.150000
     11 C11         4.3860   -1.0560    0.7200 c3        1 P43     -0.195000
     12 C12         5.7670   -0.3950    0.7690 c3        1 P43     -0.022000
     13 N13         5.9320    0.7880   -0.0510 n         1 P43     -0.334000
     14 C14         6.5150    1.9540    0.5570 c3        1 P43     -0.084000
     15 C15         2.7680    0.7740    0.0090 c1        1 P43     -0.065000
     16 C16         5.9450    0.6190   -1.4360 c2        1 P43      0.371000
     17 O17         5.5820   -0.4720   -1.9300 o         1 P43     -0.363000
     18 C18         6.3290    1.7120   -2.3380 c2        1 P43     -0.111000
     19 O19         6.5420    3.0060   -1.8510 os        1 P43     -0.089000
     20 C20         6.8820    3.7900   -2.9680 c2        1 P43      0.109000
     21 C21         6.8850    3.0090   -4.1170 c2        1 P43     -0.178000
     22 C22         6.5270    1.6750   -3.7110 c2        1 P43     -0.096000
     23 C23         7.3700    6.2980   -2.5540 c1        1 P43     -0.029000
     24 C24         7.6450    7.6600   -2.3540 ca        1 P43     -0.029000
     25 C25         8.2750    8.4060   -3.3640 ca        1 P43     -0.075000
     26 C26         8.5580    9.7550   -3.1790 ca        1 P43     -0.144000
     27 C27         8.2170   10.3870   -1.9820 ca        1 P43     -0.084000
     28 C28         7.5920    9.6750   -0.9640 ca        1 P43     -0.169000
     29 C29         7.3010    8.3090   -1.1410 ca        1 P43      0.119000
     30 F30         6.6910    7.6280   -0.1440 f         1 P43     -0.099000
     31 H2          0.6110   -3.8120    2.3850 ha        1 P43      0.161000
     32 H3          2.6800   -2.8600    1.4190 ha        1 P43      0.164000
     33 H7         -1.2620   -2.3300    3.0920 ha        1 P43      0.144000
     34 H5          1.1220    1.1340    1.9930 ha        1 P43      0.148000
     35 H10         3.6340    0.6240    1.8520 hc        1 P43      0.160000
     36 H81C       -2.1470   -0.1470    3.4570 hx        1 P43      0.149500
     37 H82C       -0.9390    1.2280    3.6300 hx        1 P43      0.149500
     38 H91N       -2.3070    0.3710    1.1130 hn        1 P43      0.255000
     39 H92N       -2.5730    1.7720    1.9830 hn        1 P43      0.255000
     40 H111        4.2170   -1.4900   -0.3020 hc        1 P43      0.110000
     41 H112        4.4350   -1.9020    1.4550 hc        1 P43      0.110000
     42 H121        5.9940   -0.1280    1.8410 h1        1 P43      0.096500
     43 H122        6.5120   -1.1790    0.4390 h1        1 P43      0.096500
     44 H141        6.5770    1.8330    1.6700 h1        1 P43      0.092000
     45 H142        7.5500    2.1460    0.1610 h1        1 P43      0.092000
     46 H151        5.8770    2.8510    0.3300 h1        1 P43      0.092000
     47 H152        3.3770    0.8430   -0.9040 ha        1 P43      0.081000
     48 H22         6.4310    0.8030   -4.3570 ha        1 P43      0.185000
     49 H21         7.1130    3.3320   -5.1300 ha        1 P43      0.179000
     50 H25         8.5470    7.9090   -4.3090 ha        1 P43      0.149000
     51 H26         9.0530   10.3250   -3.9800 ha        1 P43      0.148000
     52 H27         8.4440   11.4550   -1.8390 ha        1 P43      0.148000
     53 H28         7.3210   10.1640   -0.0170 ha        1 P43      0.156000
     54 H93        -1.1140    1.5250    1.1980 hn        1 P43      0.255000
@<TRIPOS>BOND
     1    1   20 1   
     2    1   23 1   
     3    2    3 1   
     4    2    7 1   
     5    2   31 1   
     6    3    4 1   
     7    3   32 1   
     8    4    5 1   
     9    4   10 1   
    10    5    6 1   
    11    5   34 1   
    12    6    7 1   
    13    6    8 1   
    14    7   33 1   
    15    8    9 1   
    16    8   36 1   
    17    8   37 1   
    18    9   38 1   
    19    9   39 1   
    20    9   54 1   
    21   10   11 1   
    22   10   15 1   
    23   10   35 1   
    24   11   12 1   
    25   11   40 1   
    26   11   41 1   
    27   12   13 1   
    28   12   42 1   
    29   12   43 1   
    30   13   14 1   
    31   13   16 1   
    32   14   44 1   
    33   14   45 1   
    34   14   46 1   
    35   15   47 1   
    36   16   17 1   
    37   16   18 1   
    38   18   19 1   
    39   18   22 1   
    40   19   20 1   
    41   20   21 1   
    42   21   22 1   
    43   21   49 1   
    44   22   48 1   
    45   23   24 1   
    46   24   25 1   
    47   24   29 1   
    48   25   26 1   
    49   25   50 1   
    50   26   27 1   
    51   26   51 1   
    52   27   28 1   
    53   27   52 1   
    54   28   29 1   
    55   28   53 1   
    56   29   30 1   
@<TRIPOS>SUBSTRUCTURE
     1 P43         1 TEMP              0 ****  ****    0 ROOT
