@<TRIPOS>MOLECULE
P43
   54    57     1     0     0
SMALL
bcc


@<TRIPOS>ATOM
      1 C1          6.7760    4.3330   -2.5050 cg        1 P43     -0.203000
      2 C2          0.4700    0.9480   -0.4180 ca        1 P43     -0.114000
      3 C3          1.8270    0.6650   -0.2640 ca        1 P43     -0.069000
      4 C4          2.3540    0.3630    1.0010 ca        1 P43     -0.053300
      5 C5          1.5010    0.3540    2.1090 ca        1 P43     -0.101000
      6 C6          0.1400    0.6430    1.9530 ca        1 P43     -0.202300
      7 C7         -0.3780    0.9380    0.6870 ca        1 P43     -0.104000
      8 C8         -0.7650    0.5980    3.1320 c3        1 P43      0.177100
      9 N9         -0.8760    1.9570    3.7670 n4        1 P43     -0.845600
     10 C10         3.8080    0.0480    1.1710 c3        1 P43     -0.030400
     11 C11         4.1860   -1.2040    0.3840 c3        1 P43     -0.102900
     12 C12         5.6920   -1.4710    0.4600 c3        1 P43      0.080500
     13 N13         6.4980   -0.3210    0.0970 n         1 P43     -0.444800
     14 C14         6.1570    0.8730    0.8340 c3        1 P43      0.080500
     15 C15         4.6710    1.2350    0.7570 c3        1 P43     -0.102900
     16 C16         7.0930   -0.2950   -1.1650 c         1 P43      0.588600
     17 O17         7.2800   -1.3540   -1.7940 o         1 P43     -0.565100
     18 C18         7.5910    0.9760   -1.7280 cc        1 P43      0.191200
     19 O19         6.7380    2.0860   -1.7100 os        1 P43     -0.358800
     20 C20         7.4280    3.1130   -2.3830 cc        1 P43      0.387700
     21 C21         8.6700    2.6570   -2.8010 cd        1 P43     -0.226300
     22 C22         8.7700    1.2800   -2.3850 cd        1 P43     -0.178300
     23 C23         6.2280    5.3940   -2.6220 ch        1 P43     -0.048000
     24 C24         5.6080    6.6440   -2.7740 ca        1 P43     -0.021000
     25 C25         6.2230    7.6420   -3.5500 ca        1 P43     -0.076000
     26 C26         5.6230    8.8860   -3.7130 ca        1 P43     -0.140000
     27 C27         4.3970    9.1610   -3.1040 ca        1 P43     -0.087000
     28 C28         3.7650    8.1940   -2.3300 ca        1 P43     -0.170000
     29 C29         4.3640    6.9320   -2.1590 ca        1 P43      0.144900
     30 F30         3.7360    6.0010   -1.4020 f         1 P43     -0.142900
     31 H2          0.0670    1.1760   -1.4180 ha        1 P43      0.163000
     32 H3          2.4920    0.6750   -1.1450 ha        1 P43      0.168000
     33 H7         -1.4520    1.1430    0.5560 ha        1 P43      0.138000
     34 H5          1.9020    0.1010    3.1030 ha        1 P43      0.137000
     35 H10         4.0130   -0.1610    2.2610 hc        1 P43      0.055700
     36 H81C       -1.8060    0.2800    2.8330 hx        1 P43      0.111700
     37 H82C       -0.3760   -0.1110    3.9190 hx        1 P43      0.111700
     38 H91N       -1.2360    2.6290    3.0820 hn        1 P43      0.457133
     39 H92N       -1.5040    1.9250    4.5730 hn        1 P43      0.457133
     40 H111        3.8740   -1.0890   -0.6860 hc        1 P43      0.057700
     41 H112        3.6480   -2.0930    0.8030 hc        1 P43      0.057700
     42 H121        5.9630   -1.7530    1.5170 h1        1 P43      0.072200
     43 H122        5.9470   -2.3390   -0.2140 h1        1 P43      0.072200
     44 H141        6.4260    0.6800    1.9140 h1        1 P43      0.072200
     45 H142        6.7710    1.7470    0.4810 h1        1 P43      0.072200
     46 H151        4.4800    2.1020    1.4400 hc        1 P43      0.057700
     47 H152        4.4170    1.5580   -0.2860 hc        1 P43      0.057700
     48 H22         9.6120    0.6130   -2.5650 ha        1 P43      0.184000
     49 H21         9.4280    3.2170   -3.3430 ha        1 P43      0.179000
     50 H25         7.1900    7.4270   -4.0320 ha        1 P43      0.151000
     51 H26         6.1180    9.6560   -4.3240 ha        1 P43      0.150000
     52 H27         3.9250   10.1470   -3.2360 ha        1 P43      0.147000
     53 H28         2.7990    8.4010   -1.8470 ha        1 P43      0.150000
     54 H93         0.0510    2.2730    4.0700 hn        1 P43      0.457133
@<TRIPOS>BOND
     1    1   20 1   
     2    1   23 3   
     3    2    3 ar  
     4    2    7 ar  
     5    2   31 1   
     6    3    4 ar  
     7    3   32 1   
     8    4    5 ar  
     9    4   10 1   
    10    5    6 ar  
    11    5   34 1   
    12    6    7 ar  
    13    6    8 1   
    14    7   33 1   
    15    8    9 1   
    16    8   36 1   
    17    8   37 1   
    18    9   38 1   
    19    9   39 1   
    20    9   54 1   
    21   10   11 1   
    22   10   15 1   
    23   10   35 1   
    24   11   12 1   
    25   11   40 1   
    26   11   41 1   
    27   12   13 1   
    28   12   42 1   
    29   12   43 1   
    30   13   14 1   
    31   13   16 1   
    32   14   15 1   
    33   14   44 1   
    34   14   45 1   
    35   15   46 1   
    36   15   47 1   
    37   16   17 2   
    38   16   18 1   
    39   18   19 1   
    40   18   22 2   
    41   19   20 1   
    42   20   21 2   
    43   21   22 1   
    44   21   49 1   
    45   22   48 1   
    46   23   24 1   
    47   24   25 ar  
    48   24   29 ar  
    49   25   26 ar  
    50   25   50 1   
    51   26   27 ar  
    52   26   51 1   
    53   27   28 ar  
    54   27   52 1   
    55   28   29 ar  
    56   28   53 1   
    57   29   30 1   
@<TRIPOS>SUBSTRUCTURE
     1 P43         1 TEMP              0 ****  ****    0 ROOT
