@<TRIPOS>MOLECULE
P44
   47    50     1     0     0
SMALL
bcc


@<TRIPOS>ATOM
      1 N01        -0.1320    0.0010    0.0140 nc        1 P44     -0.578100
      2 C02         1.2110    0.1230   -0.0300 cd        1 P44      0.445500
      3 C03         1.7950    0.1620    1.2950 cd        1 P44     -0.236300
      4 C04         0.6960    0.0520    2.1930 cc        1 P44      0.499500
      5 N05        -0.4640   -0.0410    1.3270 na        1 P44     -0.181600
      6 N06         0.6140    0.0370    3.5520 nc        1 P44     -0.770000
      7 C07        -0.6600   -0.0880    4.0600 cd        1 P44      0.941900
      8 N08        -1.8470   -0.1760    3.2910 nd        1 P44     -0.831000
      9 C09        -1.7370   -0.1750    1.9420 cc        1 P44      0.855400
     10 N10        -2.8500   -0.3510    1.1170 nh        1 P44     -0.723300
     11 C11        -4.1770   -0.2760    1.6100 ca        1 P44      0.124600
     12 C12        -5.0880    0.6210    1.0080 ca        1 P44     -0.128500
     13 C13        -6.4140    0.6510    1.4280 ca        1 P44     -0.118500
     14 C14        -6.8530   -0.1930    2.4470 ca        1 P44     -0.130000
     15 C15        -5.9580   -1.0780    3.0450 ca        1 P44     -0.118500
     16 C16        -4.6280   -1.1320    2.6340 ca        1 P44     -0.128500
     17 N17        -0.8370   -0.1700    5.4300 nh        1 P44     -0.839900
     18 C18         0.2500    0.0690    6.3490 c3        1 P44      0.215800
     19 C19        -0.1860    0.0250    7.8210 c3        1 P44     -0.079700
     20 C20         1.0650   -0.0070    8.6890 c3        1 P44     -0.075400
     21 C21         0.7080   -0.0090   10.1610 c3        1 P44     -0.076400
     22 C22        -0.1640    1.1770   10.5190 c3        1 P44     -0.078400
     23 C23        -1.4050    1.2240    9.6520 c3        1 P44     -0.076400
     24 C24        -1.0500    1.2250    8.1790 c3        1 P44     -0.075400
     25 C25         3.1460    0.2810    1.6170 ch        1 P44      0.256500
     26 N26         4.2750    0.3810    1.8830 n1        1 P44     -0.391800
     27 H02         1.7520    0.1820   -0.9780 h4        1 P44      0.062800
     28 HN10       -2.7430   -0.1140    0.1500 hn        1 P44      0.464800
     29 H12        -4.7600    1.2960    0.2030 ha        1 P44      0.145500
     30 H13        -7.1170    1.3510    0.9510 ha        1 P44      0.138000
     31 H14        -7.9020   -0.1600    2.7770 ha        1 P44      0.137000
     32 H15        -6.3010   -1.7480    3.8480 ha        1 P44      0.138000
     33 H16        -3.9400   -1.8430    3.1160 ha        1 P44      0.145500
     34 HN17       -1.7660   -0.1350    5.7850 hn        1 P44      0.451800
     35 H181        0.7230    1.0730    6.1360 h1        1 P44      0.063700
     36 H182        1.0380   -0.7210    6.1760 h1        1 P44      0.063700
     37 H19        -0.7750   -0.9150    8.0140 hc        1 P44      0.057700
     38 H201        1.6650   -0.9240    8.4480 hc        1 P44      0.044200
     39 H202        1.7030    0.8860    8.4570 hc        1 P44      0.044200
     40 H211        1.6480    0.0180   10.7710 hc        1 P44      0.041950
     41 H212        0.1690   -0.9590   10.4150 hc        1 P44      0.041950
     42 H221       -0.4620    1.1130   11.5980 hc        1 P44      0.042700
     43 H222        0.4210    2.1250   10.3860 hc        1 P44      0.042700
     44 H231       -1.9970    2.1450    9.8920 hc        1 P44      0.041950
     45 H232       -2.0540    0.3380    9.8800 hc        1 P44      0.041950
     46 H241       -1.9940    1.2140    7.5740 hc        1 P44      0.044200
     47 H242       -0.4990    2.1690    7.9260 hc        1 P44      0.044200
@<TRIPOS>BOND
     1    1    2 2   
     2    1    5 1   
     3    2    3 1   
     4    2   27 1   
     5    3    4 2   
     6    3   25 1   
     7    4    5 1   
     8    4    6 1   
     9    5    9 1   
    10    6    7 2   
    11    7    8 1   
    12    7   17 1   
    13    8    9 2   
    14    9   10 1   
    15   10   11 1   
    16   10   28 1   
    17   11   12 ar  
    18   11   16 ar  
    19   12   13 ar  
    20   12   29 1   
    21   13   14 ar  
    22   13   30 1   
    23   14   15 ar  
    24   14   31 1   
    25   15   16 ar  
    26   15   32 1   
    27   16   33 1   
    28   17   18 1   
    29   17   34 1   
    30   18   19 1   
    31   18   35 1   
    32   18   36 1   
    33   19   20 1   
    34   19   24 1   
    35   19   37 1   
    36   20   21 1   
    37   20   38 1   
    38   20   39 1   
    39   21   22 1   
    40   21   40 1   
    41   21   41 1   
    42   22   23 1   
    43   22   42 1   
    44   22   43 1   
    45   23   24 1   
    46   23   44 1   
    47   23   45 1   
    48   24   46 1   
    49   24   47 1   
    50   25   26 3   
@<TRIPOS>SUBSTRUCTURE
     1 P44         1 TEMP              0 ****  ****    0 ROOT
