@<TRIPOS>MOLECULE
P44
   47    50     1     0     0
SMALL
bcc


@<TRIPOS>ATOM
      1 N01        -0.1200   -0.0830   -0.0040 nc        1 P44     -0.578100
      2 C02         1.2260    0.0200   -0.0420 cd        1 P44      0.445500
      3 C03         1.8030    0.0640    1.2850 cd        1 P44     -0.236300
      4 C04         0.6990   -0.0220    2.1790 cc        1 P44      0.499500
      5 N05        -0.4580   -0.1080    1.3080 na        1 P44     -0.181600
      6 N06         0.6090   -0.0220    3.5380 nc        1 P44     -0.770000
      7 C07        -0.6680   -0.1250    4.0400 cd        1 P44      0.941900
      8 N08        -1.8530   -0.2040    3.2650 nd        1 P44     -0.831000
      9 C09        -1.7360   -0.2180    1.9180 cc        1 P44      0.855400
     10 N10        -2.8480   -0.3870    1.0880 nu        1 P44     -0.723300
     11 C11        -4.1760   -0.2890    1.5730 ca        1 P44      0.124600
     12 C12        -5.0710    0.6150    0.9580 ca        1 P44     -0.128500
     13 C13        -6.3980    0.6670    1.3710 ca        1 P44     -0.118500
     14 C14        -6.8540   -0.1600    2.3960 ca        1 P44     -0.130000
     15 C15        -5.9750   -1.0520    3.0070 ca        1 P44     -0.118500
     16 C16        -4.6440   -1.1280    2.6040 ca        1 P44     -0.128500
     17 N17        -0.8530   -0.1910    5.4100 nu        1 P44     -0.839900
     18 C18         0.2310    0.0430    6.3320 c3        1 P44      0.215800
     19 C19        -0.2120    0.0180    7.8010 c3        1 P44     -0.079700
     20 C20         1.0340   -0.0230    8.6770 c3        1 P44     -0.075400
     21 C21         0.6700   -0.0070   10.1470 c3        1 P44     -0.076400
     22 C22        -0.1890    1.1930   10.4900 c3        1 P44     -0.078400
     23 C23        -1.4250    1.2480    9.6160 c3        1 P44     -0.076400
     24 C24        -1.0620    1.2310    8.1450 c3        1 P44     -0.075400
     25 C25         3.1540    0.1670    1.6130 ch        1 P44      0.256500
     26 N26         4.2840    0.2540    1.8830 n1        1 P44     -0.391800
     27 H02         1.7720    0.0630   -0.9890 h4        1 P44      0.062800
     28 HN10       -2.7320   -0.1610    0.1200 hn        1 P44      0.464800
     29 H12        -4.7300    1.2780    0.1480 ha        1 P44      0.145500
     30 H13        -7.0890    1.3720    0.8840 ha        1 P44      0.138000
     31 H14        -7.9040   -0.1090    2.7210 ha        1 P44      0.137000
     32 H15        -6.3310   -1.7100    3.8140 ha        1 P44      0.138000
     33 H16        -3.9680   -1.8450    3.0960 ha        1 P44      0.145500
     34 HN17       -1.7840   -0.1400    5.7600 hn        1 P44      0.451800
     35 H181        0.7180    1.0380    6.1130 h1        1 P44      0.063700
     36 H182        1.0100   -0.7590    6.1700 h1        1 P44      0.063700
     37 H19        -0.8140   -0.9130    8.0000 hc        1 P44      0.057700
     38 H201        1.6230   -0.9490    8.4470 hc        1 P44      0.044200
     39 H202        1.6850    0.8600    8.4400 hc        1 P44      0.044200
     40 H211        0.1170   -0.9480   10.4060 hc        1 P44      0.041950
     41 H212        1.6070    0.0130   10.7610 hc        1 P44      0.041950
     42 H221        0.4090    2.1320   10.3520 hc        1 P44      0.042700
     43 H222       -0.4930    1.1420   11.5680 hc        1 P44      0.042700
     44 H231       -2.0060    2.1790    9.8450 hc        1 P44      0.041950
     45 H232       -2.0860    0.3720    9.8480 hc        1 P44      0.041950
     46 H241       -2.0030    1.2280    7.5350 hc        1 P44      0.044200
     47 H242       -0.4980    2.1660    7.8870 hc        1 P44      0.044200
@<TRIPOS>BOND
     1    1    2 2   
     2    1    5 1   
     3    2    3 1   
     4    2   27 1   
     5    3    4 2   
     6    3   25 1   
     7    4    5 1   
     8    4    6 1   
     9    5    9 1   
    10    6    7 2   
    11    7    8 1   
    12    7   17 1   
    13    8    9 2   
    14    9   10 1   
    15   10   11 1   
    16   10   28 1   
    17   11   12 ar  
    18   11   16 ar  
    19   12   13 ar  
    20   12   29 1   
    21   13   14 ar  
    22   13   30 1   
    23   14   15 ar  
    24   14   31 1   
    25   15   16 ar  
    26   15   32 1   
    27   16   33 1   
    28   17   18 1   
    29   17   34 1   
    30   18   19 1   
    31   18   35 1   
    32   18   36 1   
    33   19   20 1   
    34   19   24 1   
    35   19   37 1   
    36   20   21 1   
    37   20   38 1   
    38   20   39 1   
    39   21   22 1   
    40   21   40 1   
    41   21   41 1   
    42   22   23 1   
    43   22   42 1   
    44   22   43 1   
    45   23   24 1   
    46   23   44 1   
    47   23   45 1   
    48   24   46 1   
    49   24   47 1   
    50   25   26 3   
@<TRIPOS>SUBSTRUCTURE
     1 P44         1 TEMP              0 ****  ****    0 ROOT
