@<TRIPOS>MOLECULE
P44
   47    50     1     0     0
SMALL
bcc


@<TRIPOS>ATOM
      1 N01        -3.2970   -2.4510   -0.0880 nc        1 P44     -0.578100
      2 C02        -2.8260   -3.7130   -0.1790 cd        1 P44      0.445500
      3 C03        -1.3800   -3.7560   -0.1250 cd        1 P44     -0.236300
      4 C04        -0.9680   -2.4010    0.0090 cc        1 P44      0.499500
      5 N05        -2.2090   -1.6510    0.0220 na        1 P44     -0.181600
      6 N06         0.2580   -1.8140    0.1010 nc        1 P44     -0.770000
      7 C07         0.2420   -0.4430    0.2240 cd        1 P44      0.941900
      8 N08        -0.9200    0.3680    0.2380 nd        1 P44     -0.831000
      9 C09        -2.1260   -0.2390    0.1610 cc        1 P44      0.855400
     10 N10        -3.3180    0.4820    0.2590 nh        1 P44     -0.723300
     11 C11        -3.3550    1.8970    0.1800 ca        1 P44      0.124600
     12 C12        -4.1950    2.5140   -0.7730 ca        1 P44     -0.128500
     13 C13        -4.3020    3.9000   -0.8130 ca        1 P44     -0.118500
     14 C14        -3.5770    4.6920    0.0780 ca        1 P44     -0.130000
     15 C15        -2.7460    4.0880    1.0190 ca        1 P44     -0.118500
     16 C16        -2.6300    2.7010    1.0820 ca        1 P44     -0.128500
     17 N17         1.4380    0.2360    0.3830 nh        1 P44     -0.839900
     18 C18         2.7090   -0.4260    0.2240 c3        1 P44      0.215800
     19 C19         3.9050    0.5300    0.3450 c3        1 P44     -0.079700
     20 C20         5.1750   -0.3040    0.4590 c3        1 P44     -0.075400
     21 C21         6.4030    0.5800    0.5390 c3        1 P44     -0.076400
     22 C22         6.4830    1.5230   -0.6430 c3        1 P44     -0.078400
     23 C23         5.2190    2.3480   -0.7710 c3        1 P44     -0.076400
     24 C24         3.9890    1.4660   -0.8510 c3        1 P44     -0.075400
     25 C25        -0.5680   -4.8880   -0.1920 ch        1 P44      0.256500
     26 N26         0.1070   -5.8350   -0.2480 n1        1 P44     -0.391800
     27 H02        -3.4970   -4.5710   -0.2810 h4        1 P44      0.062800
     28 HN10       -4.1560    0.0190   -0.0310 hn        1 P44      0.464800
     29 H12        -4.7740    1.9070   -1.4860 ha        1 P44      0.145500
     30 H13        -4.9620    4.3720   -1.5570 ha        1 P44      0.138000
     31 H14        -3.6630    5.7870    0.0370 ha        1 P44      0.137000
     32 H15        -2.1740    4.7090    1.7260 ha        1 P44      0.138000
     33 H16        -1.9720    2.2450    1.8380 ha        1 P44      0.145500
     34 HN17        1.4200    1.2300    0.3450 hn        1 P44      0.451800
     35 H181        2.7950   -1.2210    1.0220 h1        1 P44      0.063700
     36 H182        2.7550   -0.9440   -0.7780 h1        1 P44      0.063700
     37 H19         3.8030    1.1480    1.2810 hc        1 P44      0.057700
     38 H201        5.1180   -0.9500    1.3730 hc        1 P44      0.044200
     39 H202        5.2570   -0.9820   -0.4310 hc        1 P44      0.044200
     40 H211        6.3740    1.1740    1.4900 hc        1 P44      0.041950
     41 H212        7.3210   -0.0630    0.5710 hc        1 P44      0.041950
     42 H221        7.3650    2.2040   -0.5220 hc        1 P44      0.042700
     43 H222        6.6400    0.9310   -1.5830 hc        1 P44      0.042700
     44 H231        5.1300    3.0340    0.1120 hc        1 P44      0.041950
     45 H232        5.2780    2.9870   -1.6900 hc        1 P44      0.041950
     46 H241        4.0230    0.8600   -1.7950 hc        1 P44      0.044200
     47 H242        3.0760    2.1140   -0.8990 hc        1 P44      0.044200
@<TRIPOS>BOND
     1    1    2 2   
     2    1    5 1   
     3    2    3 1   
     4    2   27 1   
     5    3    4 2   
     6    3   25 1   
     7    4    5 1   
     8    4    6 1   
     9    5    9 1   
    10    6    7 2   
    11    7    8 1   
    12    7   17 1   
    13    8    9 2   
    14    9   10 1   
    15   10   11 1   
    16   10   28 1   
    17   11   12 ar  
    18   11   16 ar  
    19   12   13 ar  
    20   12   29 1   
    21   13   14 ar  
    22   13   30 1   
    23   14   15 ar  
    24   14   31 1   
    25   15   16 ar  
    26   15   32 1   
    27   16   33 1   
    28   17   18 1   
    29   17   34 1   
    30   18   19 1   
    31   18   35 1   
    32   18   36 1   
    33   19   20 1   
    34   19   24 1   
    35   19   37 1   
    36   20   21 1   
    37   20   38 1   
    38   20   39 1   
    39   21   22 1   
    40   21   40 1   
    41   21   41 1   
    42   22   23 1   
    43   22   42 1   
    44   22   43 1   
    45   23   24 1   
    46   23   44 1   
    47   23   45 1   
    48   24   46 1   
    49   24   47 1   
    50   25   26 3   
@<TRIPOS>SUBSTRUCTURE
     1 P44         1 TEMP              0 ****  ****    0 ROOT
