@<TRIPOS>MOLECULE
P44
   47    43     1     0     0
SMALL
bcc


@<TRIPOS>ATOM
      1 N01         1.3840   -0.1000   -4.3850 n2        1 P44     -0.088000
      2 C02         2.7360   -0.1590   -4.3120 c1        1 P44     -0.067000
      3 C03         3.0810   -0.3140   -2.9980 c1        1 P44     -0.181000
      4 C04         1.9140   -0.3490   -2.2510 c1        1 P44      0.140000
      5 N05         0.8770   -0.2190   -3.0950 n2        1 P44     -0.166000
      6 N06         1.6980   -0.3910   -0.9070 n1        1 P44     -0.242000
      7 C07         0.4430   -0.3010   -0.4230 c1        1 P44      0.223000
      8 N08        -0.6030   -0.1700   -1.2730 n1        1 P44     -0.321000
      9 C09        -0.3890   -0.1290   -2.6060 c1        1 P44      0.300000
     10 N10        -1.5040   -0.3450   -3.4990 n3        1 P44     -0.231000
     11 C11        -2.2150    0.7910   -4.0620 c2        1 P44      0.007000
     12 C12        -1.6960    1.4600   -5.1640 c2        1 P44     -0.069000
     13 C13        -2.3980    2.5190   -5.7290 c1        1 P44     -0.129000
     14 C14        -3.6190    2.9080   -5.1930 c1        1 P44     -0.120000
     15 C15        -4.1370    2.2400   -4.0930 c1        1 P44     -0.120000
     16 C16        -3.4330    1.1790   -3.5270 c1        1 P44     -0.138000
     17 N17         0.0510   -0.4700    0.9540 n3        1 P44     -0.286000
     18 C18         1.0540   -0.4880    1.9950 c3        1 P44     -0.020000
     19 C19         0.4010   -0.8650    3.3250 c3        1 P44     -0.119000
     20 C20         1.2540   -1.9190    4.0130 c3        1 P44     -0.153500
     21 C21         0.7780   -2.2200    5.4180 c3        1 P44     -0.155000
     22 C22         0.6150   -0.9640    6.2580 c3        1 P44     -0.157000
     23 C23        -0.2360    0.0870    5.5710 c3        1 P44     -0.155000
     24 C24         0.2390    0.3890    4.1650 c3        1 P44     -0.153500
     25 C25         4.5700   -0.2020   -2.7810 c1        1 P44     -0.036000
     26 N26         5.6910   -0.1180   -2.6180 n1        1 P44     -0.068000
     27 H02         3.3560   -0.0440   -5.0570 DU        1 P44      0.191000
     28 HN10       -1.7980   -1.1980   -3.6660 hn        1 P44      0.244000
     29 H12        -0.8430    1.1880   -5.5380 ha        1 P44      0.152000
     30 H13        -2.0330    2.9870   -6.5010 ha        1 P44      0.139000
     31 H14        -4.1130    3.6520   -5.5900 ha        1 P44      0.137000
     32 H15        -4.9950    2.5130   -3.7160 ha        1 P44      0.137000
     33 H16        -3.7960    0.7110   -2.7570 ha        1 P44      0.136000
     34 HN17       -0.8310   -0.5620    1.1680 hn        1 P44      0.246000
     35 H181        1.7460   -1.1480    1.7720 h1        1 P44      0.102500
     36 H182        1.4620    0.4000    2.0720 h1        1 P44      0.102500
     37 H19        -0.4790   -1.2400    3.1480 hc        1 P44      0.097000
     38 H201        1.2270   -2.7410    3.4870 hc        1 P44      0.083250
     39 H202        2.1800   -1.5990    4.0540 hc        1 P44      0.083250
     40 H211       -0.0830   -2.6800    5.3670 hc        1 P44      0.081250
     41 H212        1.4280   -2.8100    5.8530 hc        1 P44      0.081250
     42 H221        0.1940   -1.2050    7.1100 hc        1 P44      0.081500
     43 H222        1.4990   -0.5860    6.4370 hc        1 P44      0.081500
     44 H231       -1.1620   -0.2320    5.5310 hc        1 P44      0.081250
     45 H232       -0.2070    0.9120    6.0980 hc        1 P44      0.081250
     46 H241        1.1020    0.8510    4.2140 hc        1 P44      0.083250
     47 H242       -0.4110    0.9790    3.7310 hc        1 P44      0.083250
@<TRIPOS>BOND
     1    1    2 1   
     2    1    5 1   
     3    2    3 1   
     4    3    4 1   
     5    4    6 1   
     6    5    9 1   
     7    7    8 1   
     8    7   17 1   
     9    9   10 1   
    10   10   11 1   
    11   10   28 1   
    12   11   12 1   
    13   11   16 1   
    14   12   13 1   
    15   12   29 1   
    16   13   30 1   
    17   14   15 1   
    18   14   31 1   
    19   15   32 1   
    20   16   33 1   
    21   17   18 1   
    22   17   34 1   
    23   18   19 1   
    24   18   35 1   
    25   18   36 1   
    26   19   20 1   
    27   19   24 1   
    28   19   37 1   
    29   20   21 1   
    30   20   38 1   
    31   20   39 1   
    32   21   22 1   
    33   21   40 1   
    34   21   41 1   
    35   22   23 1   
    36   22   42 1   
    37   22   43 1   
    38   23   24 1   
    39   23   44 1   
    40   23   45 1   
    41   24   46 1   
    42   24   47 1   
    43   25   26 1   
@<TRIPOS>SUBSTRUCTURE
     1 P44         1 TEMP              0 ****  ****    0 ROOT
