@<TRIPOS>MOLECULE
P44
   49    51     1     0     0
SMALL
bcc


@<TRIPOS>ATOM
      1 N01        -0.8440   -0.2620    0.4230 nc        1 P44     -0.509100
      2 C02         0.1850    0.5680    0.1250 cd        1 P44      0.475500
      3 C03         0.6520    1.2930    1.2980 cd        1 P44      0.004700
      4 C04        -0.1650    0.8510    2.3620 cc        1 P44      0.368500
      5 N05        -1.0820   -0.1250    1.7360 na        1 P44     -0.130600
      6 N06        -0.2300    1.1390    3.7010 nc        1 P44     -0.535000
      7 C07        -1.1710    0.4790    4.3940 cd        1 P44      0.725900
      8 N08        -2.0950   -0.4660    3.8860 nd        1 P44     -0.704000
      9 C09        -2.0220   -0.7310    2.5740 cc        1 P44      0.721400
     10 N10        -2.9950   -1.7020    1.9760 n4        1 P44     -0.612100
     11 C11        -4.1340   -1.0140    1.3500 ca        1 P44     -0.096400
     12 C12        -4.1410   -0.8170   -0.0430 ca        1 P44     -0.089000
     13 C13        -5.2600   -0.2270   -0.6300 ca        1 P44     -0.099000
     14 C14        -6.3480    0.1660    0.1520 ca        1 P44     -0.042000
     15 C15        -6.3260   -0.0300    1.5360 ca        1 P44     -0.099000
     16 C16        -5.2230   -0.6160    2.1500 ca        1 P44     -0.089000
     17 N17        -1.2680    0.7470    5.8550 n4        1 P44     -0.737700
     18 C18        -0.1940    0.0220    6.6230 c3        1 P44      0.105800
     19 C19        -0.3120    0.2750    8.1340 c3        1 P44     -0.083700
     20 C20         0.8360   -0.4810    8.8030 c3        1 P44     -0.071400
     21 C21         0.5640   -0.7810   10.2670 c3        1 P44     -0.049200
     22 C22         0.8320    0.3720   11.1610 c2        1 P44     -0.207200
     23 C23         0.0230    0.7440   12.1510 c2        1 P44     -0.188000
     24 C24        -0.2620    1.7530    8.4490 c3        1 P44     -0.134100
     25 C25         1.6930    2.2260    1.3560 ch        1 P44      0.155500
     26 N26         2.5590    3.0020    1.4020 n1        1 P44     -0.194800
     27 H02         0.5880    0.6480   -0.8980 h4        1 P44      0.125800
     28 HN10       -3.3510   -2.3210    2.7250 hn        1 P44      0.498800
     29 H12        -3.2960   -1.1260   -0.6810 ha        1 P44      0.164000
     30 H13        -5.2810   -0.0770   -1.7240 ha        1 P44      0.186500
     31 H14        -7.2320    0.6290   -0.3250 ha        1 P44      0.189000
     32 H15        -7.1920    0.2750    2.1510 ha        1 P44      0.186500
     33 H16        -5.2260   -0.7730    3.2410 ha        1 P44      0.164000
     34 HN17       -2.1940    0.4550    6.2030 hn        1 P44      0.486800
     35 H181        0.8050    0.3910    6.2510 hx        1 P44      0.114700
     36 H182       -0.2980   -1.0770    6.4010 hx        1 P44      0.114700
     37 H19        -1.2860   -0.1530    8.5040 hc        1 P44      0.075700
     38 H201        0.9950   -1.4570    8.2700 hc        1 P44      0.057700
     39 H202       -0.4880   -1.1510   10.3940 hc        1 P44      0.064200
     40 H211        1.2470   -1.6230   10.5770 hc        1 P44      0.064200
     41 H212        1.7800    0.1170    8.7070 hc        1 P44      0.057700
     42 H221       -0.9290    0.2390   12.3690 ha        1 P44      0.126500
     43 H222        1.7920    0.8870   10.9860 ha        1 P44      0.131000
     44 H231       -0.1080    1.8900    9.5530 hc        1 P44      0.064700
     45 H232        0.2710    1.5730   12.8280 ha        1 P44      0.126500
     46 H241       -1.2170    2.2660    8.1810 hc        1 P44      0.064700
     47 H242        0.5880    2.2530    7.9240 hc        1 P44      0.064700
     48 H102       -2.5080   -2.2760    1.2650 hn        1 P44      0.498800
     49 H172       -1.1640    1.7650    6.0210 hn        1 P44      0.486800
@<TRIPOS>BOND
     1    1    2 2   
     2    1    5 1   
     3    2    3 1   
     4    2   27 1   
     5    3    4 2   
     6    3   25 1   
     7    4    5 1   
     8    4    6 1   
     9    5    9 1   
    10    6    7 2   
    11    7    8 1   
    12    7   17 1   
    13    8    9 2   
    14    9   10 1   
    15   10   11 1   
    16   10   28 1   
    17   10   48 1   
    18   11   12 ar  
    19   11   16 ar  
    20   12   13 ar  
    21   12   29 1   
    22   13   14 ar  
    23   13   30 1   
    24   14   15 ar  
    25   14   31 1   
    26   15   16 ar  
    27   15   32 1   
    28   16   33 1   
    29   17   18 1   
    30   17   34 1   
    31   17   49 1   
    32   18   19 1   
    33   18   35 1   
    34   18   36 1   
    35   19   20 1   
    36   19   24 1   
    37   19   37 1   
    38   20   21 1   
    39   20   38 1   
    40   20   41 1   
    41   21   22 1   
    42   21   39 1   
    43   21   40 1   
    44   22   23 2   
    45   22   43 1   
    46   23   42 1   
    47   23   45 1   
    48   24   44 1   
    49   24   46 1   
    50   24   47 1   
    51   25   26 3   
@<TRIPOS>SUBSTRUCTURE
     1 P44         1 TEMP              0 ****  ****    0 ROOT
