@<TRIPOS>MOLECULE
P45
   41    44     1     0     0
SMALL
bcc


@<TRIPOS>ATOM
      1 N01        -4.5210   -1.4500    0.0140 nc        1 P45     -0.577100
      2 C02        -4.4850   -2.7950   -0.1040 cd        1 P45      0.445500
      3 C03        -3.1280   -3.2980   -0.1530 cd        1 P45     -0.232300
      4 C04        -2.2970   -2.1470   -0.0560 cc        1 P45      0.497500
      5 N05        -3.2300   -1.0410    0.0430 na        1 P45     -0.180600
      6 N06        -0.9450   -1.9830   -0.0530 nc        1 P45     -0.770000
      7 C07        -0.5140   -0.6820    0.0630 cd        1 P45      0.938900
      8 N08        -1.3500    0.4570    0.1520 nd        1 P45     -0.829000
      9 C09        -2.6910    0.2680    0.1640 cc        1 P45      0.856400
     10 N10        -3.5790    1.3310    0.3400 nh        1 P45     -0.722300
     11 C11        -3.1670    2.6840    0.2530 ca        1 P45      0.123600
     12 C12        -3.8300    3.5500   -0.6460 ca        1 P45     -0.128500
     13 C13        -3.4900    4.8980   -0.6900 ca        1 P45     -0.118500
     14 C14        -2.4910    5.4040    0.1410 ca        1 P45     -0.129000
     15 C15        -1.8340    4.5540    1.0280 ca        1 P45     -0.118500
     16 C16        -2.1640    3.2020    1.0950 ca        1 P45     -0.128500
     17 N17         0.8460   -0.4240    0.1420 nh        1 P45     -0.840900
     18 C18         1.8210   -1.4570   -0.1290 c3        1 P45      0.261100
     19 C19         3.2260   -0.9300   -0.1190 ca        1 P45     -0.116300
     20 C20         4.0370   -1.0900   -1.2470 ca        1 P45     -0.105500
     21 C21         5.3560   -0.6400   -1.2340 ca        1 P45     -0.125500
     22 C22         5.8620   -0.0210   -0.0870 ca        1 P45      0.025400
     23 C23         5.0580    0.1460    1.0450 ca        1 P45     -0.125500
     24 C24         3.7420   -0.3120    1.0240 ca        1 P45     -0.105500
     25 C25        -2.7270   -4.6280   -0.2720 ch        1 P45      0.254500
     26 N26        -2.3950   -5.7400   -0.3710 n1        1 P45     -0.388800
     27 CL27        7.4680    0.5340   -0.0680 cl        1 P45     -0.086400
     28 H02        -5.4010   -3.3920   -0.1530 h4        1 P45      0.063800
     29 HN10       -4.5400    1.1640    0.1180 hn        1 P45      0.465800
     30 H12        -4.6190    3.1700   -1.3120 ha        1 P45      0.145500
     31 H13        -4.0130    5.5660   -1.3910 ha        1 P45      0.138000
     32 H14        -2.2240    6.4700    0.0970 ha        1 P45      0.138000
     33 H15        -1.0470    4.9490    1.6880 ha        1 P45      0.138000
     34 H16        -1.6360    2.5490    1.8080 ha        1 P45      0.145500
     35 HN17        1.1470    0.5240    0.0800 hn        1 P45      0.453800
     36 H181        1.7220   -2.2550    0.6660 h1        1 P45      0.072200
     37 H182        1.6020   -1.9460   -1.1250 h1        1 P45      0.072200
     38 H20         3.6380   -1.5770   -2.1500 ha        1 P45      0.145000
     39 H21         5.9920   -0.7720   -2.1230 ha        1 P45      0.151500
     40 H23         5.4600    0.6310    1.9470 ha        1 P45      0.151500
     41 H24         3.1090   -0.1920    1.9170 ha        1 P45      0.145000
@<TRIPOS>BOND
     1    1    2 2   
     2    1    5 1   
     3    2    3 1   
     4    2   28 1   
     5    3    4 2   
     6    3   25 1   
     7    4    5 1   
     8    4    6 1   
     9    5    9 1   
    10    6    7 2   
    11    7    8 1   
    12    7   17 1   
    13    8    9 2   
    14    9   10 1   
    15   10   11 1   
    16   10   29 1   
    17   11   12 ar  
    18   11   16 ar  
    19   12   13 ar  
    20   12   30 1   
    21   13   14 ar  
    22   13   31 1   
    23   14   15 ar  
    24   14   32 1   
    25   15   16 ar  
    26   15   33 1   
    27   16   34 1   
    28   17   18 1   
    29   17   35 1   
    30   18   19 1   
    31   18   36 1   
    32   18   37 1   
    33   19   20 ar  
    34   19   24 ar  
    35   20   21 ar  
    36   20   38 1   
    37   21   22 ar  
    38   21   39 1   
    39   22   23 ar  
    40   22   27 1   
    41   23   24 ar  
    42   23   40 1   
    43   24   41 1   
    44   25   26 3   
@<TRIPOS>SUBSTRUCTURE
     1 P45         1 TEMP              0 ****  ****    0 ROOT
