@<TRIPOS>MOLECULE
P45
   41    44     1     0     0
SMALL
bcc


@<TRIPOS>ATOM
      1 N01        -0.1230   -0.0210    0.0500 nc        1 P45     -0.577100
      2 C02         1.2190    0.1200    0.0050 cd        1 P45      0.445500
      3 C03         1.8000    0.1860    1.3300 cd        1 P45     -0.232300
      4 C04         0.7020    0.0740    2.2280 cc        1 P45      0.497500
      5 N05        -0.4550   -0.0500    1.3630 na        1 P45     -0.180600
      6 N06         0.6180    0.0770    3.5880 nc        1 P45     -0.770000
      7 C07        -0.6530   -0.0600    4.0950 cd        1 P45      0.938900
      8 N08        -1.8380   -0.1740    3.3280 nd        1 P45     -0.829000
      9 C09        -1.7280   -0.1910    1.9790 cc        1 P45      0.856400
     10 N10        -2.8380   -0.3910    1.1550 nu        1 P45     -0.722300
     11 C11        -4.1660   -0.3240    1.6460 ca        1 P45      0.123600
     12 C12        -5.0850    0.5550    1.0310 ca        1 P45     -0.128500
     13 C13        -6.4120    0.5780    1.4490 ca        1 P45     -0.118500
     14 C14        -6.8430   -0.2560    2.4800 ca        1 P45     -0.129000
     15 C15        -5.9400   -1.1240    3.0910 ca        1 P45     -0.118500
     16 C16        -4.6090   -1.1700    2.6820 ca        1 P45     -0.128500
     17 N17        -0.8290   -0.1350    5.4680 nu        1 P45     -0.840900
     18 C18         0.2540    0.1600    6.3780 c3        1 P45      0.261100
     19 C19        -0.1880    0.1490    7.8120 ca        1 P45     -0.116300
     20 C20        -0.0020    1.2840    8.6070 ca        1 P45     -0.105500
     21 C21        -0.3730    1.2710    9.9500 ca        1 P45     -0.125500
     22 C22        -0.9400    0.1160   10.4980 ca        1 P45      0.025400
     23 C23        -1.1320   -1.0230    9.7100 ca        1 P45     -0.125500
     24 C24        -0.7540   -1.0020    8.3700 ca        1 P45     -0.105500
     25 C25         3.1490    0.3310    1.6510 ch        1 P45      0.254500
     26 N26         4.2760    0.4520    1.9170 n1        1 P45     -0.388800
     27 Cl27       -1.3990    0.0970   12.1340 cl        1 P45     -0.086400
     28 H02         1.7600    0.1740   -0.9440 h4        1 P45      0.063800
     29 HN10       -2.7320   -0.1720    0.1850 hn        1 P45      0.465800
     30 H12        -4.7640    1.2230    0.2170 ha        1 P45      0.145500
     31 H13        -7.1210    1.2640    0.9630 ha        1 P45      0.138000
     32 H14        -7.8920   -0.2290    2.8090 ha        1 P45      0.138000
     33 H15        -6.2770   -1.7860    3.9030 ha        1 P45      0.138000
     34 H16        -3.9140   -1.8670    3.1740 ha        1 P45      0.145500
     35 HN17       -1.7590   -0.0880    5.8240 hn        1 P45      0.453800
     36 H181        1.0600   -0.6220    6.2370 h1        1 P45      0.072200
     37 H182        0.7110    1.1630    6.1270 h1        1 P45      0.072200
     38 H20         0.4440    2.1940    8.1760 ha        1 P45      0.145000
     39 H21        -0.2200    2.1660   10.5730 ha        1 P45      0.151500
     40 H23        -1.5760   -1.9320   10.1450 ha        1 P45      0.151500
     41 H24        -0.8940   -1.9010    7.7490 ha        1 P45      0.145000
@<TRIPOS>BOND
     1    1    2 2   
     2    1    5 1   
     3    2    3 1   
     4    2   28 1   
     5    3    4 2   
     6    3   25 1   
     7    4    5 1   
     8    4    6 1   
     9    5    9 1   
    10    6    7 2   
    11    7    8 1   
    12    7   17 1   
    13    8    9 2   
    14    9   10 1   
    15   10   11 1   
    16   10   29 1   
    17   11   12 ar  
    18   11   16 ar  
    19   12   13 ar  
    20   12   30 1   
    21   13   14 ar  
    22   13   31 1   
    23   14   15 ar  
    24   14   32 1   
    25   15   16 ar  
    26   15   33 1   
    27   16   34 1   
    28   17   18 1   
    29   17   35 1   
    30   18   19 1   
    31   18   36 1   
    32   18   37 1   
    33   19   20 ar  
    34   19   24 ar  
    35   20   21 ar  
    36   20   38 1   
    37   21   22 ar  
    38   21   39 1   
    39   22   23 ar  
    40   22   27 1   
    41   23   24 ar  
    42   23   40 1   
    43   24   41 1   
    44   25   26 3   
@<TRIPOS>SUBSTRUCTURE
     1 P45         1 TEMP              0 ****  ****    0 ROOT
