@<TRIPOS>MOLECULE
P45
   41    44     1     0     0
SMALL
bcc


@<TRIPOS>ATOM
      1 N01        -0.0930    0.0060    0.0290 nc        1 P45     -0.577100
      2 C02         1.2490    0.1550    0.0010 cd        1 P45      0.445500
      3 C03         1.8140    0.2170    1.3330 cd        1 P45     -0.232300
      4 C04         0.7060    0.0950    2.2170 cc        1 P45      0.497500
      5 N05        -0.4410   -0.0300    1.3370 na        1 P45     -0.180600
      6 N06         0.6050    0.0900    3.5760 nc        1 P45     -0.770000
      7 C07        -0.6720   -0.0560    4.0670 cd        1 P45      0.938900
      8 N08        -1.8460   -0.1720    3.2850 nd        1 P45     -0.829000
      9 C09        -1.7200   -0.1810    1.9370 cc        1 P45      0.856400
     10 N10        -2.8190   -0.3830    1.1000 nh        1 P45     -0.722300
     11 C11        -4.1530   -0.3260    1.5750 ca        1 P45      0.123600
     12 C12        -5.0700    0.5520    0.9530 ca        1 P45     -0.128500
     13 C13        -6.4010    0.5650    1.3550 ca        1 P45     -0.118500
     14 C14        -6.8400   -0.2760    2.3770 ca        1 P45     -0.129000
     15 C15        -5.9400   -1.1420    2.9940 ca        1 P45     -0.118500
     16 C16        -4.6040   -1.1790    2.6010 ca        1 P45     -0.128500
     17 N17        -0.8630   -0.1390    5.4380 nh        1 P45     -0.840900
     18 C18         0.2080    0.1570    6.3620 c3        1 P45      0.261100
     19 C19        -0.2520    0.1360    7.7910 ca        1 P45     -0.116300
     20 C20        -0.0820    1.2680    8.5940 ca        1 P45     -0.105500
     21 C21        -0.4690    1.2460    9.9320 ca        1 P45     -0.125500
     22 C22        -1.0360    0.0850   10.4670 ca        1 P45      0.025400
     23 C23        -1.2120   -1.0510    9.6710 ca        1 P45     -0.125500
     24 C24        -0.8170   -1.0210    8.3360 ca        1 P45     -0.105500
     25 C25         3.1580    0.3670    1.6710 ch        1 P45      0.254500
     26 N26         4.2810    0.4930    1.9510 n1        1 P45     -0.388800
     27 CL27       -1.5130    0.0550   12.0970 cl        1 P45     -0.086400
     28 H02         1.8000    0.2160   -0.9410 h4        1 P45      0.063800
     29 HN10       -2.7020   -0.1580    0.1320 hn        1 P45      0.465800
     30 H12        -4.7420    1.2250    0.1460 ha        1 P45      0.145500
     31 H13        -7.1090    1.2500    0.8640 ha        1 P45      0.138000
     32 H14        -7.8930   -0.2560    2.6940 ha        1 P45      0.138000
     33 H15        -6.2830   -1.8100    3.7990 ha        1 P45      0.138000
     34 H16        -3.9110   -1.8750    3.0980 ha        1 P45      0.145500
     35 HN17       -1.7970   -0.0990    5.7820 hn        1 P45      0.453800
     36 H181        1.0190   -0.6200    6.2270 h1        1 P45      0.072200
     37 H182        0.6620    1.1640    6.1220 h1        1 P45      0.072200
     38 H20         0.3640    2.1830    8.1720 ha        1 P45      0.145000
     39 H21        -0.3280    2.1390   10.5610 ha        1 P45      0.151500
     40 H23        -1.6550   -1.9650   10.0960 ha        1 P45      0.151500
     41 H24        -0.9450   -1.9180    7.7090 ha        1 P45      0.145000
@<TRIPOS>BOND
     1    1    2 2   
     2    1    5 1   
     3    2    3 1   
     4    2   28 1   
     5    3    4 2   
     6    3   25 1   
     7    4    5 1   
     8    4    6 1   
     9    5    9 1   
    10    6    7 2   
    11    7    8 1   
    12    7   17 1   
    13    8    9 2   
    14    9   10 1   
    15   10   11 1   
    16   10   29 1   
    17   11   12 ar  
    18   11   16 ar  
    19   12   13 ar  
    20   12   30 1   
    21   13   14 ar  
    22   13   31 1   
    23   14   15 ar  
    24   14   32 1   
    25   15   16 ar  
    26   15   33 1   
    27   16   34 1   
    28   17   18 1   
    29   17   35 1   
    30   18   19 1   
    31   18   36 1   
    32   18   37 1   
    33   19   20 ar  
    34   19   24 ar  
    35   20   21 ar  
    36   20   38 1   
    37   21   22 ar  
    38   21   39 1   
    39   22   23 ar  
    40   22   27 1   
    41   23   24 ar  
    42   23   40 1   
    43   24   41 1   
    44   25   26 3   
@<TRIPOS>SUBSTRUCTURE
     1 P45         1 TEMP              0 ****  ****    0 ROOT
