@<TRIPOS>MOLECULE
P45
   41    35     1     0     0
SMALL
bcc


@<TRIPOS>ATOM
      1 N01         0.9320   -0.6920   -3.5910 n2        1 P45     -0.086000
      2 C02         2.2650   -0.9290   -3.6180 c1        1 P45     -0.067000
      3 C03         2.6960   -1.0690   -2.3240 c1        1 P45     -0.177000
      4 C04         1.6030   -0.9150   -1.4920 c1        1 P45      0.138000
      5 N05         0.5230   -0.6850   -2.2630 n2        1 P45     -0.165000
      6 N06         1.4620   -1.0480   -0.1490 n1        1 P45     -0.242000
      7 C07         0.2440   -0.9500    0.4130 c1        1 P45      0.220000
      8 N08        -0.8440   -0.7190   -0.3610 n1        1 P45     -0.319000
      9 C09        -0.7060   -0.5860   -1.6940 c1        1 P45      0.301000
     10 N10        -1.8510   -0.7940   -2.5860 n3        1 P45     -0.232000
     11 C11        -2.4770    0.3420   -3.2400 c2        1 P45      0.007000
     12 C12        -1.9010    0.8920   -4.3820 c2        1 P45     -0.070000
     13 C13        -2.5280    1.9430   -5.0390 c1        1 P45     -0.129000
     14 C14        -3.7270    2.4440   -4.5560 c1        1 P45     -0.120000
     15 C15        -4.3010    1.8930   -3.4150 c1        1 P45     -0.120000
     16 C16        -3.6730    0.8420   -2.7590 c1        1 P45     -0.137000
     17 N17         0.2590   -0.8650    1.8430 n3        1 P45     -0.287000
     18 C18         1.5090   -0.9710    2.5600 c3        1 P45      0.018000
     19 C19         1.3220   -0.4590    3.9790 c2        1 P45     -0.109000
     20 C20         1.6990    0.8380    4.3060 c2        1 P45     -0.104000
     21 C21         1.6280    1.2690    5.6230 c1        1 P45     -0.126000
     22 C22         1.1830    0.4100    6.6090 c1        1 P45     -0.053000
     23 C23         0.8070   -0.8830    6.2850 c1        1 P45     -0.126000
     24 C24         0.8770   -1.3180    4.9670 c1        1 P45     -0.109000
     25 C25         4.1730   -0.9760   -2.0310 c1        1 P45     -0.037000
     26 N26         5.2890   -0.9060   -1.8100 n1        1 P45     -0.065000
     27 CL27        1.0280    0.9790    8.2510 cl        1 P45     -0.009000
     28 H02         2.8150   -0.9890   -4.4100 DU        1 P45      0.192000
     29 HN10       -2.2120   -1.6290   -2.6780 hn        1 P45      0.246000
     30 H12        -1.0540    0.5380   -4.7210 ha        1 P45      0.152000
     31 H13        -2.1220    2.3320   -5.8450 ha        1 P45      0.140000
     32 H14        -4.1710    3.1850   -5.0190 ha        1 P45      0.137500
     33 H15        -5.1490    2.2470   -3.0730 ha        1 P45      0.137500
     34 H16        -4.0790    0.4540   -1.9530 ha        1 P45      0.136000
     35 HN17       -0.5200   -0.7960    2.3000 hn        1 P45      0.248000
     36 H181        1.7940   -1.9110    2.5870 h1        1 P45      0.111000
     37 H182        2.1930   -0.4350    2.1060 h1        1 P45      0.111000
     38 H20         2.0120    1.4440    3.6120 ha        1 P45      0.144000
     39 H21         1.8940    2.1870    5.8560 ha        1 P45      0.151000
     40 H23         0.4960   -1.4840    6.9760 ha        1 P45      0.151000
     41 H24         0.6110   -2.2300    4.7380 ha        1 P45      0.146000
@<TRIPOS>BOND
     1    1    2 1   
     2    1    5 1   
     3    2    3 1   
     4    3    4 1   
     5    4    6 1   
     6    5    9 1   
     7    7    8 1   
     8    7   17 1   
     9    9   10 1   
    10   10   11 1   
    11   10   29 1   
    12   11   12 1   
    13   11   16 1   
    14   12   13 1   
    15   12   30 1   
    16   13   31 1   
    17   14   15 1   
    18   14   32 1   
    19   15   33 1   
    20   16   34 1   
    21   17   18 1   
    22   17   35 1   
    23   18   19 1   
    24   18   36 1   
    25   18   37 1   
    26   19   20 1   
    27   19   24 1   
    28   20   21 1   
    29   20   38 1   
    30   21   39 1   
    31   22   23 1   
    32   22   27 1   
    33   23   40 1   
    34   24   41 1   
    35   25   26 1   
@<TRIPOS>SUBSTRUCTURE
     1 P45         1 TEMP              0 ****  ****    0 ROOT
