@<TRIPOS>MOLECULE
P45
   43    46     1     0     0
SMALL
bcc


@<TRIPOS>ATOM
      1 N01        -0.9250    0.0040    0.4290 nc        1 P45     -0.511100
      2 C02         0.0860    0.8750    0.1870 cd        1 P45      0.475500
      3 C03         0.6210    1.4380    1.4190 cd        1 P45      0.000700
      4 C04        -0.1310    0.8490    2.4580 cc        1 P45      0.371500
      5 N05        -1.0850   -0.0400    1.7610 na        1 P45     -0.130600
      6 N06        -0.1170    0.9520    3.8260 nc        1 P45     -0.540000
      7 C07        -1.0160    0.1970    4.4790 cd        1 P45      0.727900
      8 N08        -1.9680   -0.6770    3.9000 nd        1 P45     -0.705000
      9 C09        -1.9730   -0.7600    2.5630 cc        1 P45      0.720400
     10 N10        -2.9810   -1.6480    1.8960 n4        1 P45     -0.612100
     11 C11        -4.1500   -0.8880    1.4300 ca        1 P45     -0.095400
     12 C12        -4.2360   -0.5130    0.0760 ca        1 P45     -0.089500
     13 C13        -5.3830    0.1460   -0.3640 ca        1 P45     -0.099000
     14 C14        -6.4220    0.4330    0.5240 ca        1 P45     -0.043000
     15 C15        -6.3210    0.0610    1.8680 ca        1 P45     -0.099000
     16 C16        -5.1890   -0.5980    2.3360 ca        1 P45     -0.089500
     17 N17        -1.0210    0.2610    5.9640 n4        1 P45     -0.750700
     18 C18         0.1300   -0.5340    6.5680 c3        1 P45      0.199100
     19 C19         0.0830   -0.4120    8.0430 ca        1 P45     -0.230300
     20 C20         0.7940    0.6140    8.6840 ca        1 P45     -0.078500
     21 C21         0.8020    0.6970   10.0720 ca        1 P45     -0.121000
     22 C22         0.0970   -0.2490   10.8330 ca        1 P45      0.075400
     23 C23        -0.6130   -1.2790   10.1940 ca        1 P45     -0.121000
     24 C24        -0.6180   -1.3570    8.8070 ca        1 P45     -0.078500
     25 C25         1.6640    2.3610    1.5420 ch        1 P45      0.157500
     26 N26         2.5320    3.1310    1.6420 n1        1 P45     -0.198800
     27 CL27        0.1060   -0.1520   12.5130 cl        1 P45      0.006600
     28 H02         0.4270    1.0970   -0.8370 h4        1 P45      0.124800
     29 HN10       -3.2970   -2.3630    2.5750 hn        1 P45      0.498300
     30 H12        -3.4300   -0.7370   -0.6440 ha        1 P45      0.164000
     31 H13        -5.4670    0.4350   -1.4270 ha        1 P45      0.186000
     32 H14        -7.3290    0.9520    0.1630 ha        1 P45      0.189000
     33 H15        -7.1480    0.2830    2.5660 ha        1 P45      0.186000
     34 H16        -5.1290   -0.8930    3.3960 ha        1 P45      0.164000
     35 HN17       -1.9130   -0.1060    6.3300 hn        1 P45      0.482300
     36 H181        1.0880   -0.1100    6.1480 hx        1 P45      0.115700
     37 H182        0.0070   -1.6020    6.2320 hx        1 P45      0.115700
     38 H20         1.3680    1.3470    8.0950 ha        1 P45      0.144000
     39 H21         1.3690    1.5000   10.5740 ha        1 P45      0.182500
     40 H23        -1.1570   -2.0300   10.7930 ha        1 P45      0.182500
     41 H24        -1.1580   -2.1810    8.3140 ha        1 P45      0.144000
     42 H102       -2.5350   -2.1210    1.0890 hn        1 P45      0.498300
     43 H172       -0.9350    1.2470    6.2600 hn        1 P45      0.482300
@<TRIPOS>BOND
     1    1    2 2   
     2    1    5 1   
     3    2    3 1   
     4    2   28 1   
     5    3    4 2   
     6    3   25 1   
     7    4    5 1   
     8    4    6 1   
     9    5    9 1   
    10    6    7 2   
    11    7    8 1   
    12    7   17 1   
    13    8    9 2   
    14    9   10 1   
    15   10   11 1   
    16   10   29 1   
    17   10   42 1   
    18   11   12 ar  
    19   11   16 ar  
    20   12   13 ar  
    21   12   30 1   
    22   13   14 ar  
    23   13   31 1   
    24   14   15 ar  
    25   14   32 1   
    26   15   16 ar  
    27   15   33 1   
    28   16   34 1   
    29   17   18 1   
    30   17   35 1   
    31   17   43 1   
    32   18   19 1   
    33   18   36 1   
    34   18   37 1   
    35   19   20 ar  
    36   19   24 ar  
    37   20   21 ar  
    38   20   38 1   
    39   21   22 ar  
    40   21   39 1   
    41   22   23 ar  
    42   22   27 1   
    43   23   24 ar  
    44   23   40 1   
    45   24   41 1   
    46   25   26 3   
@<TRIPOS>SUBSTRUCTURE
     1 P45         1 TEMP              0 ****  ****    0 ROOT
