@<TRIPOS>MOLECULE
P47
   34    35     1     0     0
SMALL
bcc


@<TRIPOS>ATOM
      1 OAA         0.4880    0.8300    0.0630 o         1 P47     -0.829300
      2 CAP         1.1450   -0.2250   -0.1580 c         1 P47      0.899800
      3 OAB         0.9470   -1.3260    0.4330 o         1 P47     -0.829300
      4 CAD         2.1790   -0.1790   -1.2600 ce        1 P47     -0.135200
      5 CAQ         3.5160   -0.0720   -1.1730 cf        1 P47     -0.146400
      6 CAT         4.2750   -0.0140    0.0740 ca        1 P47      0.000200
      7 CAK         3.8940   -0.7860    1.1850 ca        1 P47     -0.128500
      8 CAG         4.6430   -0.7460    2.3590 ca        1 P47     -0.144000
      9 CAE         5.7780    0.0590    2.4500 ca        1 P47     -0.157000
     10 CAF         6.1590    0.8350    1.3570 ca        1 P47     -0.144000
     11 CAJ         5.4150    0.8000    0.1800 ca        1 P47     -0.128500
     12 CAN         4.3260   -0.0220   -2.4330 c3        1 P47     -0.024200
     13 CAO         4.2050    1.3340   -3.1130 c3        1 P47     -0.049100
     14 CAS         5.0700    1.4320   -4.3210 ca        1 P47     -0.052300
     15 CAL         4.5080    1.4770   -5.6020 ca        1 P47     -0.125000
     16 CAM         6.4630    1.4900   -4.1860 ca        1 P47     -0.125000
     17 CAI         7.2840    1.5930   -5.3060 ca        1 P47     -0.126000
     18 CAR         6.7060    1.6380   -6.5780 ca        1 P47      0.003400
     19 ClAC        7.7040    1.7670   -7.9550 cl        1 P47     -0.124400
     20 CAH         5.3190    1.5800   -6.7310 ca        1 P47     -0.126000
     21 HAD         1.7150   -0.2210   -2.2620 ha        1 P47      0.097000
     22 HAK         2.9750   -1.4020    1.1230 ha        1 P47      0.156500
     23 HAG         4.3280   -1.3510    3.2220 ha        1 P47      0.112500
     24 HAE         6.3650    0.0870    3.3780 ha        1 P47      0.107000
     25 HAF         7.0450    1.4820    1.4240 ha        1 P47      0.112500
     26 HAJ         5.7180    1.4260   -0.6720 ha        1 P47      0.156500
     27 HAN         5.4060   -0.2370   -2.2190 hc        1 P47      0.035200
     28 HANA        3.9670   -0.8180   -3.1390 hc        1 P47      0.035200
     29 HAO         3.1300    1.5100   -3.3850 hc        1 P47      0.060200
     30 HAOA        4.4970    2.1400   -2.3860 hc        1 P47      0.060200
     31 HAL         3.4150    1.4300   -5.7200 ha        1 P47      0.141500
     32 HAM         6.9100    1.4510   -3.1790 ha        1 P47      0.141500
     33 HAI         8.3760    1.6370   -5.1890 ha        1 P47      0.138000
     34 HAH         4.8670    1.6140   -7.7330 ha        1 P47      0.138000
@<TRIPOS>BOND
     1    1    2 1   
     2    2    3 1   
     3    2    4 1   
     4    4    5 2   
     5    4   21 1   
     6    5    6 1   
     7    5   12 1   
     8    6    7 ar  
     9    6   11 ar  
    10    7    8 ar  
    11    7   22 1   
    12    8    9 ar  
    13    8   23 1   
    14    9   10 ar  
    15    9   24 1   
    16   10   11 ar  
    17   10   25 1   
    18   11   26 1   
    19   12   13 1   
    20   12   27 1   
    21   12   28 1   
    22   13   14 1   
    23   13   29 1   
    24   13   30 1   
    25   14   15 ar  
    26   14   16 ar  
    27   15   20 ar  
    28   15   31 1   
    29   16   17 ar  
    30   16   32 1   
    31   17   18 ar  
    32   17   33 1   
    33   18   19 1   
    34   18   20 ar  
    35   20   34 1   
@<TRIPOS>SUBSTRUCTURE
     1 P47         1 TEMP              0 ****  ****    0 ROOT
