@<TRIPOS>MOLECULE
P47
   34    35     1     0     0
SMALL
bcc


@<TRIPOS>ATOM
      1 OAA         3.9330    2.7030   -0.9890 o         1 P47     -0.829300
      2 CAP         3.6550    2.2250    0.1460 c         1 P47      0.899800
      3 OAB         4.4640    2.1760    1.1170 o         1 P47     -0.829300
      4 CAD         2.2350    1.7580    0.3730 ce        1 P47     -0.135200
      5 CAQ         1.7370    0.5110    0.3830 cf        1 P47     -0.146400
      6 CAT         2.5220   -0.7090    0.2050 ca        1 P47      0.000200
      7 CAK         3.8110   -0.8220    0.7540 ca        1 P47     -0.128500
      8 CAG         4.5380   -2.0000    0.6050 ca        1 P47     -0.144000
      9 CAE         4.0010   -3.0830   -0.0900 ca        1 P47     -0.157000
     10 CAF         2.7280   -2.9780   -0.6470 ca        1 P47     -0.144000
     11 CAJ         1.9950   -1.8020   -0.5010 ca        1 P47     -0.128500
     12 CAN         0.2680    0.3140    0.6080 c3        1 P47     -0.024200
     13 CAO        -0.5340    0.6840   -0.6310 c3        1 P47     -0.049100
     14 CAS        -1.9870    0.4140   -0.4560 ca        1 P47     -0.052300
     15 CAL        -2.9040    1.4670   -0.3550 ca        1 P47     -0.125000
     16 CAM        -2.4560   -0.9050   -0.4000 ca        1 P47     -0.125000
     17 CAI        -3.8140   -1.1730   -0.2470 ca        1 P47     -0.126000
     18 CAR        -4.7160   -0.1090   -0.1500 ca        1 P47      0.003400
     19 CLAC       -6.3820   -0.4290    0.0350 cl        1 P47     -0.124400
     20 CAH        -4.2660    1.2120   -0.2020 ca        1 P47     -0.126000
     21 HAD         1.5430    2.6060    0.5240 ha        1 P47      0.097000
     22 HAK         4.2500    0.0500    1.2810 ha        1 P47      0.156500
     23 HAG         5.5480   -2.0700    1.0340 ha        1 P47      0.112500
     24 HAE         4.5790   -4.0090   -0.2060 ha        1 P47      0.107000
     25 HAF         2.3010   -3.8210   -1.2070 ha        1 P47      0.112500
     26 HAJ         0.9950   -1.7270   -0.9550 ha        1 P47      0.156500
     27 HAN         0.0500   -0.7490    0.8910 hc        1 P47      0.035200
     28 HANA       -0.0670    0.9570    1.4660 hc        1 P47      0.035200
     29 HAO        -0.3620    1.7690   -0.8650 hc        1 P47      0.060700
     30 HAOA       -0.1530    0.0930   -1.5080 hc        1 P47      0.060700
     31 HAL        -2.5470    2.5070   -0.3950 ha        1 P47      0.141500
     32 HAM        -1.7380   -1.7370   -0.4750 ha        1 P47      0.141500
     33 HAI        -4.1710   -2.2120   -0.2040 ha        1 P47      0.138000
     34 HAH        -4.9780    2.0460   -0.1230 ha        1 P47      0.138000
@<TRIPOS>BOND
     1    1    2 1   
     2    2    3 1   
     3    2    4 1   
     4    4    5 2   
     5    4   21 1   
     6    5    6 1   
     7    5   12 1   
     8    6    7 ar  
     9    6   11 ar  
    10    7    8 ar  
    11    7   22 1   
    12    8    9 ar  
    13    8   23 1   
    14    9   10 ar  
    15    9   24 1   
    16   10   11 ar  
    17   10   25 1   
    18   11   26 1   
    19   12   13 1   
    20   12   27 1   
    21   12   28 1   
    22   13   14 1   
    23   13   29 1   
    24   13   30 1   
    25   14   15 ar  
    26   14   16 ar  
    27   15   20 ar  
    28   15   31 1   
    29   16   17 ar  
    30   16   32 1   
    31   17   18 ar  
    32   17   33 1   
    33   18   19 1   
    34   18   20 ar  
    35   20   34 1   
@<TRIPOS>SUBSTRUCTURE
     1 P47         1 TEMP              0 ****  ****    0 ROOT
