@<TRIPOS>MOLECULE
P47
   34    30     1     0     0
SMALL
bcc


@<TRIPOS>ATOM
      1 OAA        -3.6550    0.2010    2.5380 o         1 P47     -0.564000
      2 CAP        -2.8830    1.1620    2.2810 c2        1 P47      0.350000
      3 OAB        -2.7600    2.1080    3.1020 o         1 P47     -0.564000
      4 CAD        -2.1310    1.1980    0.9680 c2        1 P47     -0.118000
      5 CAQ        -0.8430    0.8040    0.9170 c1        1 P47     -0.153000
      6 CAT        -0.1480    0.3260    2.1740 c1        1 P47      0.011000
      7 CAK        -0.0780   -1.0300    2.4540 c2        1 P47     -0.145000
      8 CAG         0.5840   -1.4700    3.5900 c1        1 P47     -0.150000
      9 CAE         1.1760   -0.5540    4.4460 c1        1 P47     -0.147500
     10 CAF         1.1050    0.8020    4.1660 c1        1 P47     -0.147500
     11 CAJ         0.4440    1.2420    3.0300 c1        1 P47     -0.110000
     12 CAN        -0.0910    0.8400   -0.3950 c3        1 P47     -0.107000
     13 CAO        -0.8760    0.0860   -1.4460 c3        1 P47     -0.135000
     14 CAS         0.0410   -0.2860   -2.5900 c2        1 P47     -0.045000
     15 CAL         0.7770   -1.4600   -2.5340 c2        1 P47     -0.127000
     16 CAM         0.1120    0.5240   -3.7130 c1        1 P47     -0.122000
     17 CAI         0.9200    0.1600   -4.7800 c1        1 P47     -0.125000
     18 CAR         1.6550   -1.0130   -4.7240 c1        1 P47     -0.075000
     19 CLAC        2.6300   -1.4960   -6.0860 cl        1 P47     -0.046000
     20 CAH         1.5840   -1.8230   -3.6010 c2        1 P47     -0.127000
     21 HAD        -2.5790    1.5060    0.1570 ha        1 P47      0.096000
     22 HAK        -0.4940   -1.6750    1.8520 ha        1 P47      0.114000
     23 HAG         0.6330   -2.4250    3.7870 ha        1 P47      0.106000
     24 HAE         1.6420   -0.8640    5.2460 ha        1 P47      0.113000
     25 HAF         1.5220    1.4470    4.7690 ha        1 P47      0.113000
     26 HAJ         0.3940    2.1970    2.8330 ha        1 P47      0.199000
     27 HAN         0.7850    0.4220   -0.2810 hc        1 P47      0.074500
     28 HANA        0.0250    1.7680   -0.6790 hc        1 P47      0.074500
     29 HAO        -1.2520   -0.7260   -1.0520 hc        1 P47      0.099500
     30 HAOA       -1.6010    0.6520   -1.7800 hc        1 P47      0.099500
     31 HAL         0.7050   -2.0440   -1.7550 ha        1 P47      0.137000
     32 HAM        -0.4260    1.3360   -3.7630 ha        1 P47      0.145000
     33 HAI         0.9630    0.7260   -5.5730 ha        1 P47      0.139000
     34 HAH         2.1210   -2.6370   -3.5600 ha        1 P47      0.137000
@<TRIPOS>BOND
     1    1    2 1   
     2    2    3 1   
     3    2    4 1   
     4    4    5 1   
     5    4   21 1   
     6    5   12 1   
     7    6    7 1   
     8    6   11 1   
     9    7    8 1   
    10    7   22 1   
    11    8   23 1   
    12    9   10 1   
    13    9   24 1   
    14   10   25 1   
    15   11   26 1   
    16   12   13 1   
    17   12   27 1   
    18   12   28 1   
    19   13   14 1   
    20   13   29 1   
    21   13   30 1   
    22   14   15 1   
    23   14   16 1   
    24   15   20 1   
    25   15   31 1   
    26   16   32 1   
    27   17   18 1   
    28   17   33 1   
    29   18   20 1   
    30   20   34 1   
@<TRIPOS>SUBSTRUCTURE
     1 P47         1 TEMP              0 ****  ****    0 ROOT
