@<TRIPOS>MOLECULE
P47
   34    35     1     0     0
SMALL
bcc


@<TRIPOS>ATOM
      1 OAA         0.4920    0.8640    0.0680 o         1 P47     -0.829300
      2 CAP         1.1400   -0.1950   -0.1540 c         1 P47      0.899800
      3 OAB         0.9340   -1.2950    0.4380 o         1 P47     -0.829300
      4 CAD         2.1740   -0.1590   -1.2560 ce        1 P47     -0.135200
      5 CAQ         3.5110   -0.0630   -1.1720 cf        1 P47     -0.146400
      6 CAT         4.2720   -0.0110    0.0740 ca        1 P47      0.000200
      7 CAK         3.8870   -0.7790    1.1850 ca        1 P47     -0.128500
      8 CAG         4.6380   -0.7470    2.3580 ca        1 P47     -0.144000
      9 CAE         5.7800    0.0490    2.4480 ca        1 P47     -0.157000
     10 CAF         6.1650    0.8220    1.3540 ca        1 P47     -0.144000
     11 CAJ         5.4190    0.7930    0.1780 ca        1 P47     -0.128500
     12 CAN         4.3200   -0.0190   -2.4330 c3        1 P47     -0.024200
     13 CAO         4.2100    1.3380   -3.1130 c3        1 P47     -0.049100
     14 CAS         5.0740    1.4290   -4.3210 ca        1 P47     -0.052300
     15 CAL         4.5110    1.4780   -5.6020 ca        1 P47     -0.125000
     16 CAM         6.4680    1.4770   -4.1870 ca        1 P47     -0.125000
     17 CAI         7.2880    1.5720   -5.3080 ca        1 P47     -0.126000
     18 CAR         6.7100    1.6220   -6.5800 ca        1 P47      0.003400
     19 CLAC        7.7070    1.7420   -7.9580 cl        1 P47     -0.124400
     20 CAH         5.3220    1.5740   -6.7320 ca        1 P47     -0.126000
     21 HAD         1.7080   -0.1960   -2.2580 ha        1 P47      0.097000
     22 HAK         2.9620   -1.3880    1.1250 ha        1 P47      0.156500
     23 HAG         4.3190   -1.3480    3.2220 ha        1 P47      0.112500
     24 HAE         6.3680    0.0720    3.3750 ha        1 P47      0.107000
     25 HAF         7.0560    1.4620    1.4200 ha        1 P47      0.112500
     26 HAJ         5.7270    1.4170   -0.6730 ha        1 P47      0.156500
     27 HAN         5.3980   -0.2430   -2.2200 hc        1 P47      0.035200
     28 HANA        3.9530   -0.8120   -3.1390 hc        1 P47      0.035200
     29 HAO         3.1360    1.5230   -3.3840 hc        1 P47      0.060700
     30 HAOA        4.5080    2.1410   -2.3860 hc        1 P47      0.060700
     31 HAL         3.4170    1.4390   -5.7190 ha        1 P47      0.141500
     32 HAM         6.9150    1.4340   -3.1810 ha        1 P47      0.141500
     33 HAI         8.3810    1.6080   -5.1920 ha        1 P47      0.138000
     34 HAH         4.8700    1.6120   -7.7330 ha        1 P47      0.138000
@<TRIPOS>BOND
     1    1    2 1   
     2    2    3 1   
     3    2    4 1   
     4    4    5 2   
     5    4   21 1   
     6    5    6 1   
     7    5   12 1   
     8    6    7 ar  
     9    6   11 ar  
    10    7    8 ar  
    11    7   22 1   
    12    8    9 ar  
    13    8   23 1   
    14    9   10 ar  
    15    9   24 1   
    16   10   11 ar  
    17   10   25 1   
    18   11   26 1   
    19   12   13 1   
    20   12   27 1   
    21   12   28 1   
    22   13   14 1   
    23   13   29 1   
    24   13   30 1   
    25   14   15 ar  
    26   14   16 ar  
    27   15   20 ar  
    28   15   31 1   
    29   16   17 ar  
    30   16   32 1   
    31   17   18 ar  
    32   17   33 1   
    33   18   19 1   
    34   18   20 ar  
    35   20   34 1   
@<TRIPOS>SUBSTRUCTURE
     1 P47         1 TEMP              0 ****  ****    0 ROOT
