@<TRIPOS>MOLECULE
P48
   66    62     1     0     0
SMALL
bcc


@<TRIPOS>ATOM
      1 O1         -6.3090    2.2040    4.8630 o         1 P48     -0.368000
      2 C2         -5.0960    2.0680    4.9250 c1        1 P48      0.387000
      3 N3         -4.4270    2.0510    6.2310 n2        1 P48     -0.370000
      4 C4         -5.1280    2.4870    7.3950 c3        1 P48     -0.079000
      5 C5         -4.2970    1.8110    3.6590 c2        1 P48     -0.164000
      6 N6         -4.1350    0.4920    3.9690 n2        1 P48     -0.060000
      7 N7         -3.5670   -0.1380    2.8790 n2        1 P48     -0.062000
      8 C8         -3.4400   -1.5470    2.9370 c2        1 P48     -0.062000
      9 C9         -3.3760    0.8100    1.8840 c2        1 P48     -0.068000
     10 C10        -3.8240    2.0120    2.3600 c1        1 P48     -0.071000
     11 C11        -2.6540    0.7400    0.5330 c1        1 P48      0.119000
     12 C12        -2.4530    1.8940   -0.2110 c1        1 P48     -0.195000
     13 C13        -3.1400    3.1620    0.1710 c3        1 P48     -0.102000
     14 C14        -3.8510    3.2230    1.4490 c2        1 P48      0.023000
     15 C15        -3.2560    4.4410    2.2630 c3        1 P48     -0.212000
     16 C16        -5.3540    3.5460    1.1370 c3        1 P48     -0.212000
     17 N17        -2.1330   -0.4420    0.1070 n1        1 P48     -0.216000
     18 C18        -1.4150   -0.4930   -1.0480 c1        1 P48      0.145000
     19 N19        -1.2110    0.6740   -1.8010 n1        1 P48     -0.214000
     20 C20        -1.7200    1.8360   -1.3880 c1        1 P48     -0.003000
     21 N21        -0.8470   -1.6300   -1.7170 n3        1 P48     -0.216000
     22 C22         0.5360   -1.6150   -2.1080 c2        1 P48      0.010000
     23 C23         1.5080   -2.0640   -1.2290 c2        1 P48     -0.084000
     24 C24         2.8550   -2.1780   -1.6580 c1        1 P48     -0.179000
     25 C25         3.2010   -1.8390   -2.9590 c1        1 P48      0.053000
     26 C26         2.2320   -1.3900   -3.8390 c1        1 P48     -0.144000
     27 C27         0.8850   -1.2750   -3.4130 c1        1 P48     -0.137000
     28 N28         4.6150   -1.9580   -3.4040 n3        1 P48     -0.237000
     29 C29         4.8860   -3.3230   -3.7810 c3        1 P48     -0.051000
     30 C30         6.3830   -3.5600   -4.1060 c3        1 P48     -0.071500
     31 N31         7.2400   -3.1000   -3.0730 n3        1 P48     -0.258000
     32 C32         8.6010   -3.2170   -3.4930 c3        1 P48     -0.119000
     33 C33         6.9700   -1.7350   -2.6950 c3        1 P48     -0.071500
     34 C34         5.4690   -1.4960   -2.3750 c3        1 P48     -0.051000
     35 H3         -3.5880    1.8150    6.2890 hn        1 P48      0.233000
     36 H41C       -5.7660    3.1750    7.1490 h1        1 P48      0.083667
     37 H42C       -5.5900    1.7490    7.7840 h1        1 P48      0.083667
     38 H43C       -4.4920    2.8510    8.0430 h1        1 P48      0.083667
     39 H81C       -3.6870   -1.8540    3.8020 ha        1 P48      0.110333
     40 H82C       -4.0230   -1.9520    2.2710 ha        1 P48      0.110333
     41 H83C       -2.5530   -1.7880    2.7620 ha        1 P48      0.110333
     42 H131       -2.4620    3.8750    0.1790 hc        1 P48      0.095000
     43 H132       -3.8040    3.3780   -0.5560 hc        1 P48      0.095000
     44 H20        -1.5780    2.6370   -1.9090 ha        1 P48      0.167000
     45 H151       -3.9540    4.7830    2.9310 hc        1 P48      0.086000
     46 H152       -2.4810    4.1580    2.7310 hc        1 P48      0.086000
     47 H153       -3.0210    5.1480    1.6520 hc        1 P48      0.086000
     48 H161       -5.4090    4.3740    0.6240 hc        1 P48      0.086000
     49 H162       -5.8400    3.6480    1.9650 hc        1 P48      0.086000
     50 H163       -5.7560    2.7960    0.6060 hc        1 P48      0.086000
     51 H21        -1.4050   -2.3970   -1.9320 hn        1 P48      0.230000
     52 H23         1.2660   -2.3010   -0.3150 ha        1 P48      0.147000
     53 H27         0.2010   -0.9600   -4.0340 ha        1 P48      0.134000
     54 H24         3.5350   -2.4920   -1.0430 ha        1 P48      0.134000
     55 H26         2.4880   -1.1370   -4.8020 ha        1 P48      0.139000
     56 H291        4.6360   -3.8930   -3.0630 h1        1 P48      0.083750
     57 H292        4.3270   -3.5560   -4.5960 h1        1 P48      0.083750
     58 H341        5.3150   -0.4910   -2.2500 h1        1 P48      0.083750
     59 H342        5.2340   -1.9760   -1.5100 h1        1 P48      0.083750
     60 H301        6.5340   -4.5400   -4.2430 h1        1 P48      0.079000
     61 H302        6.6070   -3.0840   -4.9390 h1        1 P48      0.079000
     62 H321        8.7600   -2.6200   -4.2940 h1        1 P48      0.073000
     63 H322        9.2240   -2.9300   -2.7200 h1        1 P48      0.073000
     64 H323        8.7990   -4.1900   -3.7470 h1        1 P48      0.073000
     65 H331        7.2320   -1.1620   -3.4030 h1        1 P48      0.079000
     66 H332        7.5010   -1.5170   -1.8930 h1        1 P48      0.079000
@<TRIPOS>BOND
     1    1    2 1   
     2    2    5 1   
     3    3    4 1   
     4    3   35 1   
     5    4   36 1   
     6    4   37 1   
     7    4   38 1   
     8    5    6 1   
     9    5   10 1   
    10    6    7 1   
    11    7    9 1   
    12    8   39 1   
    13    8   40 1   
    14    8   41 1   
    15    9   10 1   
    16    9   11 1   
    17   11   17 1   
    18   12   13 1   
    19   12   20 1   
    20   13   14 1   
    21   13   42 1   
    22   13   43 1   
    23   14   15 1   
    24   14   16 1   
    25   15   45 1   
    26   15   46 1   
    27   15   47 1   
    28   16   48 1   
    29   16   49 1   
    30   16   50 1   
    31   18   19 1   
    32   18   21 1   
    33   20   44 1   
    34   21   22 1   
    35   21   51 1   
    36   22   23 1   
    37   22   27 1   
    38   23   24 1   
    39   23   52 1   
    40   24   54 1   
    41   25   26 1   
    42   25   28 1   
    43   26   55 1   
    44   27   53 1   
    45   28   29 1   
    46   28   34 1   
    47   29   30 1   
    48   29   56 1   
    49   29   57 1   
    50   30   31 1   
    51   30   60 1   
    52   30   61 1   
    53   31   32 1   
    54   31   33 1   
    55   32   62 1   
    56   32   63 1   
    57   32   64 1   
    58   33   34 1   
    59   33   65 1   
    60   33   66 1   
    61   34   58 1   
    62   34   59 1   
@<TRIPOS>SUBSTRUCTURE
     1 P48         1 TEMP              0 ****  ****    0 ROOT
