@<TRIPOS>MOLECULE
P48
   66    70     1     0     0
SMALL
bcc


@<TRIPOS>ATOM
      1 O1          7.6740   -0.9580   -0.5920 o         1 P48     -0.606100
      2 C2          7.2600    0.0200    0.0620 c         1 P48      0.603600
      3 N3          8.1050    0.7760    0.8500 n         1 P48     -0.560900
      4 C4          9.5180    0.5690    0.8680 c3        1 P48      0.076300
      5 C5          5.8270    0.4110    0.0530 cc        1 P48      0.254800
      6 N6          5.4210    1.7190   -0.0700 nd        1 P48     -0.492800
      7 N7          4.0920    1.7290   -0.1200 na        1 P48      0.149400
      8 C8          3.3030    2.9310   -0.2810 c3        1 P48      0.038600
      9 C9          3.5740    0.4270   -0.0230 cd        1 P48     -0.199800
     10 C10         4.6760   -0.4550    0.1030 cc        1 P48     -0.142600
     11 C11         2.2000   -0.0390   -0.0860 ca        1 P48      0.557800
     12 C12         2.0120   -1.4190    0.1920 ca        1 P48     -0.332900
     13 C13         3.1040   -2.3010    0.6590 c3        1 P48     -0.016100
     14 C14         4.5290   -1.9270    0.2080 c3        1 P48      0.030300
     15 C15         5.5020   -2.5040    1.2340 c3        1 P48     -0.094100
     16 C16         4.8240   -2.5540   -1.1540 c3        1 P48     -0.094100
     17 N17         1.1870    0.7910   -0.4170 nb        1 P48     -0.762000
     18 C18        -0.0760    0.2180   -0.5140 ca        1 P48      0.863900
     19 N19        -0.3520   -1.1210   -0.2720 nb        1 P48     -0.722000
     20 C20         0.6890   -1.8920    0.0710 ca        1 P48      0.459200
     21 N21        -1.1110    1.0690   -0.9680 nh        1 P48     -0.693300
     22 C22        -2.4690    0.7730   -0.6890 ca        1 P48      0.086600
     23 C23        -3.2500    1.6690    0.0720 ca        1 P48     -0.106500
     24 C24        -4.6010    1.4390    0.2810 ca        1 P48     -0.160000
     25 C25        -5.2370    0.2940   -0.2550 ca        1 P48      0.133600
     26 C26        -4.4500   -0.5950   -1.0180 ca        1 P48     -0.160000
     27 C27        -3.0970   -0.3640   -1.2310 ca        1 P48     -0.106500
     28 N28        -6.5970    0.0410    0.0580 nh        1 P48     -0.635000
     29 C29        -7.1120   -1.2650   -0.3180 c3        1 P48      0.185300
     30 C30        -8.5290   -1.5170    0.2360 c3        1 P48      0.165300
     31 N31        -9.4610   -0.4440   -0.0790 n3        1 P48     -0.732600
     32 C32       -10.7810   -0.6830    0.4580 c3        1 P48      0.157100
     33 C33        -8.9380    0.8630    0.2900 c3        1 P48      0.165300
     34 C34        -7.5210    1.1200   -0.2600 c3        1 P48      0.185300
     35 H3          7.7600    1.6040    1.2740 hn        1 P48      0.319500
     36 H41C        9.7720   -0.4220    0.4070 h1        1 P48      0.044367
     37 H42C       10.0480    1.3790    0.2960 h1        1 P48      0.044367
     38 H43C        9.8820    0.5850    1.9310 h1        1 P48      0.044367
     39 H81C        2.7660    2.8870   -1.2660 h1        1 P48      0.069700
     40 H82C        2.5540    2.9870    0.5520 h1        1 P48      0.069700
     41 H83C        3.9620    3.8390   -0.2540 h1        1 P48      0.069700
     42 H131        3.0760   -2.2980    1.7860 hc        1 P48      0.055700
     43 H132        2.9010   -3.3560    0.3290 hc        1 P48      0.055700
     44 H20         0.4490   -2.9540    0.2640 h4        1 P48      0.030100
     45 H151        5.3780   -1.9990    2.2210 hc        1 P48      0.046867
     46 H152        5.3100   -3.5960    1.3610 hc        1 P48      0.046867
     47 H153        6.5540   -2.3640    0.8840 hc        1 P48      0.046867
     48 H161        5.8490   -2.2570   -1.4900 hc        1 P48      0.046867
     49 H162        4.7760   -3.6660   -1.0780 hc        1 P48      0.046867
     50 H163        4.0780   -2.2110   -1.9090 hc        1 P48      0.046867
     51 H21        -0.8940    2.0440   -0.8980 hn        1 P48      0.428800
     52 H23        -2.7930    2.5700    0.5120 ha        1 P48      0.141500
     53 H27        -2.5220   -1.0840   -1.8350 ha        1 P48      0.141500
     54 H24        -5.1690    2.1560    0.8930 ha        1 P48      0.137500
     55 H26        -4.8950   -1.4970   -1.4660 ha        1 P48      0.137500
     56 H291       -7.1370   -1.3950   -1.4390 h1        1 P48      0.044200
     57 H292       -6.4310   -2.0500    0.1160 h1        1 P48      0.044200
     58 H341       -7.1430    2.0720    0.2060 h1        1 P48      0.044200
     59 H342       -7.5890    1.2800   -1.3750 h1        1 P48      0.044200
     60 H301       -8.9170   -2.4610   -0.2400 h1        1 P48      0.039200
     61 H302       -8.4560   -1.6950    1.3490 h1        1 P48      0.039200
     62 H321      -10.8080   -0.7140    1.5830 h1        1 P48      0.033033
     63 H322      -11.4660    0.1330    0.1070 h1        1 P48      0.033033
     64 H323      -11.1570   -1.6640    0.0660 h1        1 P48      0.033033
     65 H331       -9.6200    1.6430   -0.1490 h1        1 P48      0.039200
     66 H332       -8.9230    1.0060    1.4110 h1        1 P48      0.039200
@<TRIPOS>BOND
     1    1    2 2   
     2    2    3 1   
     3    2    5 1   
     4    3    4 1   
     5    3   35 1   
     6    4   36 1   
     7    4   37 1   
     8    4   38 1   
     9    5    6 2   
    10    5   10 1   
    11    6    7 1   
    12    7    8 1   
    13    7    9 1   
    14    8   39 1   
    15    8   40 1   
    16    8   41 1   
    17    9   10 2   
    18    9   11 1   
    19   10   14 1   
    20   11   12 ar  
    21   11   17 ar  
    22   12   13 1   
    23   12   20 ar  
    24   13   14 1   
    25   13   42 1   
    26   13   43 1   
    27   14   15 1   
    28   14   16 1   
    29   15   45 1   
    30   15   46 1   
    31   15   47 1   
    32   16   48 1   
    33   16   49 1   
    34   16   50 1   
    35   17   18 ar  
    36   18   19 ar  
    37   18   21 1   
    38   19   20 ar  
    39   20   44 1   
    40   21   22 1   
    41   21   51 1   
    42   22   23 ar  
    43   22   27 ar  
    44   23   24 ar  
    45   23   52 1   
    46   24   25 ar  
    47   24   54 1   
    48   25   26 ar  
    49   25   28 1   
    50   26   27 ar  
    51   26   55 1   
    52   27   53 1   
    53   28   29 1   
    54   28   34 1   
    55   29   30 1   
    56   29   56 1   
    57   29   57 1   
    58   30   31 1   
    59   30   60 1   
    60   30   61 1   
    61   31   32 1   
    62   31   33 1   
    63   32   62 1   
    64   32   63 1   
    65   32   64 1   
    66   33   34 1   
    67   33   65 1   
    68   33   66 1   
    69   34   58 1   
    70   34   59 1   
@<TRIPOS>SUBSTRUCTURE
     1 P48         1 TEMP              0 ****  ****    0 ROOT
