@<TRIPOS>MOLECULE
P48
   68    72     1     0     0
SMALL
bcc


@<TRIPOS>ATOM
      1 O1          2.0310    0.9900    0.8290 o         1 P48     -0.403100
      2 C2          2.9050    0.6030    0.0700 c         1 P48      0.500600
      3 N3          4.0680   -0.1470    0.7070 n4        1 P48     -0.664800
      4 C4          4.0240   -0.1410    2.1870 c3        1 P48      0.080100
      5 C5          2.9810    0.7400   -1.3750 cc        1 P48      0.177800
      6 N6          3.7810   -0.0840   -2.1580 nd        1 P48     -0.477800
      7 N7          3.5520    0.2060   -3.4180 na        1 P48      0.214400
      8 C8          4.2140   -0.4610   -4.5300 c3        1 P48      0.019600
      9 C9          2.6020    1.2400   -3.5360 cd        1 P48     -0.215800
     10 C10         2.2240    1.6290   -2.2230 cc        1 P48     -0.063600
     11 C11         1.9960    1.8140   -4.7240 ca        1 P48      0.533800
     12 C12         1.1580    2.9410   -4.5030 ca        1 P48     -0.230900
     13 C13         1.0340    3.5970   -3.1830 c3        1 P48     -0.046100
     14 C14         1.2420    2.7070   -1.9420 c3        1 P48      0.012300
     15 C15         1.7260    3.6240   -0.8200 c3        1 P48     -0.100100
     16 C16        -0.0880    2.0760   -1.5300 c3        1 P48     -0.100100
     17 N17         2.1790    1.2710   -5.9570 nb        1 P48     -0.685000
     18 C18         1.4830    1.8710   -6.9720 ca        1 P48      0.721900
     19 N19         0.6280    2.9430   -6.8690 nb        1 P48     -0.644000
     20 C20         0.4860    3.4580   -5.6360 ca        1 P48      0.463200
     21 N21         1.6700    1.3100   -8.3510 n4        1 P48     -0.576100
     22 C22         2.5470    2.1400   -9.1700 ca        1 P48     -0.188400
     23 C23         3.8990    1.7840   -9.3470 ca        1 P48     -0.030500
     24 C24         4.7120    2.5340  -10.1680 ca        1 P48     -0.210000
     25 C25         4.2270    3.7020  -10.8420 ca        1 P48      0.262600
     26 C26         2.8480    4.0330  -10.6400 ca        1 P48     -0.210000
     27 C27         2.0350    3.2820   -9.8200 ca        1 P48     -0.030500
     28 N28         5.0510    4.4840  -11.6110 nh        1 P48     -0.618000
     29 C29         4.4650    5.5420  -12.4170 c3        1 P48      0.199300
     30 C30         5.4660    6.4590  -13.1440 c3        1 P48      0.158300
     31 N31         6.5800    5.7260  -13.7190 n3        1 P48     -0.728600
     32 C32         7.4470    6.5500  -14.5310 c3        1 P48      0.152100
     33 C33         7.2880    4.9940  -12.6840 c3        1 P48      0.158300
     34 C34         6.3810    4.0000  -11.9350 c3        1 P48      0.199300
     35 H3          4.9440    0.2820    0.3850 hn        1 P48      0.468800
     36 H41C        3.0650   -0.6120    2.5380 hx        1 P48      0.117367
     37 H42C        4.9020   -0.7200    2.5810 hx        1 P48      0.117367
     38 H43C        4.0640    0.9180    2.5600 hx        1 P48      0.117367
     39 H81C        5.0150   -1.1530   -4.1550 h1        1 P48      0.093367
     40 H82C        4.6710    0.3230   -5.1910 h1        1 P48      0.093367
     41 H83C        3.4450   -1.0500   -5.0990 h1        1 P48      0.093367
     42 H131        1.7970    4.4300   -3.1610 hc        1 P48      0.093700
     43 H132        0.0220    4.0810   -3.0950 hc        1 P48      0.093700
     44 H20        -0.2030    4.3260   -5.5560 h4        1 P48      0.078100
     45 H151        2.7660    3.9780   -1.0170 hc        1 P48      0.059033
     46 H152        1.0530    4.5140   -0.7500 hc        1 P48      0.059033
     47 H153        1.6970    3.0970    0.1630 hc        1 P48      0.059033
     48 H161       -0.5090    1.4620   -2.3600 hc        1 P48      0.059033
     49 H162        0.0580    1.4250   -0.6330 hc        1 P48      0.059033
     50 H163       -0.8200    2.8780   -1.2660 hc        1 P48      0.059033
     51 H21         0.7440    1.2600   -8.8020 hn        1 P48      0.473300
     52 H23         4.3190    0.8930   -8.8490 ha        1 P48      0.148500
     53 H27         0.9810    3.5810   -9.6890 ha        1 P48      0.148500
     54 H24         5.7540    2.2030  -10.3040 ha        1 P48      0.165000
     55 H26         2.4000    4.9020  -11.1510 ha        1 P48      0.165000
     56 H291        3.8520    6.2070  -11.7420 h1        1 P48      0.058950
     57 H292        3.7790    5.0750  -13.1840 h1        1 P48      0.058950
     58 H341        6.2850    3.0600  -12.5540 h1        1 P48      0.058950
     59 H342        6.9120    3.7440  -10.9720 h1        1 P48      0.058950
     60 H301        4.9060    6.9680  -13.9790 h1        1 P48      0.055950
     61 H302        5.8130    7.2560  -12.4230 h1        1 P48      0.055950
     62 H321        8.2300    5.8960  -14.9970 h1        1 P48      0.048367
     63 H322        7.9570    7.3660  -13.9490 h1        1 P48      0.048367
     64 H323        6.8360    7.0170  -15.3480 h1        1 P48      0.048367
     65 H331        7.7650    5.6860  -11.9290 h1        1 P48      0.055950
     66 H332        8.1090    4.3940  -13.1700 h1        1 P48      0.055950
     67 H32         4.0470   -1.1180    0.3680 hn        1 P48      0.468800
     68 H212        2.0670    0.3630   -8.2800 hn        1 P48      0.473300
@<TRIPOS>BOND
     1    1    2 2   
     2    2    3 1   
     3    2    5 1   
     4    3    4 1   
     5    3   35 1   
     6    3   67 1   
     7    4   36 1   
     8    4   37 1   
     9    4   38 1   
    10    5    6 2   
    11    5   10 1   
    12    6    7 1   
    13    7    8 1   
    14    7    9 1   
    15    8   39 1   
    16    8   40 1   
    17    8   41 1   
    18    9   10 2   
    19    9   11 1   
    20   10   14 1   
    21   11   12 ar  
    22   11   17 ar  
    23   12   13 1   
    24   12   20 ar  
    25   13   14 1   
    26   13   42 1   
    27   13   43 1   
    28   14   15 1   
    29   14   16 1   
    30   15   45 1   
    31   15   46 1   
    32   15   47 1   
    33   16   48 1   
    34   16   49 1   
    35   16   50 1   
    36   17   18 ar  
    37   18   19 ar  
    38   18   21 1   
    39   19   20 ar  
    40   20   44 1   
    41   21   22 1   
    42   21   51 1   
    43   21   68 1   
    44   22   23 ar  
    45   22   27 ar  
    46   23   24 ar  
    47   23   52 1   
    48   24   25 ar  
    49   24   54 1   
    50   25   26 ar  
    51   25   28 1   
    52   26   27 ar  
    53   26   55 1   
    54   27   53 1   
    55   28   29 1   
    56   28   34 1   
    57   29   30 1   
    58   29   56 1   
    59   29   57 1   
    60   30   31 1   
    61   30   60 1   
    62   30   61 1   
    63   31   32 1   
    64   31   33 1   
    65   32   62 1   
    66   32   63 1   
    67   32   64 1   
    68   33   34 1   
    69   33   65 1   
    70   33   66 1   
    71   34   58 1   
    72   34   59 1   
@<TRIPOS>SUBSTRUCTURE
     1 P48         1 TEMP              0 ****  ****    0 ROOT
