@<TRIPOS>MOLECULE
P48
   67    71     1     0     0
SMALL
bcc


@<TRIPOS>ATOM
      1 O1          0.7440    0.7210    0.8970 o         1 P48     -0.424100
      2 C2          1.5950    0.0580    0.3260 c         1 P48      0.511600
      3 N3          2.0870   -1.1790    1.0870 n4        1 P48     -0.670800
      4 C4          1.5550   -1.2690    2.4620 c3        1 P48      0.082100
      5 C5          2.2070    0.2390   -0.9700 cc        1 P48      0.164800
      6 N6          2.8600   -0.7980   -1.6350 nd        1 P48     -0.515800
      7 N7          3.2120   -0.3520   -2.8190 na        1 P48      0.217400
      8 C8          3.9050   -1.1610   -3.8120 c3        1 P48      0.020600
      9 C9          2.8280    0.9890   -2.9980 cd        1 P48     -0.169800
     10 C10         2.1870    1.4160   -1.8050 cc        1 P48     -0.083600
     11 C11         2.9500    1.8380   -4.1760 ca        1 P48      0.533800
     12 C12         2.5690    3.1850   -3.9890 ca        1 P48     -0.350900
     13 C13         2.2280    3.7560   -2.6700 c3        1 P48     -0.015100
     14 C14         1.6450    2.7860   -1.6210 c3        1 P48      0.014300
     15 C15         2.0080    3.3460   -0.2470 c3        1 P48     -0.095600
     16 C16         0.1240    2.7380   -1.7530 c3        1 P48     -0.095600
     17 N17         3.3620    1.3300   -5.3580 nb        1 P48     -0.779000
     18 C18         3.3640    2.2100   -6.4380 ca        1 P48      0.891900
     19 N19         2.9920    3.5560   -6.3500 nb        1 P48     -0.701000
     20 C20         2.6150    3.9970   -5.1510 ca        1 P48      0.479200
     21 N21         3.6900    1.6690   -7.6840 nh        1 P48     -0.691300
     22 C22         4.0370    2.4860   -8.7920 ca        1 P48      0.060600
     23 C23         5.3120    2.3680   -9.3840 ca        1 P48     -0.093500
     24 C24         5.6430    3.1030  -10.5100 ca        1 P48     -0.170000
     25 C25         4.7180    4.0030  -11.0970 ca        1 P48      0.164600
     26 C26         3.4430    4.1080  -10.4960 ca        1 P48     -0.170000
     27 C27         3.1080    3.3700   -9.3680 ca        1 P48     -0.093500
     28 N28         5.1140    4.8140  -12.1810 nh        1 P48     -0.639000
     29 C29         4.1710    5.8320  -12.6150 c3        1 P48      0.188800
     30 C30         4.7730    6.7970  -13.6560 c3        1 P48      0.164300
     31 N31         5.4020    6.1050  -14.7710 n3        1 P48     -0.732600
     32 C32         5.9530    7.0140  -15.7510 c3        1 P48      0.156100
     33 C33         6.3680    5.1160  -14.3190 c3        1 P48      0.164300
     34 C34         5.7800    4.1360  -13.2840 c3        1 P48      0.188800
     35 H3          1.8070   -2.0110    0.5530 hn        1 P48      0.464800
     36 H41C        0.4310   -1.2980    2.4290 hx        1 P48      0.109700
     37 H42C        1.8730   -0.3640    3.0460 hx        1 P48      0.109700
     38 H43C        1.9480   -2.2000    2.9500 hx        1 P48      0.109700
     39 H81C        3.2230   -1.3010   -4.6950 h1        1 P48      0.092700
     40 H82C        4.8310   -0.6120   -4.1320 h1        1 P48      0.092700
     41 H83C        4.1820   -2.1600   -3.3840 h1        1 P48      0.092700
     42 H131        1.4940    4.5980   -2.8040 hc        1 P48      0.068200
     43 H132        3.1710    4.2100   -2.2490 hc        1 P48      0.068200
     44 H20         2.3300    5.0660   -5.1020 h4        1 P48      0.042100
     45 H151        1.4510    2.8140    0.5590 hc        1 P48      0.050533
     46 H152        1.7290    4.4280   -0.2030 hc        1 P48      0.050533
     47 H153        3.1040    3.2540   -0.0600 hc        1 P48      0.050533
     48 H161       -0.1700    2.4140   -2.7800 hc        1 P48      0.050533
     49 H162       -0.3050    2.0250   -1.0080 hc        1 P48      0.050533
     50 H163       -0.3030    3.7520   -1.5600 hc        1 P48      0.050533
     51 H21         4.1420    0.7780   -7.6680 hn        1 P48      0.441800
     52 H23         6.0640    1.6840   -8.9580 ha        1 P48      0.139000
     53 H27         2.1020    3.4850   -8.9360 ha        1 P48      0.139000
     54 H24         6.6550    2.9890  -10.9300 ha        1 P48      0.143000
     55 H26         2.6760    4.7790  -10.9160 ha        1 P48      0.143000
     56 H291        3.8770    6.4460  -11.7180 h1        1 P48      0.045700
     57 H292        3.2400    5.3660  -13.0510 h1        1 P48      0.045700
     58 H341        6.6330    3.5260  -12.8800 h1        1 P48      0.045700
     59 H342        5.0660    3.4380  -13.8100 h1        1 P48      0.045700
     60 H301        3.9300    7.4200  -14.0670 h1        1 P48      0.042450
     61 H302        5.4950    7.4900  -13.1320 h1        1 P48      0.042450
     62 H321        6.7890    7.6500  -15.3490 h1        1 P48      0.036700
     63 H322        6.3420    6.4170  -16.6170 h1        1 P48      0.036700
     64 H323        5.1350    7.6890  -16.1160 h1        1 P48      0.036700
     65 H331        6.6890    4.5110  -15.2130 h1        1 P48      0.042450
     66 H332        7.2880    5.6000  -13.8780 h1        1 P48      0.042450
     67 H32         3.1120   -1.1510    1.1110 hn        1 P48      0.464800
@<TRIPOS>BOND
     1    1    2 2   
     2    2    3 1   
     3    2    5 1   
     4    3    4 1   
     5    3   35 1   
     6    3   67 1   
     7    4   36 1   
     8    4   37 1   
     9    4   38 1   
    10    5    6 2   
    11    5   10 1   
    12    6    7 1   
    13    7    8 1   
    14    7    9 1   
    15    8   39 1   
    16    8   40 1   
    17    8   41 1   
    18    9   10 2   
    19    9   11 1   
    20   10   14 1   
    21   11   12 ar  
    22   11   17 ar  
    23   12   13 1   
    24   12   20 ar  
    25   13   14 1   
    26   13   42 1   
    27   13   43 1   
    28   14   15 1   
    29   14   16 1   
    30   15   45 1   
    31   15   46 1   
    32   15   47 1   
    33   16   48 1   
    34   16   49 1   
    35   16   50 1   
    36   17   18 ar  
    37   18   19 ar  
    38   18   21 1   
    39   19   20 ar  
    40   20   44 1   
    41   21   22 1   
    42   21   51 1   
    43   22   23 ar  
    44   22   27 ar  
    45   23   24 ar  
    46   23   52 1   
    47   24   25 ar  
    48   24   54 1   
    49   25   26 ar  
    50   25   28 1   
    51   26   27 ar  
    52   26   55 1   
    53   27   53 1   
    54   28   29 1   
    55   28   34 1   
    56   29   30 1   
    57   29   56 1   
    58   29   57 1   
    59   30   31 1   
    60   30   60 1   
    61   30   61 1   
    62   31   32 1   
    63   31   33 1   
    64   32   62 1   
    65   32   63 1   
    66   32   64 1   
    67   33   34 1   
    68   33   65 1   
    69   33   66 1   
    70   34   58 1   
    71   34   59 1   
@<TRIPOS>SUBSTRUCTURE
     1 P48         1 TEMP              0 ****  ****    0 ROOT
