@<TRIPOS>MOLECULE
P48
   67    71     1     0     0
SMALL
bcc


@<TRIPOS>ATOM
      1 O1          0.7330    0.6990    0.8870 o         1 P48     -0.424100
      2 C2          1.5980    0.0480    0.3230 c         1 P48      0.511600
      3 N3          2.1040   -1.1780    1.0900 ny        1 P48     -0.670800
      4 C4          1.5660   -1.2720    2.4620 c3        1 P48      0.082100
      5 C5          2.2140    0.2350   -0.9700 cc        1 P48      0.164800
      6 N6          2.8880   -0.7930   -1.6280 nd        1 P48     -0.515800
      7 N7          3.2400   -0.3450   -2.8120 na        1 P48      0.217400
      8 C8          3.9520   -1.1460   -3.7980 c3        1 P48      0.020600
      9 C9          2.8360    0.9900   -2.9960 cd        1 P48     -0.169800
     10 C10         2.1810    1.4090   -1.8090 cc        1 P48     -0.083600
     11 C11         2.9510    1.8360   -4.1760 ca        1 P48      0.533800
     12 C12         2.5480    3.1780   -3.9960 ca        1 P48     -0.350900
     13 C13         2.1890    3.7470   -2.6810 c3        1 P48     -0.015100
     14 C14         1.6160    2.7710   -1.6320 c3        1 P48      0.014300
     15 C15         1.9610    3.3410   -0.2580 c3        1 P48     -0.095600
     16 C16         0.0960    2.6980   -1.7740 c3        1 P48     -0.095600
     17 N17         3.3800    1.3320   -5.3540 nb        1 P48     -0.779000
     18 C18         3.3750    2.2080   -6.4360 ca        1 P48      0.891900
     19 N19         2.9800    3.5480   -6.3550 nb        1 P48     -0.701000
     20 C20         2.5880    3.9860   -5.1600 ca        1 P48      0.479200
     21 N21         3.7170    1.6690   -7.6790 nu        1 P48     -0.691300
     22 C22         4.0570    2.4880   -8.7870 ca        1 P48      0.060600
     23 C23         5.3380    2.3890   -9.3710 ca        1 P48     -0.093500
     24 C24         5.6640    3.1270  -10.4970 ca        1 P48     -0.170000
     25 C25         4.7280    4.0100  -11.0930 ca        1 P48      0.164600
     26 C26         3.4470    4.0960  -10.5010 ca        1 P48     -0.170000
     27 C27         3.1180    3.3550   -9.3720 ca        1 P48     -0.093500
     28 N28         5.1170    4.8240  -12.1770 nh        1 P48     -0.639000
     29 C29         4.1600    5.8250  -12.6200 c3        1 P48      0.188800
     30 C30         4.7530    6.7970  -13.6600 c3        1 P48      0.164300
     31 N31         5.3990    6.1130  -14.7690 n3        1 P48     -0.732600
     32 C32         5.9420    7.0280  -15.7470 c3        1 P48      0.156100
     33 C33         6.3790    5.1410  -14.3070 c3        1 P48      0.164300
     34 C34         5.8000    4.1540  -13.2730 c3        1 P48      0.188800
     35 H3          1.8410   -2.0160    0.5570 hn        1 P48      0.464800
     36 H41C        0.4430   -1.3200    2.4230 hx        1 P48      0.109700
     37 H42C        1.9710   -2.1960    2.9560 hx        1 P48      0.109700
     38 H43C        1.8660   -0.3610    3.0460 hx        1 P48      0.109700
     39 H81C        4.2430   -2.1390   -3.3640 h1        1 P48      0.092700
     40 H82C        4.8720   -0.5830   -4.1130 h1        1 P48      0.092700
     41 H83C        3.2780   -1.3000   -4.6840 h1        1 P48      0.092700
     42 H131        3.1230    4.2170   -2.2550 hc        1 P48      0.068200
     43 H132        1.4420    4.5760   -2.8220 hc        1 P48      0.068200
     44 H20         2.2860    5.0510   -5.1160 h4        1 P48      0.042100
     45 H151        3.0580    3.2670   -0.0640 hc        1 P48      0.050533
     46 H152        1.6650    4.4180   -0.2180 hc        1 P48      0.050533
     47 H153        1.4080    2.8020    0.5460 hc        1 P48      0.050533
     48 H161       -0.3480    3.7060   -1.5860 hc        1 P48      0.050533
     49 H162       -0.3250    1.9800   -1.0280 hc        1 P48      0.050533
     50 H163       -0.1860    2.3660   -2.8010 hc        1 P48      0.050533
     51 H21         4.1840    0.7850   -7.6570 hn        1 P48      0.441800
     52 H23         6.0980    1.7200   -8.9380 ha        1 P48      0.139000
     53 H27         2.1070    3.4540   -8.9460 ha        1 P48      0.139000
     54 H24         6.6800    3.0290  -10.9100 ha        1 P48      0.143000
     55 H26         2.6720    4.7520  -10.9270 ha        1 P48      0.143000
     56 H291        3.2390    5.3430  -13.0600 h1        1 P48      0.045700
     57 H292        3.8500    6.4370  -11.7260 h1        1 P48      0.045700
     58 H341        6.6610    3.5590  -12.8620 h1        1 P48      0.045700
     59 H342        5.1020    3.4430  -13.8020 h1        1 P48      0.045700
     60 H301        5.4600    7.5030  -13.1330 h1        1 P48      0.042450
     61 H302        3.9020    7.4050  -14.0770 h1        1 P48      0.042450
     62 H321        6.7650    7.6780  -15.3420 h1        1 P48      0.036700
     63 H322        5.1150    7.6880  -16.1190 h1        1 P48      0.036700
     64 H323        6.3460    6.4350  -16.6090 h1        1 P48      0.036700
     65 H331        7.2880    5.6410  -13.8620 h1        1 P48      0.042450
     66 H332        6.7150    4.5390  -15.1980 h1        1 P48      0.042450
     67 H32         3.1290   -1.1340    1.1200 hn        1 P48      0.464800
@<TRIPOS>BOND
     1    1    2 2   
     2    2    3 1   
     3    2    5 1   
     4    3    4 1   
     5    3   35 1   
     6    3   67 1   
     7    4   36 1   
     8    4   37 1   
     9    4   38 1   
    10    5    6 2   
    11    5   10 1   
    12    6    7 1   
    13    7    8 1   
    14    7    9 1   
    15    8   39 1   
    16    8   40 1   
    17    8   41 1   
    18    9   10 2   
    19    9   11 1   
    20   10   14 1   
    21   11   12 ar  
    22   11   17 ar  
    23   12   13 1   
    24   12   20 ar  
    25   13   14 1   
    26   13   42 1   
    27   13   43 1   
    28   14   15 1   
    29   14   16 1   
    30   15   45 1   
    31   15   46 1   
    32   15   47 1   
    33   16   48 1   
    34   16   49 1   
    35   16   50 1   
    36   17   18 ar  
    37   18   19 ar  
    38   18   21 1   
    39   19   20 ar  
    40   20   44 1   
    41   21   22 1   
    42   21   51 1   
    43   22   23 ar  
    44   22   27 ar  
    45   23   24 ar  
    46   23   52 1   
    47   24   25 ar  
    48   24   54 1   
    49   25   26 ar  
    50   25   28 1   
    51   26   27 ar  
    52   26   55 1   
    53   27   53 1   
    54   28   29 1   
    55   28   34 1   
    56   29   30 1   
    57   29   56 1   
    58   29   57 1   
    59   30   31 1   
    60   30   60 1   
    61   30   61 1   
    62   31   32 1   
    63   31   33 1   
    64   32   62 1   
    65   32   63 1   
    66   32   64 1   
    67   33   34 1   
    68   33   65 1   
    69   33   66 1   
    70   34   58 1   
    71   34   59 1   
@<TRIPOS>SUBSTRUCTURE
     1 P48         1 TEMP              0 ****  ****    0 ROOT
