@<TRIPOS>MOLECULE
P49
   38    33     1     0     0
SMALL
bcc


@<TRIPOS>ATOM
      1 C1         -1.3410   -0.3220   -2.2810 c1        1 P49     -0.025000
      2 N2         -0.0100   -0.1760   -2.3950 n1        1 P49     -0.240000
      3 C3          0.7780    0.1460   -1.2490 c1        1 P49      0.127000
      4 N4          0.1620    0.3120    0.0040 n1        1 P49     -0.221000
      5 C5         -1.9670   -0.1560   -1.0190 c1        1 P49     -0.190000
      6 C6         -1.1900    0.1640    0.1240 c1        1 P49      0.153000
      7 C7         -4.0300   -0.2490    0.3850 c3        1 P49     -0.099000
      8 C8         -3.4230   -0.2330   -0.9180 c3        1 P49     -0.101000
      9 C9         -3.1560   -0.1550    1.5910 c2        1 P49     -0.092000
     10 C10        -1.8080    0.1610    1.4520 c1        1 P49     -0.130500
     11 N11        -1.2790    0.2750    2.6790 n2        1 P49     -0.079000
     12 N12        -2.2910    0.0310    3.6160 n2        1 P49     -0.079000
     13 C13        -3.4360   -0.2320    2.9380 c1        1 P49     -0.130500
     14 C14        -0.3940    1.1740    3.4220 c2        1 P49     -0.045000
     15 N15         1.8260   -0.7260   -1.6970 n3        1 P49     -0.225000
     16 C16         3.1950   -0.2040   -1.8540 c2        1 P49      0.060000
     17 C17         4.2320   -0.8730   -1.3280 c2        1 P49     -0.179000
     18 C18         5.5280   -0.4240   -1.5420 c1        1 P49     -0.119000
     19 C19         5.7520    0.7140   -2.2990 c1        1 P49     -0.136500
     20 C20         4.6800    1.4110   -2.8460 c1        1 P49     -0.136500
     21 C21         3.4290    0.9820   -2.6430 c1        1 P49     -0.110000
     22 C22        -3.9700   -1.2030    3.9220 c1        1 P49      0.395000
     23 O23        -3.7010   -2.3600    3.8220 o         1 P49     -0.548000
     24 O24        -4.7100   -0.8020    4.8740 o         1 P49     -0.548000
     25 H1         -1.8690   -0.5410   -3.0530 ha        1 P49      0.153000
     26 H15         1.6550   -1.6840   -1.7960 hn        1 P49      0.217000
     27 H81C       -3.7650    0.4800   -1.3690 hc        1 P49      0.081000
     28 H82C       -3.7200   -1.0770   -1.4040 hc        1 P49      0.081000
     29 H71C       -4.6820    0.5220    0.4240 hc        1 P49      0.119500
     30 H72C       -4.5650   -1.1210    0.4630 hc        1 P49      0.119500
     31 H141       -0.2360    0.8140    4.2990 ha        1 P49      0.086667
     32 H142       -0.7780    1.9780    3.4970 ha        1 P49      0.086667
     33 H143        0.4620    1.2630    2.9420 ha        1 P49      0.086667
     34 H17         4.0670   -1.7270   -0.7640 ha        1 P49      0.126000
     35 H21         2.7030    1.4990   -2.9360 ha        1 P49      0.162000
     36 H18         6.3020   -0.9520   -1.1950 ha        1 P49      0.123000
     37 H19         6.7030    1.0400   -2.4530 ha        1 P49      0.128000
     38 H20         4.8480    2.2510   -3.4110 ha        1 P49      0.128000
@<TRIPOS>BOND
     1    1    5 1   
     2    1   25 1   
     3    2    3 1   
     4    3   15 1   
     5    4    6 1   
     6    5    8 1   
     7    7    8 1   
     8    7    9 1   
     9    7   29 1   
    10    7   30 1   
    11    8   27 1   
    12    8   28 1   
    13    9   10 1   
    14    9   13 1   
    15   10   11 1   
    16   11   12 1   
    17   12   13 1   
    18   14   31 1   
    19   14   32 1   
    20   14   33 1   
    21   15   16 1   
    22   15   26 1   
    23   16   17 1   
    24   16   21 1   
    25   17   18 1   
    26   17   34 1   
    27   18   36 1   
    28   19   20 1   
    29   19   37 1   
    30   20   38 1   
    31   21   35 1   
    32   22   23 1   
    33   22   24 1   
@<TRIPOS>SUBSTRUCTURE
     1 P49         1 TEMP              0 ****  ****    0 ROOT
