@<TRIPOS>MOLECULE
P49
   39    42     1     0     0
SMALL
bcc


@<TRIPOS>ATOM
      1 C1         -0.1210    2.1640    0.4710 ca        1 P49      0.421200
      2 N2          1.2110    2.2190    0.2160 nb        1 P49     -0.706000
      3 C3          1.9750    1.4420    1.0340 ca        1 P49      0.698900
      4 N4          1.5750    0.6170    2.0520 nb        1 P49     -0.728000
      5 C5         -0.6820    1.3710    1.4780 ca        1 P49     -0.237900
      6 C6          0.2300    0.5720    2.2660 ca        1 P49      0.607800
      7 C7         -2.7060    0.1230    2.3610 c3        1 P49     -0.030100
      8 C8         -2.1400    1.4010    1.7600 c3        1 P49     -0.038100
      9 C9         -1.7640   -0.4990    3.2890 cc        1 P49     -0.109600
     10 C10        -0.3570   -0.2840    3.2410 cd        1 P49     -0.312800
     11 N11         0.2000   -1.0930    4.2570 na        1 P49      0.104400
     12 N12        -0.7610   -1.7480    4.9200 nd        1 P49     -0.424800
     13 C13        -1.9690   -1.4350    4.3650 cc        1 P49      0.278800
     14 C14         1.5940   -1.1210    4.6090 c3        1 P49      0.051600
     15 N15         3.4560    1.4690    0.7790 n4        1 P49     -0.608100
     16 C16         3.8770    0.3170   -0.0250 ca        1 P49     -0.041400
     17 C17         4.1490    0.4920   -1.3940 ca        1 P49     -0.091500
     18 C18         4.5580   -0.6060   -2.1470 ca        1 P49     -0.111500
     19 C19         4.6870   -1.8630   -1.5530 ca        1 P49     -0.080000
     20 C20         4.4040   -2.0300   -0.1970 ca        1 P49     -0.111500
     21 C21         3.9940   -0.9470    0.5790 ca        1 P49     -0.091500
     22 C22        -3.3520   -1.9480    4.8010 c         1 P49      0.841100
     23 O23        -3.4060   -2.9850    5.4960 o         1 P49     -0.786800
     24 O24        -4.3190   -1.2550    4.3860 o         1 P49     -0.786800
     25 H1         -0.7470    2.8010   -0.1840 h4        1 P49      0.051100
     26 H15         3.9430    1.4430    1.6840 hn        1 P49      0.466800
     27 H81C       -2.3210    2.2490    2.4810 hc        1 P49      0.066700
     28 H82C       -2.7020    1.6410    0.8180 hc        1 P49      0.066700
     29 H71C       -3.6740    0.3300    2.9080 hc        1 P49      0.106700
     30 H72C       -2.9560   -0.6130    1.5460 hc        1 P49      0.106700
     31 H141        1.7550   -1.7680    5.5130 h1        1 P49      0.049033
     32 H142        1.9490   -0.0800    4.8310 h1        1 P49      0.049033
     33 H143        2.1860   -1.5360    3.7490 h1        1 P49      0.049033
     34 H17         4.0350    1.4740   -1.8810 ha        1 P49      0.164000
     35 H21         3.7500   -1.0990    1.6440 ha        1 P49      0.164000
     36 H18         4.7740   -0.4760   -3.2200 ha        1 P49      0.163500
     37 H19         5.0050   -2.7270   -2.1590 ha        1 P49      0.161000
     38 H20         4.4940   -3.0250    0.2690 ha        1 P49      0.163500
     39 H152        3.6920    2.3390    0.2850 hn        1 P49      0.466800
@<TRIPOS>BOND
     1    1    2 ar  
     2    1    5 ar  
     3    1   25 1   
     4    2    3 ar  
     5    3    4 ar  
     6    3   15 1   
     7    4    6 ar  
     8    5    6 ar  
     9    5    8 1   
    10    6   10 1   
    11    7    8 1   
    12    7    9 1   
    13    7   29 1   
    14    7   30 1   
    15    8   27 1   
    16    8   28 1   
    17    9   10 2   
    18    9   13 1   
    19   10   11 1   
    20   11   12 1   
    21   11   14 1   
    22   12   13 2   
    23   13   22 1   
    24   14   31 1   
    25   14   32 1   
    26   14   33 1   
    27   15   16 1   
    28   15   26 1   
    29   15   39 1   
    30   16   17 ar  
    31   16   21 ar  
    32   17   18 ar  
    33   17   34 1   
    34   18   19 ar  
    35   18   36 1   
    36   19   20 ar  
    37   19   37 1   
    38   20   21 ar  
    39   20   38 1   
    40   21   35 1   
    41   22   23 1   
    42   22   24 1   
@<TRIPOS>SUBSTRUCTURE
     1 P49         1 TEMP              0 ****  ****    0 ROOT
