@<TRIPOS>MOLECULE
P49
   38    41     1     0     0
SMALL
bcc


@<TRIPOS>ATOM
      1 C1         -0.1900   -0.4840   -0.0290 ca        1 P49      0.435200
      2 N2          1.1450   -0.5850   -0.1800 nb        1 P49     -0.749000
      3 C3          1.8910   -0.5110    0.9790 ca        1 P49      0.842900
      4 N4          1.3700   -0.3380    2.2540 nb        1 P49     -0.761000
      5 C5         -0.8320   -0.3150    1.2050 ca        1 P49     -0.323900
      6 C6          0.0240   -0.2600    2.3530 ca        1 P49      0.590800
      7 C7         -2.9290   -0.5520    2.6150 c3        1 P49     -0.013100
      8 C8         -2.3030   -0.1320    1.2920 c3        1 P49     -0.016100
      9 C9         -2.0490   -0.2540    3.7450 cc        1 P49     -0.163600
     10 C10        -0.6460   -0.1280    3.6250 cd        1 P49     -0.261800
     11 N11        -0.1570    0.1320    4.9180 na        1 P49      0.098400
     12 N12        -1.1630    0.1800    5.8090 nd        1 P49     -0.475800
     13 C13        -2.3320   -0.0500    5.1480 cc        1 P49      0.286800
     14 C14         1.2290    0.3210    5.2490 c3        1 P49      0.054600
     15 N15         3.3060   -0.6880    0.9140 nu        1 P49     -0.700300
     16 C16         4.0270   -0.3410   -0.2510 ca        1 P49      0.138600
     17 C17         5.0820    0.5990   -0.1720 ca        1 P49     -0.142000
     18 C18         5.8660    0.8740   -1.2870 ca        1 P49     -0.121500
     19 C19         5.6190    0.2360   -2.5010 ca        1 P49     -0.153000
     20 C20         4.5820   -0.6910   -2.5900 ca        1 P49     -0.121500
     21 C21         3.7930   -0.9890   -1.4830 ca        1 P49     -0.142000
     22 C22        -3.7310   -0.0680    5.7580 c         1 P49      0.836100
     23 O23        -3.8610   -0.3940    6.9640 o         1 P49     -0.812800
     24 O24        -4.6770    0.2360    4.9780 o         1 P49     -0.812800
     25 H1         -0.7720   -0.5410   -0.9680 h4        1 P49      0.017100
     26 H15         3.7680   -0.4010    1.7570 hn        1 P49      0.421800
     27 H81C       -2.5180    0.9610    1.1230 hc        1 P49      0.042200
     28 H82C       -2.8000   -0.6980    0.4590 hc        1 P49      0.042200
     29 H71C       -3.1430   -1.6570    2.6000 hc        1 P49      0.080700
     30 H72C       -3.9160   -0.0290    2.7710 hc        1 P49      0.080700
     31 H141        1.3410    0.5700    6.3370 h1        1 P49      0.046033
     32 H142        1.6500    1.1600    4.6320 h1        1 P49      0.046033
     33 H143        1.8000   -0.6190    5.0240 h1        1 P49      0.046033
     34 H17         5.2910    1.1200    0.7750 ha        1 P49      0.144000
     35 H21         2.9860   -1.7330   -1.5780 ha        1 P49      0.144000
     36 H18         6.6830    1.6070   -1.2070 ha        1 P49      0.125500
     37 H19         6.2370    0.4630   -3.3800 ha        1 P49      0.124000
     38 H20         4.3830   -1.1990   -3.5450 ha        1 P49      0.125500
@<TRIPOS>BOND
     1    1    2 ar  
     2    1    5 ar  
     3    1   25 1   
     4    2    3 ar  
     5    3    4 ar  
     6    3   15 1   
     7    4    6 ar  
     8    5    6 ar  
     9    5    8 1   
    10    6   10 1   
    11    7    8 1   
    12    7    9 1   
    13    7   29 1   
    14    7   30 1   
    15    8   27 1   
    16    8   28 1   
    17    9   10 2   
    18    9   13 1   
    19   10   11 1   
    20   11   12 1   
    21   11   14 1   
    22   12   13 2   
    23   13   22 1   
    24   14   31 1   
    25   14   32 1   
    26   14   33 1   
    27   15   16 1   
    28   15   26 1   
    29   16   17 ar  
    30   16   21 ar  
    31   17   18 ar  
    32   17   34 1   
    33   18   19 ar  
    34   18   36 1   
    35   19   20 ar  
    36   19   37 1   
    37   20   21 ar  
    38   20   38 1   
    39   21   35 1   
    40   22   23 1   
    41   22   24 1   
@<TRIPOS>SUBSTRUCTURE
     1 P49         1 TEMP              0 ****  ****    0 ROOT
