@<TRIPOS>MOLECULE
P49
   38    41     1     0     0
SMALL
bcc


@<TRIPOS>ATOM
      1 C1         -0.9040   -2.1010    0.0630 ca        1 P49      0.435200
      2 N2         -2.0130   -1.3860   -0.2100 nb        1 P49     -0.749000
      3 C3         -1.8290   -0.0300   -0.3890 ca        1 P49      0.842900
      4 N4         -0.6090    0.6280   -0.3010 nb        1 P49     -0.761000
      5 C5          0.3810   -1.5510    0.1690 ca        1 P49     -0.323900
      6 C6          0.4750   -0.1360   -0.0420 ca        1 P49      0.590800
      7 C7          2.8970   -1.8680    0.0650 c3        1 P49     -0.013100
      8 C8          1.5490   -2.3840    0.5500 c3        1 P49     -0.016100
      9 C9          2.9530   -0.4070    0.0900 cc        1 P49     -0.163600
     10 C10         1.8060    0.4170    0.0260 cd        1 P49     -0.261800
     11 N11         2.2680    1.7460    0.0520 na        1 P49      0.098400
     12 N12         3.6090    1.7850    0.1340 nd        1 P49     -0.475800
     13 C13         4.0740    0.5040    0.1590 cc        1 P49      0.286800
     14 C14         1.4240    2.9090   -0.0030 c3        1 P49      0.054600
     15 N15        -2.9390    0.7860   -0.7580 nh        1 P49     -0.700300
     16 C16        -4.2550    0.4350   -0.3770 ca        1 P49      0.138600
     17 C17        -5.0320    1.3400    0.3840 ca        1 P49     -0.142000
     18 C18        -6.3610    1.0530    0.6790 ca        1 P49     -0.121500
     19 C19        -6.9430   -0.1340    0.2380 ca        1 P49     -0.153000
     20 C20        -6.1860   -1.0320   -0.5110 ca        1 P49     -0.121500
     21 C21        -4.8590   -0.7590   -0.8280 ca        1 P49     -0.142000
     22 C22         5.5340    0.0710    0.2670 c         1 P49      0.836100
     23 O23         6.4260    0.8310   -0.1830 o         1 P49     -0.812800
     24 O24         5.7360   -1.0570    0.7990 o         1 P49     -0.812800
     25 H1         -1.0710   -3.1840    0.2070 h4        1 P49      0.017100
     26 H15        -2.7510    1.7650   -0.6470 hn        1 P49      0.421800
     27 H81C        1.5700   -2.4430    1.6750 hc        1 P49      0.042200
     28 H82C        1.4020   -3.4310    0.1690 hc        1 P49      0.042200
     29 H71C        3.7320   -2.2800    0.7010 hc        1 P49      0.080700
     30 H72C        3.0820   -2.2230   -0.9870 hc        1 P49      0.080700
     31 H141        0.6790    2.8700    0.8350 h1        1 P49      0.046033
     32 H142        2.0390    3.8420    0.0900 h1        1 P49      0.046033
     33 H143        0.8720    2.9260   -0.9810 h1        1 P49      0.046033
     34 H17        -4.5910    2.2800    0.7470 ha        1 P49      0.144000
     35 H21        -4.2860   -1.4820   -1.4300 ha        1 P49      0.144000
     36 H18        -6.9510    1.7690    1.2700 ha        1 P49      0.125500
     37 H19        -7.9910   -0.3590    0.4810 ha        1 P49      0.124000
     38 H20        -6.6410   -1.9700   -0.8640 ha        1 P49      0.125500
@<TRIPOS>BOND
     1    1    2 ar  
     2    1    5 ar  
     3    1   25 1   
     4    2    3 ar  
     5    3    4 ar  
     6    3   15 1   
     7    4    6 ar  
     8    5    6 ar  
     9    5    8 1   
    10    6   10 1   
    11    7    8 1   
    12    7    9 1   
    13    7   29 1   
    14    7   30 1   
    15    8   27 1   
    16    8   28 1   
    17    9   10 2   
    18    9   13 1   
    19   10   11 1   
    20   11   12 1   
    21   11   14 1   
    22   12   13 2   
    23   13   22 1   
    24   14   31 1   
    25   14   32 1   
    26   14   33 1   
    27   15   16 1   
    28   15   26 1   
    29   16   17 ar  
    30   16   21 ar  
    31   17   18 ar  
    32   17   34 1   
    33   18   19 ar  
    34   18   36 1   
    35   19   20 ar  
    36   19   37 1   
    37   20   21 ar  
    38   20   38 1   
    39   21   35 1   
    40   22   23 1   
    41   22   24 1   
@<TRIPOS>SUBSTRUCTURE
     1 P49         1 TEMP              0 ****  ****    0 ROOT
