@<TRIPOS>MOLECULE
P49
   38    41     1     0     0
SMALL
bcc


@<TRIPOS>ATOM
      1 C1         -0.1920   -0.4700   -0.0310 ca        1 P49      0.435200
      2 N2          1.1430   -0.5730   -0.1830 nb        1 P49     -0.749000
      3 C3          1.8900   -0.5090    0.9760 ca        1 P49      0.842900
      4 N4          1.3700   -0.3440    2.2520 nb        1 P49     -0.761000
      5 C5         -0.8330   -0.3070    1.2040 ca        1 P49     -0.323900
      6 C6          0.0250   -0.2620    2.3530 ca        1 P49      0.590800
      7 C7         -2.9300   -0.5480    2.6140 c3        1 P49     -0.013100
      8 C8         -2.3030   -0.1210    1.2940 c3        1 P49     -0.016100
      9 C9         -2.0480   -0.2600    3.7450 cc        1 P49     -0.163600
     10 C10        -0.6440   -0.1370    3.6260 cd        1 P49     -0.261800
     11 N11        -0.1540    0.1130    4.9200 na        1 P49      0.098400
     12 N12        -1.1590    0.1580    5.8120 nd        1 P49     -0.475800
     13 C13        -2.3300   -0.0640    5.1500 cc        1 P49      0.286800
     14 C14         1.2320    0.2960    5.2520 c3        1 P49      0.054600
     15 N15         3.3040   -0.6890    0.9090 nh        1 P49     -0.700300
     16 C16         4.0250   -0.3370   -0.2550 ca        1 P49      0.138600
     17 C17         5.0820    0.6000   -0.1700 ca        1 P49     -0.142000
     18 C18         5.8670    0.8810   -1.2830 ca        1 P49     -0.121500
     19 C19         5.6170    0.2520   -2.5010 ca        1 P49     -0.153000
     20 C20         4.5780   -0.6720   -2.5960 ca        1 P49     -0.121500
     21 C21         3.7890   -0.9760   -1.4900 ca        1 P49     -0.142000
     22 C22        -3.7290   -0.0830    5.7610 c         1 P49      0.836100
     23 O23        -3.8590   -0.4170    6.9650 o         1 P49     -0.812800
     24 O24        -4.6740    0.2300    4.9830 o         1 P49     -0.812800
     25 H1         -0.7740   -0.5190   -0.9690 h4        1 P49      0.017100
     26 H15         3.7670   -0.4090    1.7540 hn        1 P49      0.421800
     27 H81C       -2.8020   -0.6800    0.4580 hc        1 P49      0.042200
     28 H82C       -2.5150    0.9740    1.1330 hc        1 P49      0.042200
     29 H71C       -3.9150   -0.0230    2.7740 hc        1 P49      0.080700
     30 H72C       -3.1470   -1.6510    2.5920 hc        1 P49      0.080700
     31 H141        1.6550    1.1380    4.6400 h1        1 P49      0.046033
     32 H142        1.3450    0.5370    6.3410 h1        1 P49      0.046033
     33 H143        1.8010   -0.6440    5.0200 h1        1 P49      0.046033
     34 H17         5.2940    1.1140    0.7810 ha        1 P49      0.144000
     35 H21         2.9810   -1.7170   -1.5900 ha        1 P49      0.144000
     36 H18         6.6850    1.6110   -1.1990 ha        1 P49      0.125500
     37 H19         6.2350    0.4830   -3.3790 ha        1 P49      0.124000
     38 H20         4.3770   -1.1740   -3.5540 ha        1 P49      0.125500
@<TRIPOS>BOND
     1    1    2 ar  
     2    1    5 ar  
     3    1   25 1   
     4    2    3 ar  
     5    3    4 ar  
     6    3   15 1   
     7    4    6 ar  
     8    5    6 ar  
     9    5    8 1   
    10    6   10 1   
    11    7    8 1   
    12    7    9 1   
    13    7   29 1   
    14    7   30 1   
    15    8   27 1   
    16    8   28 1   
    17    9   10 2   
    18    9   13 1   
    19   10   11 1   
    20   11   12 1   
    21   11   14 1   
    22   12   13 2   
    23   13   22 1   
    24   14   31 1   
    25   14   32 1   
    26   14   33 1   
    27   15   16 1   
    28   15   26 1   
    29   16   17 ar  
    30   16   21 ar  
    31   17   18 ar  
    32   17   34 1   
    33   18   19 ar  
    34   18   36 1   
    35   19   20 ar  
    36   19   37 1   
    37   20   21 ar  
    38   20   38 1   
    39   21   35 1   
    40   22   23 1   
    41   22   24 1   
@<TRIPOS>SUBSTRUCTURE
     1 P49         1 TEMP              0 ****  ****    0 ROOT
