@<TRIPOS>MOLECULE
P4A
   38    40     1     0     0
SMALL
bcc


@<TRIPOS>ATOM
      1 N1          0.1130    0.3630    0.0010 na        1 P4A     -0.015600
      2 N2          1.4380    0.2660   -0.0100 nc        1 P4A     -0.488800
      3 C3          1.8370    0.1280    1.2910 cd        1 P4A      0.381800
      4 C4          0.6710    0.1360    2.1650 cd        1 P4A     -0.186300
      5 C5         -0.4290    0.2860    1.2920 cc        1 P4A     -0.093600
      6 C6          3.2310    0.0170    1.6920 ca        1 P4A     -0.176500
      7 C7          0.6350   -0.0060    3.5980 ca        1 P4A     -0.032000
      8 C8         -1.8680    0.3560    1.5860 c3        1 P4A     -0.037800
      9 C12        -0.2280    0.7890    4.3720 ca        1 P4A     -0.089500
     10 C13        -0.2800    0.6500    5.7530 ca        1 P4A     -0.181000
     11 C14         0.5430   -0.3030    6.3800 ca        1 P4A      0.120100
     12 C15         1.4090   -1.1020    5.6260 ca        1 P4A     -0.181000
     13 C16         1.4490   -0.9480    4.2420 ca        1 P4A     -0.089500
     14 C21         4.0370   -1.0580    1.2580 ca        1 P4A      0.180100
     15 C22         5.3860   -1.1490    1.6270 ca        1 P4A     -0.256000
     16 C23         5.9280   -0.1460    2.4400 ca        1 P4A      0.166100
     17 C24         5.1450    0.9300    2.8830 ca        1 P4A     -0.253000
     18 C25         3.8080    1.0010    2.5020 ca        1 P4A     -0.035000
     19 O29         7.2550   -0.2820    2.7730 oh        1 P4A     -0.497100
     20 O30         3.4430   -2.0200    0.4780 oh        1 P4A     -0.479100
     21 O33         0.4160   -0.3650    7.7550 os        1 P4A     -0.328900
     22 C34         1.2330   -1.3230    8.4170 c3        1 P4A      0.113700
     23 HN1        -0.3930    0.4360   -0.8490 hn        1 P4A      0.319700
     24 H8         -2.2170    1.4210    1.5800 hc        1 P4A      0.055367
     25 H8A        -2.0590   -0.0730    2.6020 hc        1 P4A      0.055367
     26 H8B        -2.4700   -0.2170    0.8370 hc        1 P4A      0.055367
     27 H12        -0.8660    1.5370    3.8760 ha        1 P4A      0.139000
     28 H13        -0.9510    1.2710    6.3620 ha        1 P4A      0.142000
     29 H15         2.0560   -1.8490    6.1060 ha        1 P4A      0.142000
     30 H16         2.1310   -1.5710    3.6410 ha        1 P4A      0.139000
     31 H22         6.0160   -1.9830    1.2880 ha        1 P4A      0.152000
     32 H24         5.5820    1.7100    3.5200 ha        1 P4A      0.137000
     33 H25         3.1880    1.8450    2.8440 ha        1 P4A      0.147000
     34 HO29        7.5040    0.4760    3.3200 ho        1 P4A      0.422000
     35 HO30        4.1280   -2.6510    0.2080 ho        1 P4A      0.419000
     36 H34         0.9900   -2.3560    8.0700 h1        1 P4A      0.043700
     37 H34A        0.9630   -1.1950    9.4960 h1        1 P4A      0.043700
     38 H34B        2.3150   -1.0990    8.2530 h1        1 P4A      0.043700
@<TRIPOS>BOND
     1    1    2 1   
     2    1    5 1   
     3    1   23 1   
     4    2    3 2   
     5    3    4 1   
     6    3    6 1   
     7    4    5 2   
     8    4    7 1   
     9    5    8 1   
    10    6   14 ar  
    11    6   18 ar  
    12    7    9 ar  
    13    7   13 ar  
    14    8   24 1   
    15    8   25 1   
    16    8   26 1   
    17    9   10 ar  
    18    9   27 1   
    19   10   11 ar  
    20   10   28 1   
    21   11   12 ar  
    22   11   21 1   
    23   12   13 ar  
    24   12   29 1   
    25   13   30 1   
    26   14   15 ar  
    27   14   20 1   
    28   15   16 ar  
    29   15   31 1   
    30   16   17 ar  
    31   16   19 1   
    32   17   18 ar  
    33   17   32 1   
    34   18   33 1   
    35   19   34 1   
    36   20   35 1   
    37   21   22 1   
    38   22   36 1   
    39   22   37 1   
    40   22   38 1   
@<TRIPOS>SUBSTRUCTURE
     1 P4A         1 TEMP              0 ****  ****    0 ROOT
