@<TRIPOS>MOLECULE
P4A
   38    40     1     0     0
SMALL
bcc


@<TRIPOS>ATOM
      1 N1         -1.0930    3.5650   -0.3450 na        1 P4A     -0.013600
      2 N2         -1.9600    2.5600   -0.3650 nc        1 P4A     -0.508800
      3 C3         -1.2340    1.4030   -0.2700 cd        1 P4A      0.356800
      4 C4          0.1860    1.7230   -0.1940 cd        1 P4A     -0.177300
      5 C5          0.2380    3.1340   -0.2490 cc        1 P4A     -0.092600
      6 C6         -1.8290    0.0750   -0.3010 ca        1 P4A     -0.233500
      7 C7          1.2940    0.8110   -0.0680 ca        1 P4A     -0.038000
      8 C8          1.3950    4.0420   -0.2100 c3        1 P4A     -0.039800
      9 C12         2.4940    1.0460   -0.7600 ca        1 P4A     -0.086500
     10 C13         3.5710    0.1800   -0.6350 ca        1 P4A     -0.180000
     11 C14         3.4550   -0.9490    0.1980 ca        1 P4A      0.125100
     12 C15         2.2660   -1.2010    0.8920 ca        1 P4A     -0.180000
     13 C16         1.1950   -0.3210    0.7530 ca        1 P4A     -0.086500
     14 C21        -2.6430   -0.3980    0.7470 ca        1 P4A      0.188100
     15 C22        -3.2170   -1.6790    0.6940 ca        1 P4A     -0.257000
     16 C23        -2.9710   -2.4780   -0.4260 ca        1 P4A      0.162100
     17 C24        -2.1660   -2.0230   -1.4860 ca        1 P4A     -0.197000
     18 C25        -1.6090   -0.7540   -1.4110 ca        1 P4A     -0.036000
     19 O29        -3.4960   -3.7420   -0.5550 oh        1 P4A     -0.495100
     20 O30        -2.9230    0.3190    1.8830 oh        1 P4A     -0.497100
     21 O33         4.5830   -1.7440    0.2590 os        1 P4A     -0.327900
     22 C34         4.4840   -2.9120    1.0660 c3        1 P4A      0.113700
     23 HN1        -1.4080    4.5030   -0.4160 hn        1 P4A      0.323700
     24 H8          1.1690    4.9760    0.3640 hc        1 P4A      0.057700
     25 H8A         2.2570    3.5220    0.2790 hc        1 P4A      0.057700
     26 H8B         1.6980    4.3300   -1.2490 hc        1 P4A      0.057700
     27 H12         2.5770    1.9250   -1.4180 ha        1 P4A      0.138000
     28 H13         4.5110    0.3570   -1.1770 ha        1 P4A      0.143500
     29 H15         2.1640   -2.0810    1.5410 ha        1 P4A      0.143500
     30 H16         0.2540   -0.5200    1.2900 ha        1 P4A      0.138000
     31 H22        -3.8470   -2.0260    1.5230 ha        1 P4A      0.152000
     32 H24        -1.9920   -2.6730   -2.3540 ha        1 P4A      0.153000
     33 H25        -0.9780   -0.3860   -2.2360 ha        1 P4A      0.146000
     34 HO29       -4.0410   -3.9210    0.2250 ho        1 P4A      0.422000
     35 HO30       -2.5140    1.1940    1.8070 ho        1 P4A      0.434000
     36 H34         4.2990   -2.6380    2.1340 h1        1 P4A      0.044700
     37 H34A        3.6760   -3.5850    0.6890 h1        1 P4A      0.044700
     38 H34B        5.4870   -3.3940    0.9510 h1        1 P4A      0.044700
@<TRIPOS>BOND
     1    1    2 1   
     2    1    5 1   
     3    1   23 1   
     4    2    3 2   
     5    3    4 1   
     6    3    6 1   
     7    4    5 2   
     8    4    7 1   
     9    5    8 1   
    10    6   14 ar  
    11    6   18 ar  
    12    7    9 ar  
    13    7   13 ar  
    14    8   24 1   
    15    8   25 1   
    16    8   26 1   
    17    9   10 ar  
    18    9   27 1   
    19   10   11 ar  
    20   10   28 1   
    21   11   12 ar  
    22   11   21 1   
    23   12   13 ar  
    24   12   29 1   
    25   13   30 1   
    26   14   15 ar  
    27   14   20 1   
    28   15   16 ar  
    29   15   31 1   
    30   16   17 ar  
    31   16   19 1   
    32   17   18 ar  
    33   17   32 1   
    34   18   33 1   
    35   19   34 1   
    36   20   35 1   
    37   21   22 1   
    38   22   36 1   
    39   22   37 1   
    40   22   38 1   
@<TRIPOS>SUBSTRUCTURE
     1 P4A         1 TEMP              0 ****  ****    0 ROOT
