@<TRIPOS>MOLECULE
P4A
   38    40     1     0     0
SMALL
bcc


@<TRIPOS>ATOM
      1 N1          0.1080    0.3640    0.0040 na        1 P4A     -0.015600
      2 N2          1.4330    0.2610   -0.0100 nc        1 P4A     -0.489800
      3 C3          1.8350    0.1240    1.2900 cd        1 P4A      0.381800
      4 C4          0.6700    0.1390    2.1670 cd        1 P4A     -0.186300
      5 C5         -0.4310    0.2920    1.2960 cc        1 P4A     -0.093600
      6 C6          3.2280    0.0080    1.6880 ca        1 P4A     -0.176500
      7 C7          0.6360    0.0000    3.6000 ca        1 P4A     -0.032000
      8 C8         -1.8700    0.3700    1.5930 c3        1 P4A     -0.037800
      9 C12        -0.2210    0.8010    4.3750 ca        1 P4A     -0.089500
     10 C13        -0.2710    0.6650    5.7550 ca        1 P4A     -0.181000
     11 C14         0.5500   -0.2900    6.3830 ca        1 P4A      0.120100
     12 C15         1.4110   -1.0950    5.6280 ca        1 P4A     -0.181000
     13 C16         1.4480   -0.9440    4.2440 ca        1 P4A     -0.089500
     14 C21         4.0280   -1.0730    1.2560 ca        1 P4A      0.180100
     15 C22         5.3770   -1.1700    1.6220 ca        1 P4A     -0.256000
     16 C23         5.9260   -0.1670    2.4310 ca        1 P4A      0.166100
     17 C24         5.1490    0.9140    2.8720 ca        1 P4A     -0.253000
     18 C25         3.8130    0.9910    2.4940 ca        1 P4A     -0.035000
     19 O29         7.2540   -0.3090    2.7610 oh        1 P4A     -0.497100
     20 O30         3.4270   -2.0350    0.4810 oh        1 P4A     -0.479100
     21 O33         0.4250   -0.3490    7.7590 os        1 P4A     -0.328900
     22 C34         1.2390   -1.3090    8.4210 c3        1 P4A      0.113700
     23 HN1        -0.3990    0.4380   -0.8460 hn        1 P4A      0.319700
     24 H8         -2.2130    1.4360    1.5860 hc        1 P4A      0.055367
     25 H8A        -2.0600   -0.0570    2.6100 hc        1 P4A      0.055367
     26 H8B        -2.4750   -0.2020    0.8460 hc        1 P4A      0.055367
     27 H12        -0.8570    1.5500    3.8780 ha        1 P4A      0.139000
     28 H13        -0.9380    1.2900    6.3650 ha        1 P4A      0.142000
     29 H15         2.0550   -1.8430    6.1090 ha        1 P4A      0.142000
     30 H16         2.1260   -1.5710    3.6430 ha        1 P4A      0.139000
     31 H22         6.0020   -2.0080    1.2850 ha        1 P4A      0.152000
     32 H24         5.5930    1.6940    3.5060 ha        1 P4A      0.137000
     33 H25         3.1970    1.8390    2.8350 ha        1 P4A      0.147000
     34 HO29        7.5080    0.4500    3.3060 ho        1 P4A      0.422000
     35 HO30        4.1090   -2.6700    0.2110 ho        1 P4A      0.419000
     36 H34         0.9910   -2.3420    8.0760 h1        1 P4A      0.043700
     37 H34A        0.9720   -1.1780    9.5000 h1        1 P4A      0.043700
     38 H34B        2.3220   -1.0910    8.2540 h1        1 P4A      0.043700
@<TRIPOS>BOND
     1    1    2 1   
     2    1    5 1   
     3    1   23 1   
     4    2    3 2   
     5    3    4 1   
     6    3    6 1   
     7    4    5 2   
     8    4    7 1   
     9    5    8 1   
    10    6   14 ar  
    11    6   18 ar  
    12    7    9 ar  
    13    7   13 ar  
    14    8   24 1   
    15    8   25 1   
    16    8   26 1   
    17    9   10 ar  
    18    9   27 1   
    19   10   11 ar  
    20   10   28 1   
    21   11   12 ar  
    22   11   21 1   
    23   12   13 ar  
    24   12   29 1   
    25   13   30 1   
    26   14   15 ar  
    27   14   20 1   
    28   15   16 ar  
    29   15   31 1   
    30   16   17 ar  
    31   16   19 1   
    32   17   18 ar  
    33   17   32 1   
    34   18   33 1   
    35   19   34 1   
    36   20   35 1   
    37   21   22 1   
    38   22   36 1   
    39   22   37 1   
    40   22   38 1   
@<TRIPOS>SUBSTRUCTURE
     1 P4A         1 TEMP              0 ****  ****    0 ROOT
