@<TRIPOS>MOLECULE
P4A
   38    32     1     0     0
SMALL
bcc


@<TRIPOS>ATOM
      1 N1         -1.9530    0.2800   -3.3830 n2        1 P4A     -0.160000
      2 N2         -0.6110    0.2360   -3.3790 n2        1 P4A     -0.056000
      3 C3         -0.1750    0.1460   -2.0290 c2        1 P4A     -0.054000
      4 C4         -1.2640    0.1390   -1.2380 c2        1 P4A     -0.121000
      5 C5         -2.3930    0.2220   -2.0620 c1        1 P4A     -0.062000
      6 C6          1.1580    0.1470   -1.5920 c1        1 P4A     -0.069000
      7 C7         -1.2600    0.1800    0.1800 c1        1 P4A     -0.032000
      8 C8         -3.8230    0.1080   -1.6210 c2        1 P4A     -0.163000
      9 C12        -1.1160   -1.0480    0.8290 c1        1 P4A     -0.142500
     10 C13        -1.0890   -1.1040    2.2170 c1        1 P4A     -0.142500
     11 C14        -1.1990    0.0080    2.9290 c1        1 P4A      0.075000
     12 C15        -1.3430    1.2370    2.2840 c1        1 P4A     -0.159000
     13 C16        -1.3710    1.2930    0.8850 c1        1 P4A     -0.100000
     14 C21         1.8240   -1.0860   -1.7670 c1        1 P4A      0.135000
     15 C22         3.1330   -1.1980   -1.4580 c1        1 P4A     -0.256000
     16 C23         3.8150   -0.1120   -0.9730 c1        1 P4A      0.121000
     17 C24         3.1400    1.1280   -0.7970 c1        1 P4A     -0.142500
     18 C25         1.8440    1.2360   -1.1050 c1        1 P4A     -0.142500
     19 O29         5.1980   -0.2480   -0.5610 oh        1 P4A     -0.251000
     20 O30         1.1390   -2.1770   -2.2610 oh        1 P4A     -0.233000
     21 O33        -1.1770   -0.0540    4.4090 os        1 P4A     -0.212000
     22 C34         0.0950    0.0650    4.9580 c3        1 P4A     -0.076000
     23 HN1        -2.4870    0.3380   -4.1260 DU        1 P4A      0.270000
     24 H8         -4.3940   -0.1100   -2.4140 ha        1 P4A      0.094667
     25 H8A        -4.1230    0.9750   -1.2240 ha        1 P4A      0.094667
     26 H8B        -3.9120   -0.6520   -0.9060 ha        1 P4A      0.094667
     27 H12        -1.0350   -1.8650    0.3120 ha        1 P4A      0.141500
     28 H13        -0.9910   -1.9640    2.6670 ha        1 P4A      0.141500
     29 H15        -1.4220    2.0540    2.8080 ha        1 P4A      0.147000
     30 H16        -1.4830    2.2050    0.4020 ha        1 P4A      0.133000
     31 H22         3.6260   -2.1160   -1.5880 ha        1 P4A      0.152000
     32 H24         3.5920    1.8490   -0.4760 ha        1 P4A      0.141500
     33 H25         1.3720    2.1080   -0.9780 ha        1 P4A      0.141500
     34 HO29        5.7950    0.0730   -1.2890 ho        1 P4A      0.221000
     35 HO30        1.7140   -2.6550   -2.9280 ho        1 P4A      0.218000
     36 H34         0.0220    0.4180    5.9100 h1        1 P4A      0.083000
     37 H34A        0.5060   -0.7690    4.9670 h1        1 P4A      0.083000
     38 H34B        0.6490    0.7130    4.3980 h1        1 P4A      0.083000
@<TRIPOS>BOND
     1    1    2 1   
     2    1    5 1   
     3    2    3 1   
     4    3    4 1   
     5    3    6 1   
     6    4    5 1   
     7    4    7 1   
     8    6   14 1   
     9    7   13 1   
    10    8   24 1   
    11    8   25 1   
    12    8   26 1   
    13    9   10 1   
    14    9   27 1   
    15   10   28 1   
    16   11   12 1   
    17   11   21 1   
    18   12   29 1   
    19   13   30 1   
    20   14   20 1   
    21   15   16 1   
    22   15   31 1   
    23   16   19 1   
    24   17   18 1   
    25   17   32 1   
    26   18   33 1   
    27   19   34 1   
    28   20   35 1   
    29   21   22 1   
    30   22   36 1   
    31   22   37 1   
    32   22   38 1   
@<TRIPOS>SUBSTRUCTURE
     1 P4A         1 TEMP              0 ****  ****    0 ROOT
