@<TRIPOS>MOLECULE
P4C
   50    49     1     0     0
SMALL
bcc


@<TRIPOS>ATOM
      1 O1         -0.6950    2.0710    0.3610 oh        1 P4C     -0.599800
      2 C2         -1.0400    0.7510   -0.0050 c3        1 P4C      0.131400
      3 C3          0.1960   -0.0920   -0.2990 c3        1 P4C      0.087400
      4 O4          0.8880   -0.2260    0.9400 os        1 P4C     -0.438600
      5 C5          2.1080   -0.9550    0.8050 c3        1 P4C      0.129400
      6 C6          2.6360   -1.1830    2.2180 c3        1 P4C      0.127400
      7 O7          2.4170   -2.5610    2.5130 os        1 P4C     -0.428600
      8 C8          2.7250   -2.8770    3.8700 c3        1 P4C      0.127400
      9 C9          2.6250   -4.3940    3.9930 c3        1 P4C      0.127400
     10 O10         3.9620   -4.8820    4.0840 os        1 P4C     -0.429600
     11 C11         4.0210   -6.3060    4.0430 c3        1 P4C      0.127400
     12 C12         5.4700   -6.6890    4.3270 c3        1 P4C      0.127400
     13 O13         5.4980   -7.2150    5.6520 os        1 P4C     -0.429600
     14 C14         6.8260   -7.4590    6.1080 c3        1 P4C      0.127400
     15 C15         6.6990   -8.1720    7.4500 c3        1 P4C      0.127400
     16 O16         7.0300   -9.5400    7.2150 os        1 P4C     -0.428600
     17 C17         6.7850  -10.3590    8.3560 c3        1 P4C      0.127400
     18 C18         7.3390  -11.7400    8.0240 c3        1 P4C      0.128400
     19 O19         8.5600  -11.8700    8.7520 os        1 P4C     -0.426600
     20 C20         9.2710  -13.0540    8.4040 c3        1 P4C      0.005400
     21 C21        10.5280  -13.0680    9.2340 c         1 P4C      0.570900
     22 O22        11.3320  -13.9980    9.1690 o         1 P4C     -0.525100
     23 HO1        -0.1070    2.0050    1.1250 ho        1 P4C      0.412000
     24 H21A       -1.6470    0.2710    0.8070 h1        1 P4C      0.053700
     25 H22        -1.6570    0.8580   -0.9360 h1        1 P4C      0.053700
     26 H31        -0.0980   -1.1040   -0.6830 h1        1 P4C      0.039200
     27 H32         0.8580    0.4190   -1.0480 h1        1 P4C      0.039200
     28 H51         2.8350   -0.3440    0.2090 h1        1 P4C      0.045200
     29 H52         1.9200   -1.9320    0.2870 h1        1 P4C      0.045200
     30 H61         3.7350   -0.9660    2.2640 h1        1 P4C      0.043200
     31 H62         2.0920   -0.5360    2.9570 h1        1 P4C      0.043200
     32 H81         3.7590   -2.5240    4.1260 h1        1 P4C      0.044200
     33 H82         1.9780   -2.3800    4.5420 h1        1 P4C      0.044200
     34 H91         2.0670   -4.6740    4.9250 h1        1 P4C      0.044200
     35 H92         2.1110   -4.8340    3.0980 h1        1 P4C      0.044200
     36 H111        3.3340   -6.7460    4.8140 h1        1 P4C      0.044200
     37 H112        3.7170   -6.6580    3.0220 h1        1 P4C      0.044200
     38 H121        5.8140   -7.4800    3.6100 h1        1 P4C      0.044200
     39 H122        6.1410   -5.7920    4.2510 h1        1 P4C      0.044200
     40 H141        7.3590   -6.4800    6.2360 h1        1 P4C      0.044200
     41 H142        7.3800   -8.0970    5.3690 h1        1 P4C      0.044200
     42 H151        7.4230   -7.7420    8.1920 h1        1 P4C      0.044200
     43 H152        5.6540   -8.0880    7.8490 h1        1 P4C      0.044200
     44 H171        7.2950   -9.9310    9.2590 h1        1 P4C      0.045200
     45 H172        5.6790  -10.4170    8.5390 h1        1 P4C      0.045200
     46 H181        6.6270  -12.5400    8.3580 h1        1 P4C      0.046700
     47 H182        7.5310  -11.8380    6.9230 h1        1 P4C      0.046700
     48 H201        8.6450  -13.9600    8.6260 h1        1 P4C      0.061700
     49 H202        9.5290  -13.0430    7.3110 h1        1 P4C      0.061700
     50 H21        10.6770  -12.1900    9.8980 h4        1 P4C      0.021200
@<TRIPOS>BOND
     1    1    2 1   
     2    1   23 1   
     3    2    3 1   
     4    2   24 1   
     5    2   25 1   
     6    3    4 1   
     7    3   26 1   
     8    3   27 1   
     9    4    5 1   
    10    5    6 1   
    11    5   28 1   
    12    5   29 1   
    13    6    7 1   
    14    6   30 1   
    15    6   31 1   
    16    7    8 1   
    17    8    9 1   
    18    8   32 1   
    19    8   33 1   
    20    9   10 1   
    21    9   34 1   
    22    9   35 1   
    23   10   11 1   
    24   11   12 1   
    25   11   36 1   
    26   11   37 1   
    27   12   13 1   
    28   12   38 1   
    29   12   39 1   
    30   13   14 1   
    31   14   15 1   
    32   14   40 1   
    33   14   41 1   
    34   15   16 1   
    35   15   42 1   
    36   15   43 1   
    37   16   17 1   
    38   17   18 1   
    39   17   44 1   
    40   17   45 1   
    41   18   19 1   
    42   18   46 1   
    43   18   47 1   
    44   19   20 1   
    45   20   21 1   
    46   20   48 1   
    47   20   49 1   
    48   21   22 2   
    49   21   50 1   
@<TRIPOS>SUBSTRUCTURE
     1 P4C         1 TEMP              0 ****  ****    0 ROOT
