@<TRIPOS>MOLECULE
P4C
   50    49     1     0     0
SMALL
bcc


@<TRIPOS>ATOM
      1 O1         -9.8930    1.4750   -5.8160 oh        1 P4C     -0.602800
      2 C2         -8.5020    1.3560   -5.8180 c3        1 P4C      0.127400
      3 C3         -8.0010    1.2810   -4.3960 c3        1 P4C      0.129400
      4 O4         -6.6230    1.5990   -4.3650 os        1 P4C     -0.431600
      5 C5         -6.0190    1.4430   -3.0760 c3        1 P4C      0.130400
      6 C6         -4.5530    1.8480   -3.1500 c3        1 P4C      0.129400
      7 O7         -3.9500    1.7150   -1.8440 os        1 P4C     -0.429600
      8 C8         -2.5660    1.9990   -1.8220 c3        1 P4C      0.130400
      9 C9         -2.0470    1.8970   -0.3880 c3        1 P4C      0.129400
     10 O10        -0.6140    1.8190   -0.4010 os        1 P4C     -0.429600
     11 C11        -0.0280    1.7250    0.8960 c3        1 P4C      0.130400
     12 C12         1.4950    1.4760    0.7580 c3        1 P4C      0.129400
     13 O13         1.9640    0.7230    1.8890 os        1 P4C     -0.430600
     14 C14         3.3940    0.5560    1.9260 c3        1 P4C      0.130400
     15 C15         3.7850   -0.2990    3.1540 c3        1 P4C      0.128400
     16 O16         4.9900   -0.9920    2.8800 os        1 P4C     -0.429600
     17 C17         5.3300   -1.9570    3.8520 c3        1 P4C      0.129400
     18 C18         6.7800   -2.4420    3.6120 c3        1 P4C      0.128400
     19 O19         6.8420   -3.8650    3.7750 os        1 P4C     -0.425600
     20 C20         8.1770   -4.3870    3.8270 c3        1 P4C      0.005400
     21 C21         8.1320   -5.9140    3.7520 c         1 P4C      0.570900
     22 O22         7.8300   -6.5590    4.7340 o         1 P4C     -0.524100
     23 HO1       -10.2170    1.2090   -6.6080 ho        1 P4C      0.405000
     24 H21A       -8.1100    2.1320   -6.2610 h1        1 P4C      0.035700
     25 H22        -8.2430    0.5360   -6.3020 h1        1 P4C      0.035700
     26 H31        -8.5000    1.9250   -3.8360 h1        1 P4C      0.042700
     27 H32        -8.1340    0.3740   -4.0490 h1        1 P4C      0.042700
     28 H51        -6.4750    2.0030   -2.4390 h1        1 P4C      0.042700
     29 H52        -6.0850    0.5120   -2.7970 h1        1 P4C      0.042700
     30 H61        -4.4870    2.7830   -3.4480 h1        1 P4C      0.042700
     31 H62        -4.0900    1.2740   -3.7810 h1        1 P4C      0.042700
     32 H81        -2.4130    2.9030   -2.1600 h1        1 P4C      0.042700
     33 H82        -2.0950    1.3610   -2.3820 h1        1 P4C      0.042700
     34 H91        -2.3280    2.6960    0.1210 h1        1 P4C      0.042700
     35 H92        -2.4140    1.0950    0.0350 h1        1 P4C      0.042700
     36 H111       -0.4350    0.9840    1.3840 h1        1 P4C      0.042700
     37 H112       -0.1790    2.5580    1.3830 h1        1 P4C      0.042700
     38 H121        1.9720    2.3490    0.7200 h1        1 P4C      0.042700
     39 H122        1.6720    0.9700   -0.0700 h1        1 P4C      0.042700
     40 H141        3.6930    0.1020    1.1010 h1        1 P4C      0.042700
     41 H142        3.8200    1.4290    1.9890 h1        1 P4C      0.042700
     42 H151        3.9140    0.2890    3.9380 h1        1 P4C      0.041700
     43 H152        3.0630   -0.9530    3.3460 h1        1 P4C      0.041700
     44 H171        4.7190   -2.7140    3.7860 h1        1 P4C      0.046200
     45 H172        5.2620   -1.5590    4.7460 h1        1 P4C      0.046200
     46 H181        7.0610   -2.2010    2.6880 h1        1 P4C      0.047200
     47 H182        7.3750   -2.0160    4.2530 h1        1 P4C      0.047200
     48 H201        8.6910   -4.0400    3.0750 h1        1 P4C      0.061700
     49 H202        8.5980   -4.1170    4.6570 h1        1 P4C      0.061700
     50 H21         8.4440   -6.3770    2.9340 h4        1 P4C      0.021200
@<TRIPOS>BOND
     1    1    2 1   
     2    1   23 1   
     3    2    3 1   
     4    2   24 1   
     5    2   25 1   
     6    3    4 1   
     7    3   26 1   
     8    3   27 1   
     9    4    5 1   
    10    5    6 1   
    11    5   28 1   
    12    5   29 1   
    13    6    7 1   
    14    6   30 1   
    15    6   31 1   
    16    7    8 1   
    17    8    9 1   
    18    8   32 1   
    19    8   33 1   
    20    9   10 1   
    21    9   34 1   
    22    9   35 1   
    23   10   11 1   
    24   11   12 1   
    25   11   36 1   
    26   11   37 1   
    27   12   13 1   
    28   12   38 1   
    29   12   39 1   
    30   13   14 1   
    31   14   15 1   
    32   14   40 1   
    33   14   41 1   
    34   15   16 1   
    35   15   42 1   
    36   15   43 1   
    37   16   17 1   
    38   17   18 1   
    39   17   44 1   
    40   17   45 1   
    41   18   19 1   
    42   18   46 1   
    43   18   47 1   
    44   19   20 1   
    45   20   21 1   
    46   20   48 1   
    47   20   49 1   
    48   21   22 2   
    49   21   50 1   
@<TRIPOS>SUBSTRUCTURE
     1 P4C         1 TEMP              0 ****  ****    0 ROOT
