@<TRIPOS>MOLECULE
P4C
   50    49     1     0     0
SMALL
bcc


@<TRIPOS>ATOM
      1 O1         -0.0900    0.7520   10.6500 oh        1 P4C     -0.599800
      2 C2          0.7270   -0.2210   10.0330 c3        1 P4C      0.131400
      3 C3         -0.0210   -0.9690    8.9340 c3        1 P4C      0.087400
      4 O4         -0.2850   -0.0110    7.9110 os        1 P4C     -0.438600
      5 C5         -1.0350   -0.5640    6.8310 c3        1 P4C      0.129400
      6 C6         -1.0760    0.5030    5.7410 c3        1 P4C      0.127400
      7 O7         -0.1960    0.0620    4.7100 os        1 P4C     -0.428600
      8 C8         -0.0200    1.0460    3.6930 c3        1 P4C      0.127400
      9 C9          0.7840    0.3800    2.5810 c3        1 P4C      0.127400
     10 O10        -0.1270    0.1390    1.5110 os        1 P4C     -0.429600
     11 C11         0.4610   -0.6300    0.4630 c3        1 P4C      0.127400
     12 C12        -0.5520   -0.6560   -0.6760 c3        1 P4C      0.127400
     13 O13        -0.0450    0.2090   -1.6900 os        1 P4C     -0.429600
     14 C14        -0.9800    0.4070   -2.7480 c3        1 P4C      0.127400
     15 C15        -0.2510    1.1990   -3.8280 c3        1 P4C      0.127400
     16 O16         0.0350    0.2800   -4.8810 os        1 P4C     -0.428600
     17 C17         0.8700    0.8520   -5.8850 c3        1 P4C      0.127400
     18 C18         0.9470   -0.1680   -7.0160 c3        1 P4C      0.128400
     19 O19         0.1130    0.3270   -8.0630 os        1 P4C     -0.426600
     20 C20        -0.0380   -0.6140   -9.1210 c3        1 P4C      0.005400
     21 C21        -0.9350    0.0260  -10.1500 c         1 P4C      0.570900
     22 O22        -1.2190   -0.5460  -11.2010 o         1 P4C     -0.525100
     23 HO1        -0.4000    1.3420    9.9510 ho        1 P4C      0.412000
     24 H21A        1.6480    0.2610    9.6100 h1        1 P4C      0.053700
     25 H22         1.0070   -0.9320   10.8540 h1        1 P4C      0.053700
     26 H31         0.6100   -1.8010    8.5240 h1        1 P4C      0.039200
     27 H32        -0.9880   -1.3840    9.3220 h1        1 P4C      0.039200
     28 H51        -0.5420   -1.4990    6.4540 h1        1 P4C      0.045200
     29 H52        -2.0720   -0.8000    7.1880 h1        1 P4C      0.045200
     30 H61        -2.1140    0.5960    5.3250 h1        1 P4C      0.043200
     31 H62        -0.7390    1.4960    6.1410 h1        1 P4C      0.043200
     32 H81        -1.0160    1.3930    3.3110 h1        1 P4C      0.044200
     33 H82         0.5470    1.9160    4.1170 h1        1 P4C      0.044200
     34 H91         1.5980    1.0640    2.2240 h1        1 P4C      0.044200
     35 H92         1.2310   -0.5860    2.9360 h1        1 P4C      0.044200
     36 H111        1.4230   -0.1590    0.1300 h1        1 P4C      0.044200
     37 H112        0.6580   -1.6690    0.8360 h1        1 P4C      0.044200
     38 H121       -0.6470   -1.6940   -1.0920 h1        1 P4C      0.044200
     39 H122       -1.5560   -0.2970   -0.3250 h1        1 P4C      0.044200
     40 H141       -1.3300   -0.5820   -3.1470 h1        1 P4C      0.044200
     41 H142       -1.8570    0.9900   -2.3620 h1        1 P4C      0.044200
     42 H151       -0.9070    2.0180   -4.2240 h1        1 P4C      0.044200
     43 H152        0.7010    1.6380   -3.4260 h1        1 P4C      0.044200
     44 H171        0.4330    1.8200   -6.2500 h1        1 P4C      0.045200
     45 H172        1.8910    1.0360   -5.4570 h1        1 P4C      0.045200
     46 H181        1.9990   -0.2540   -7.3960 h1        1 P4C      0.046700
     47 H182        0.5840   -1.1730   -6.6720 h1        1 P4C      0.046700
     48 H201        0.9630   -0.8540   -9.5700 h1        1 P4C      0.061700
     49 H202       -0.5070   -1.5590   -8.7350 h1        1 P4C      0.061700
     50 H21        -1.3170    1.0380   -9.8930 h4        1 P4C      0.021200
@<TRIPOS>BOND
     1    1    2 1   
     2    1   23 1   
     3    2    3 1   
     4    2   24 1   
     5    2   25 1   
     6    3    4 1   
     7    3   26 1   
     8    3   27 1   
     9    4    5 1   
    10    5    6 1   
    11    5   28 1   
    12    5   29 1   
    13    6    7 1   
    14    6   30 1   
    15    6   31 1   
    16    7    8 1   
    17    8    9 1   
    18    8   32 1   
    19    8   33 1   
    20    9   10 1   
    21    9   34 1   
    22    9   35 1   
    23   10   11 1   
    24   11   12 1   
    25   11   36 1   
    26   11   37 1   
    27   12   13 1   
    28   12   38 1   
    29   12   39 1   
    30   13   14 1   
    31   14   15 1   
    32   14   40 1   
    33   14   41 1   
    34   15   16 1   
    35   15   42 1   
    36   15   43 1   
    37   16   17 1   
    38   17   18 1   
    39   17   44 1   
    40   17   45 1   
    41   18   19 1   
    42   18   46 1   
    43   18   47 1   
    44   19   20 1   
    45   20   21 1   
    46   20   48 1   
    47   20   49 1   
    48   21   22 2   
    49   21   50 1   
@<TRIPOS>SUBSTRUCTURE
     1 P4C         1 TEMP              0 ****  ****    0 ROOT
