@<TRIPOS>MOLECULE
P4C
   50    49     1     0     0
SMALL
bcc


@<TRIPOS>ATOM
      1 O1         -0.6420    2.1080    0.3660 oh        1 P4C     -0.599800
      2 C2         -1.0160    0.7910    0.0210 c3        1 P4C      0.131400
      3 C3          0.1990   -0.0770   -0.2880 c3        1 P4C      0.087400
      4 O4          0.9130   -0.2100    0.9390 os        1 P4C     -0.438600
      5 C5          2.1160   -0.9610    0.7880 c3        1 P4C      0.129400
      6 C6          2.6680   -1.1830    2.1920 c3        1 P4C      0.127400
      7 O7          2.4330   -2.5540    2.5080 os        1 P4C     -0.428600
      8 C8          2.7620   -2.8610    3.8610 c3        1 P4C      0.127400
      9 C9          2.6390   -4.3740    4.0040 c3        1 P4C      0.127400
     10 O10         3.9690   -4.8830    4.0770 os        1 P4C     -0.429600
     11 C11         4.0040   -6.3090    4.0520 c3        1 P4C      0.127400
     12 C12         5.4510   -6.7110    4.3160 c3        1 P4C      0.127400
     13 O13         5.4940   -7.2200    5.6470 os        1 P4C     -0.429600
     14 C14         6.8270   -7.4810    6.0830 c3        1 P4C      0.127400
     15 C15         6.7120   -8.1730    7.4370 c3        1 P4C      0.127400
     16 O16         7.0160   -9.5490    7.2150 os        1 P4C     -0.428600
     17 C17         6.7790  -10.3480    8.3720 c3        1 P4C      0.127400
     18 C18         7.3050  -11.7420    8.0500 c3        1 P4C      0.128400
     19 O19         8.5370  -11.8820    8.7590 os        1 P4C     -0.426600
     20 C20         9.2220  -13.0820    8.4150 c3        1 P4C      0.005400
     21 C21        10.4930  -13.1050    9.2230 c         1 P4C      0.570900
     22 O22        11.2800  -14.0490    9.1590 o         1 P4C     -0.525100
     23 HO1        -0.0400    2.0400    1.1190 ho        1 P4C      0.412000
     24 H21A       -1.6160    0.3300    0.8500 h1        1 P4C      0.053700
     25 H22        -1.6500    0.8990   -0.8990 h1        1 P4C      0.053700
     26 H31        -0.1200   -1.0870   -0.6550 h1        1 P4C      0.039200
     27 H32         0.8550    0.4140   -1.0550 h1        1 P4C      0.039200
     28 H51         2.8420   -0.3700    0.1700 h1        1 P4C      0.045200
     29 H52         1.9020   -1.9410    0.2850 h1        1 P4C      0.045200
     30 H61         3.7720   -0.9840    2.2140 h1        1 P4C      0.043200
     31 H62         2.1510   -0.5190    2.9340 h1        1 P4C      0.043200
     32 H81         3.8060   -2.5220    4.0940 h1        1 P4C      0.044200
     33 H82         2.0360   -2.3440    4.5420 h1        1 P4C      0.044200
     34 H91         2.0930   -4.6350    4.9490 h1        1 P4C      0.044200
     35 H92         2.1020   -4.8150    3.1230 h1        1 P4C      0.044200
     36 H111        3.3240   -6.7280    4.8400 h1        1 P4C      0.044200
     37 H112        3.6760   -6.6670    3.0410 h1        1 P4C      0.044200
     38 H121        5.7690   -7.5180    3.6030 h1        1 P4C      0.044200
     39 H122        6.1360   -5.8270    4.2150 h1        1 P4C      0.044200
     40 H141        7.3780   -6.5090    6.1870 h1        1 P4C      0.044200
     41 H142        7.3560   -8.1380    5.3430 h1        1 P4C      0.044200
     42 H151        7.4560   -7.7450    8.1590 h1        1 P4C      0.044200
     43 H152        5.6760   -8.0660    7.8530 h1        1 P4C      0.044200
     44 H171        7.3120   -9.9150    9.2600 h1        1 P4C      0.045200
     45 H172        5.6760  -10.3860    8.5750 h1        1 P4C      0.045200
     46 H181        6.5860  -12.5260    8.4080 h1        1 P4C      0.046700
     47 H182        7.4760  -11.8590    6.9470 h1        1 P4C      0.046700
     48 H201        8.5850  -13.9740    8.6620 h1        1 P4C      0.061700
     49 H202        9.4610  -13.0910    7.3180 h1        1 P4C      0.061700
     50 H21        10.6680  -12.2200    9.8720 h4        1 P4C      0.021200
@<TRIPOS>BOND
     1    1    2 1   
     2    1   23 1   
     3    2    3 1   
     4    2   24 1   
     5    2   25 1   
     6    3    4 1   
     7    3   26 1   
     8    3   27 1   
     9    4    5 1   
    10    5    6 1   
    11    5   28 1   
    12    5   29 1   
    13    6    7 1   
    14    6   30 1   
    15    6   31 1   
    16    7    8 1   
    17    8    9 1   
    18    8   32 1   
    19    8   33 1   
    20    9   10 1   
    21    9   34 1   
    22    9   35 1   
    23   10   11 1   
    24   11   12 1   
    25   11   36 1   
    26   11   37 1   
    27   12   13 1   
    28   12   38 1   
    29   12   39 1   
    30   13   14 1   
    31   14   15 1   
    32   14   40 1   
    33   14   41 1   
    34   15   16 1   
    35   15   42 1   
    36   15   43 1   
    37   16   17 1   
    38   17   18 1   
    39   17   44 1   
    40   17   45 1   
    41   18   19 1   
    42   18   46 1   
    43   18   47 1   
    44   19   20 1   
    45   20   21 1   
    46   20   48 1   
    47   20   49 1   
    48   21   22 2   
    49   21   50 1   
@<TRIPOS>SUBSTRUCTURE
     1 P4C         1 TEMP              0 ****  ****    0 ROOT
