@<TRIPOS>MOLECULE
P4D
   38    37     1     0     0
SMALL
bcc


@<TRIPOS>ATOM
      1 C1         -1.8390   -0.1880   -0.6530 c3        1 P4D     -0.138000
      2 N1          0.1270   -1.3920   -1.3090 n3        1 P4D     -0.342000
      3 C2         -0.3280   -0.2250   -0.6340 c3        1 P4D     -0.700000
      4 P3          0.2550   -0.2540    1.0840 p5        1 P4D      2.834000
      5 C4          1.9650   -0.8660    1.1330 c3        1 P4D     -0.986000
      6 C5          2.4740   -0.8260    2.5580 c3        1 P4D     -0.111000
      7 C6          2.1300   -2.1250    3.2520 c2        1 P4D      0.318000
      8 C7          3.9760   -0.6400    2.5520 c3        1 P4D     -0.192000
      9 C8          4.4980   -0.7090    3.9710 c2        1 P4D      0.316000
     10 CG         -2.3080    0.7320   -1.7600 c2        1 P4D     -0.071000
     11 OH         -3.6590    3.3050   -4.7430 oh        1 P4D     -0.271000
     12 CZ         -3.3150    2.3270   -3.7910 c2        1 P4D      0.042000
     13 O31        -0.6700   -1.2080    1.9380 oh        1 P4D     -0.860000
     14 O32         0.2050    1.1150    1.6450 o         1 P4D     -1.169000
     15 O61         1.5650   -2.1060    4.3770 o         1 P4D     -0.598000
     16 O62         2.4240   -3.2240    2.7130 o         1 P4D     -0.598000
     17 O81         4.5420    0.3330    4.6760 o         1 P4D     -0.608000
     18 O82         4.9060   -1.8040    4.4390 o         1 P4D     -0.608000
     19 CD1        -3.0420    1.8670   -1.4510 c2        1 P4D     -0.086000
     20 CD2        -2.0780    0.3950   -3.0840 c1        1 P4D     -0.107000
     21 CE1        -3.5460    2.6640   -2.4670 c2        1 P4D     -0.161000
     22 CE2        -2.5820    1.1930   -4.1000 c1        1 P4D     -0.227000
     23 H1         -2.1850   -1.0900   -0.8100 hc        1 P4D      0.099500
     24 H1A        -2.1680    0.1420    0.2070 hc        1 P4D      0.099500
     25 HN1         0.5850   -1.1490   -2.0630 hn        1 P4D      0.161500
     26 HN1A       -0.5920   -1.9090   -1.5410 hn        1 P4D      0.161500
     27 H2          0.0230    0.5690   -1.0840 h1        1 P4D      0.114000
     28 H4          1.9920   -1.7860    0.8020 hc        1 P4D      0.189500
     29 H4A         2.5300   -0.3000    0.5690 hc        1 P4D      0.189500
     30 H5          2.0560   -0.0830    3.0320 hc        1 P4D      0.074000
     31 H7          4.1950    0.2310    2.1660 hc        1 P4D      0.075000
     32 H7A         4.3900   -1.3470    2.0170 hc        1 P4D      0.075000
     33 HOH        -4.3560    3.0240   -5.2180 ho        1 P4D      0.199000
     34 HO31       -0.9230   -0.7890    2.6790 ho        1 P4D      0.306000
     35 HD1        -3.2040    2.1040   -0.5180 ha        1 P4D      0.203000
     36 HD2        -1.5610   -0.4030   -3.3020 ha        1 P4D      0.124000
     37 HE1        -4.0630    3.4630   -2.2490 ha        1 P4D      0.138000
     38 HE2        -2.4190    0.9560   -5.0330 ha        1 P4D      0.110000
@<TRIPOS>BOND
     1    1    3 1   
     2    1   10 1   
     3    1   23 1   
     4    1   24 1   
     5    2    3 1   
     6    2   25 1   
     7    2   26 1   
     8    3    4 1   
     9    3   27 1   
    10    4    5 1   
    11    4   13 1   
    12    4   14 1   
    13    5    6 1   
    14    5   28 1   
    15    5   29 1   
    16    6    7 1   
    17    6    8 1   
    18    6   30 1   
    19    7   15 1   
    20    7   16 1   
    21    8    9 1   
    22    8   31 1   
    23    8   32 1   
    24    9   17 1   
    25    9   18 1   
    26   10   19 1   
    27   10   20 1   
    28   11   12 1   
    29   11   33 1   
    30   12   21 1   
    31   12   22 1   
    32   13   34 1   
    33   19   21 1   
    34   19   35 1   
    35   20   36 1   
    36   21   37 1   
    37   22   38 1   
@<TRIPOS>SUBSTRUCTURE
     1 P4D         1 TEMP              0 ****  ****    0 ROOT
