@<TRIPOS>MOLECULE
P4D
   38    38     1     0     0
SMALL
bcc


@<TRIPOS>ATOM
      1 C1         -2.3340    1.4320   -0.2140 c3        1 P4D     -0.049100
      2 N1         -0.8770    2.4740    1.5630 n3        1 P4D     -0.871800
      3 C2         -1.0760    1.3690    0.6620 c3        1 P4D     -0.103700
      4 P3          0.2860    1.2020   -0.3700 p5        1 P4D      1.529100
      5 C4          1.5810    1.0170    0.5710 c3        1 P4D     -0.501600
      6 C5          2.8220    0.5980   -0.2040 c3        1 P4D     -0.127700
      7 C6          3.7150    1.8040   -0.6070 c         1 P4D      0.899600
      8 C7          3.6550   -0.3980    0.5870 c3        1 P4D     -0.161400
      9 C8          2.9640   -1.7170    0.9450 c         1 P4D      0.900600
     10 CG         -3.2330    0.2590   -0.0290 ca        1 P4D     -0.088300
     11 CZ         -4.9160   -1.9440    0.2910 ca        1 P4D      0.093100
     12 O31         0.4030    2.6950   -0.9860 oh        1 P4D     -0.840400
     13 O32        -0.0790    0.2880   -1.4600 o         1 P4D     -0.893300
     14 O61         4.8680    1.5860   -1.0710 o         1 P4D     -0.867800
     15 O62         3.2590    2.9910   -0.4970 o         1 P4D     -0.867800
     16 O81         1.9240   -1.7140    1.6810 o         1 P4D     -0.878300
     17 O82         3.4860   -2.8030    0.5500 o         1 P4D     -0.878300
     18 CD1        -2.9010   -0.9740   -0.6160 ca        1 P4D     -0.091500
     19 CD2        -4.4150    0.3710    0.7100 ca        1 P4D     -0.091500
     20 CE1        -3.7360   -2.0740   -0.4550 ca        1 P4D     -0.192000
     21 CE2        -5.2650   -0.7210    0.8760 ca        1 P4D     -0.192000
     22 H1         -2.9210    2.3700   -0.0070 hc        1 P4D      0.055200
     23 H1A        -2.0180    1.4740   -1.2960 hc        1 P4D      0.055200
     24 HN1        -0.6660    3.2990    1.0280 hn        1 P4D      0.336800
     25 HN1A       -1.6960    2.6470    2.1130 hn        1 P4D      0.336800
     26 H2         -1.1460    0.4430    1.3050 h1        1 P4D      0.106700
     27 H4          1.8540    1.9540    1.1310 hc        1 P4D      0.147200
     28 H4A         1.4230    0.2350    1.3800 hc        1 P4D      0.147200
     29 H5          2.4900    0.1040   -1.1610 hc        1 P4D      0.047700
     30 H7          4.5770   -0.6250   -0.0100 hc        1 P4D      0.036200
     31 H7A         3.9750    0.0850    1.5460 hc        1 P4D      0.036200
     32 HOH        -5.3550   -3.7940    0.1450 ho        1 P4D      0.409000
     33 HO31        1.2980    3.0600   -1.0140 ho        1 P4D      0.505000
     34 HD1        -1.9640   -1.0630   -1.2030 ha        1 P4D      0.163500
     35 HD2        -4.6790    1.3330    1.1740 ha        1 P4D      0.163500
     36 HE1        -3.4640   -3.0420   -0.8980 ha        1 P4D      0.127500
     37 HE2        -6.1910   -0.6370    1.4580 ha        1 P4D      0.127500
     38 OH         -5.7940   -2.9980    0.4740 oh        1 P4D     -0.524100
@<TRIPOS>BOND
     1    1    3 1   
     2    1   10 1   
     3    1   22 1   
     4    1   23 1   
     5    2    3 1   
     6    2   24 1   
     7    2   25 1   
     8    3    4 1   
     9    3   26 1   
    10    4    5 1   
    11    4   12 1   
    12    4   13 2   
    13    5    6 1   
    14    5   27 1   
    15    5   28 1   
    16    6    7 1   
    17    6    8 1   
    18    6   29 1   
    19    7   14 1   
    20    7   15 1   
    21    8    9 1   
    22    8   30 1   
    23    8   31 1   
    24    9   16 1   
    25    9   17 1   
    26   10   18 ar  
    27   10   19 ar  
    28   11   20 ar  
    29   11   21 ar  
    30   11   38 1   
    31   12   33 1   
    32   18   20 ar  
    33   18   34 1   
    34   19   21 ar  
    35   19   35 1   
    36   20   36 1   
    37   21   37 1   
    38   32   38 1   
@<TRIPOS>SUBSTRUCTURE
     1 P4D         1 TEMP              0 ****  ****    0 ROOT
