@<TRIPOS>MOLECULE
P4E
   26    21     1     0     0
SMALL
bcc


@<TRIPOS>ATOM
      1 C01        -2.6430   -1.2520   -2.4240 c1        1 P4E     -0.155000
      2 C02        -1.5100   -2.0530   -2.3410 c1        1 P4E     -0.139000
      3 C03        -0.7680   -2.0790   -1.1860 c1        1 P4E     -0.139000
      4 C04        -1.1510   -1.2990   -0.0900 c1        1 P4E      0.002000
      5 C05        -2.2710   -0.5060   -0.1690 c1        1 P4E     -0.123000
      6 C06        -3.0250   -0.4800   -1.3430 c2        1 P4E     -0.134000
      7 C07        -0.3510   -1.3850    1.2330 c1        1 P4E     -0.154500
      8 C08         0.6430   -0.5070    1.4780 c1        1 P4E     -0.154500
      9 C09         0.9820    0.5730    0.4510 c2        1 P4E     -0.128000
     10 C10         1.7650    1.7190    1.1530 c3        1 P4E     -0.126000
     11 C11         3.1800    1.3330    1.2960 c2        1 P4E      0.305000
     12 O12         3.6240    0.9490    2.4300 o         1 P4E     -0.577000
     13 N32         1.6740    2.9130    0.3720 n3        1 P4E     -0.321000
     14 H01        -3.1650   -1.2300   -3.2490 ha        1 P4E      0.114000
     15 H02        -1.2330   -2.6150   -3.1280 ha        1 P4E      0.114000
     16 H03         0.0330   -2.6470   -1.1290 DU        1 P4E      0.137500
     17 H05        -2.5400    0.0410    0.6000 DU        1 P4E      0.137500
     18 H06        -3.8350    0.0930   -1.4020 ha        1 P4E      0.120000
     19 H109        1.5400    0.1820   -0.2700 ha        1 P4E      0.083000
     20 H209        0.1290    0.9410    0.0550 ha        1 P4E      0.083000
     21 H10         1.3680    1.8850    2.0710 h1        1 P4E      0.084000
     22 HN32        0.8130    3.2310    0.3980 hn        1 P4E      0.126500
     23 H107       -0.5730   -2.0950    1.9100 ha        1 P4E      0.148500
     24 H108        1.1330   -0.5600    2.2900 ha        1 P4E      0.148500
     25 OXT         3.9310    1.2940    0.2770 o         1 P4E     -0.577000
     26 H2          2.2500    3.5530    0.7160 hn        1 P4E      0.126500
@<TRIPOS>BOND
     1    1    6 1   
     2    1   14 1   
     3    2    3 1   
     4    2   15 1   
     5    3    4 1   
     6    4    5 1   
     7    5    6 1   
     8    6   18 1   
     9    7    8 1   
    10    7   23 1   
    11    8   24 1   
    12    9   10 1   
    13    9   19 1   
    14    9   20 1   
    15   10   11 1   
    16   10   13 1   
    17   10   21 1   
    18   11   12 1   
    19   11   25 1   
    20   13   22 1   
    21   13   26 1   
@<TRIPOS>SUBSTRUCTURE
     1 P4E         1 TEMP              0 ****  ****    0 ROOT
