@<TRIPOS>MOLECULE
P4E
   26    26     1     0     0
SMALL
bcc


@<TRIPOS>ATOM
      1 C01         4.9890    0.4320    0.2240 ca        1 P4E     -0.156000
      2 C02         4.6820   -0.5390   -0.7290 ca        1 P4E     -0.132500
      3 C03         3.3570   -0.8910   -0.9700 ca        1 P4E     -0.137500
      4 C04         2.3110   -0.2730   -0.2620 ca        1 P4E     -0.007800
      5 C05         2.6330    0.6990    0.6990 ca        1 P4E     -0.137500
      6 C06         3.9610    1.0480    0.9360 ca        1 P4E     -0.132500
      7 C07         0.9410   -0.6630   -0.5360 ce        1 P4E     -0.209200
      8 C08        -0.1450    0.0650   -0.2290 c2        1 P4E     -0.069200
      9 C09        -1.5250   -0.3670   -0.5400 c3        1 P4E     -0.057200
     10 C10        -2.5850    0.3610    0.2880 c3        1 P4E      0.017500
     11 C11        -3.9900   -0.0070   -0.2980 c         1 P4E      0.888600
     12 O12        -4.9020   -0.3380    0.5120 o         1 P4E     -0.840800
     13 N32        -2.4470    0.1400    1.7210 n3        1 P4E     -0.893800
     14 H01         6.0350    0.7090    0.4130 ha        1 P4E      0.116000
     15 H02         5.4890   -1.0290   -1.2920 ha        1 P4E      0.118000
     16 H03         3.1210   -1.6570   -1.7220 ha        1 P4E      0.134000
     17 H05         1.8290    1.1830    1.2730 ha        1 P4E      0.134000
     18 H06         4.1970    1.8110    1.6920 ha        1 P4E      0.118000
     19 H109       -1.7540   -0.1470   -1.6220 hc        1 P4E      0.068700
     20 H209       -1.6290   -1.4770   -0.4050 hc        1 P4E      0.068700
     21 H10        -2.4590    1.4720    0.1260 h1        1 P4E      0.040700
     22 HN32       -3.3080    0.4400    2.1510 hn        1 P4E      0.332800
     23 H107        0.8260   -1.6340   -1.0480 ha        1 P4E      0.120000
     24 H108       -0.0580    1.0440    0.2740 ha        1 P4E      0.124000
     25 OXT        -4.1350    0.0690   -1.5500 o         1 P4E     -0.840800
     26 H2         -2.3800   -0.8490    1.8880 hn        1 P4E      0.332800
@<TRIPOS>BOND
     1    1    2 ar  
     2    1    6 ar  
     3    1   14 1   
     4    2    3 ar  
     5    2   15 1   
     6    3    4 ar  
     7    3   16 1   
     8    4    5 ar  
     9    4    7 1   
    10    5    6 ar  
    11    5   17 1   
    12    6   18 1   
    13    7    8 2   
    14    7   23 1   
    15    8    9 1   
    16    8   24 1   
    17    9   10 1   
    18    9   19 1   
    19    9   20 1   
    20   10   11 1   
    21   10   13 1   
    22   10   21 1   
    23   11   12 1   
    24   11   25 1   
    25   13   22 1   
    26   13   26 1   
@<TRIPOS>SUBSTRUCTURE
     1 P4E         1 TEMP              0 ****  ****    0 ROOT
