@<TRIPOS>MOLECULE
P4F
   20    18     1     0     0
SMALL
bcc


@<TRIPOS>ATOM
      1 C           3.8890    0.4140    0.6320 c2        1 P4F      0.338000
      2 N           3.0780   -1.4190   -0.8280 n3        1 P4F     -0.341000
      3 O           4.3640    1.1060   -0.3200 o         1 P4F     -0.612000
      4 CA          2.7560   -0.6140    0.3410 c3        1 P4F     -0.089000
      5 CB          1.4000    0.1130    0.2670 c3        1 P4F     -0.228000
      6 CG          0.2420   -0.7960   -0.0760 c2        1 P4F      0.233000
      7 FAA        -1.6750   -0.9760   -1.5250 f         1 P4F     -0.209500
      8 OAB        -2.4620    1.6640    1.1040 o         1 P4F     -1.205333
      9 PAI        -2.9250    0.5990    0.1700 p3        1 P4F      2.530000
     10 OAJ        -3.5350   -0.6070    0.8010 o         1 P4F     -1.205333
     11 FAN        -0.7980    0.9820   -1.3570 f         1 P4F     -0.209500
     12 OAO        -3.5480    1.0520   -1.1080 o         1 P4F     -1.205333
     13 CD1        -0.9970   -0.1710   -0.6380 c2        1 P4F     -0.319000
     14 OD2         0.2970   -2.0160    0.1850 o         1 P4F     -0.417000
     15 OXT         4.3270    0.5020    1.8180 o         1 P4F     -0.612000
     16 HN          2.2450   -1.8880   -1.1400 hn        1 P4F      0.124000
     17 HNA         3.3830   -0.8060   -1.5630 hn        1 P4F      0.124000
     18 HA          2.7060   -1.3290    1.2130 h1        1 P4F      0.087000
     19 HB          1.1920    0.5880    1.2600 hc        1 P4F      0.108000
     20 HBA         1.4540    0.9350   -0.4930 hc        1 P4F      0.108000
@<TRIPOS>BOND
     1    1    3 1   
     2    1    4 1   
     3    1   15 1   
     4    2    4 1   
     5    2   16 1   
     6    2   17 1   
     7    4    5 1   
     8    4   18 1   
     9    5    6 1   
    10    5   19 1   
    11    5   20 1   
    12    6   13 1   
    13    6   14 1   
    14    7   13 1   
    15    8    9 1   
    16    9   10 1   
    17    9   12 1   
    18   11   13 1   
@<TRIPOS>SUBSTRUCTURE
     1 P4F         1 TEMP              0 ****  ****    0 ROOT
