@<TRIPOS>MOLECULE
P4F
   20    18     1     0     0
SMALL
bcc


@<TRIPOS>ATOM
      1 C          -1.8970   -0.9740   -1.5030 c1        1 P4F      0.800000
      2 N           0.0890   -2.1350   -2.1740 nh        1 P4F     -0.489100
      3 O          -2.5260   -0.0150   -2.0230 o         1 P4F     -0.845500
      4 CA         -0.3850   -0.9740   -1.5030 c2        1 P4F      0.179200
      5 CB          0.1180   -0.9740   -0.0780 c3        1 P4F     -0.230700
      6 CG          0.1380    0.4440    0.4500 c         1 P4F      0.580100
      7 FAA         1.1660   -0.1150    2.4650 f         1 P4F     -0.281800
      8 OAB         1.5390    2.7470    3.4180 o         1 P4F     -0.887167
      9 PAI         0.6110    2.4080    2.2760 p5        1 P4F      1.164700
     10 OAJ        -0.8010    2.2780    2.7960 o         1 P4F     -0.887167
     11 FAN         2.3430    0.9800    0.9820 f         1 P4F     -0.281800
     12 OAO         0.6670    3.5040    1.2390 o         1 P4F     -0.887167
     13 CD1         1.1270    0.8370    1.5250 c3        1 P4F      0.182400
     14 OD2        -0.6410    1.2670    0.0100 o         1 P4F     -0.669100
     15 OXT        -2.5260   -1.9330   -0.9860 o         1 P4F     -0.845500
     16 HN          0.9410   -1.9910   -2.4660 hn        1 P4F      0.171200
     17 HNA        -0.4500   -2.3160   -2.8870 hn        1 P4F      0.171200
     18 HA         -0.0600   -0.1770   -1.9640 h4        1 P4F     -0.090200
     19 HB         -0.4720   -1.5190    0.4750 hc        1 P4F      0.072700
     20 HBA         1.0220   -1.3430   -0.0530 hc        1 P4F      0.072700
@<TRIPOS>BOND
     1    1    3 2   
     2    1   15 2   
     3    2    4 2   
     4    2   16 1   
     5    2   17 1   
     6    4    5 1   
     7    4   18 1   
     8    5    6 1   
     9    5   19 1   
    10    5   20 1   
    11    6   13 1   
    12    6   14 2   
    13    7   13 1   
    14    8    9 1   
    15    9   10 1   
    16    9   12 1   
    17    9   13 1   
    18   11   13 1   
@<TRIPOS>SUBSTRUCTURE
     1 P4F         1 TEMP              0 ****  ****    0 ROOT
