@<TRIPOS>MOLECULE
P4G
   29    28     1     0     0
SMALL
bcc


@<TRIPOS>ATOM
      1 C8          0.1730    1.5600    0.0520 c3        1 P4G     -0.097100
      2 C7          1.1370    0.4030   -0.0740 c3        1 P4G      0.131400
      3 O4          1.9930    0.4520    1.0660 os        1 P4G     -0.428600
      4 C6          2.9690   -0.5880    1.0540 c3        1 P4G      0.126400
      5 C5          3.7020   -0.5090    2.3890 c3        1 P4G      0.127400
      6 O3          3.3370   -1.6790    3.1190 os        1 P4G     -0.429600
      7 C4          3.8260   -1.6530    4.4580 c3        1 P4G      0.127400
      8 C3          3.5240   -3.0240    5.0550 c3        1 P4G      0.126400
      9 O2          4.7810   -3.6690    5.2440 os        1 P4G     -0.428600
     10 C2          4.6350   -5.0230    5.6680 c3        1 P4G      0.131400
     11 C1          6.0290   -5.5790    5.8490 c3        1 P4G     -0.097100
     12 H81         0.7280    2.5280    0.0780 hc        1 P4G      0.045033
     13 H82        -0.5220    1.5580   -0.8210 hc        1 P4G      0.045033
     14 H83        -0.4200    1.4710    0.9940 hc        1 P4G      0.045033
     15 H71         1.7530    0.4900   -1.0090 h1        1 P4G      0.024700
     16 H72         0.5910   -0.5780   -0.0900 h1        1 P4G      0.024700
     17 H61         2.4720   -1.5860    0.9300 h1        1 P4G      0.041700
     18 H62         3.6810   -0.4150    0.2040 h1        1 P4G      0.041700
     19 H51         3.4000    0.4120    2.9550 h1        1 P4G      0.043200
     20 H52         4.8120   -0.5060    2.2290 h1        1 P4G      0.043200
     21 H41         4.9300   -1.4510    4.4650 h1        1 P4G      0.043200
     22 H42         3.2930   -0.8490    5.0300 h1        1 P4G      0.043200
     23 H31         3.0120   -2.9160    6.0470 h1        1 P4G      0.041700
     24 H32         2.8770   -3.6260    4.3620 h1        1 P4G      0.041700
     25 H21         4.0680   -5.6010    4.8900 h1        1 P4G      0.024700
     26 H22         4.0600   -5.0530    6.6320 h1        1 P4G      0.024700
     27 H11         5.9630   -6.6420    6.1790 hc        1 P4G      0.045033
     28 H12         6.5960   -5.5260    4.8890 hc        1 P4G      0.045033
     29 H13         6.5860   -4.9900    6.6170 hc        1 P4G      0.045033
@<TRIPOS>BOND
     1    1    2 1   
     2    1   12 1   
     3    1   13 1   
     4    1   14 1   
     5    2    3 1   
     6    2   15 1   
     7    2   16 1   
     8    3    4 1   
     9    4    5 1   
    10    4   17 1   
    11    4   18 1   
    12    5    6 1   
    13    5   19 1   
    14    5   20 1   
    15    6    7 1   
    16    7    8 1   
    17    7   21 1   
    18    7   22 1   
    19    8    9 1   
    20    8   23 1   
    21    8   24 1   
    22    9   10 1   
    23   10   11 1   
    24   10   25 1   
    25   10   26 1   
    26   11   27 1   
    27   11   28 1   
    28   11   29 1   
@<TRIPOS>SUBSTRUCTURE
     1 P4G         1 TEMP              0 ****  ****    0 ROOT
