@<TRIPOS>MOLECULE
P4G
   29    28     1     0     0
SMALL
bcc


@<TRIPOS>ATOM
      1 C8         -5.0530   -0.1710   -3.2420 c3        1 P4G     -0.097100
      2 C7         -3.5800    0.0710   -3.2470 c3        1 P4G      0.132400
      3 O4         -3.0370   -0.2280   -1.9610 os        1 P4G     -0.428600
      4 C6         -1.6240    0.0360   -1.8570 c3        1 P4G      0.127400
      5 C5         -1.1120   -0.4530   -0.5110 c3        1 P4G      0.130400
      6 O3          0.2020    0.0760   -0.2750 os        1 P4G     -0.431600
      7 C4          0.8020   -0.4000    0.9170 c3        1 P4G      0.130400
      8 C3          2.1600    0.3350    1.1470 c3        1 P4G      0.127400
      9 O2          2.7270   -0.0850    2.4010 os        1 P4G     -0.428600
     10 C2          3.9380    0.5860    2.7420 c3        1 P4G      0.132400
     11 C1          4.5080   -0.0170    3.9990 c3        1 P4G     -0.097100
     12 H81        -5.4720    0.4070   -2.5870 hc        1 P4G      0.045367
     13 H82        -5.2290   -1.1010   -3.0160 hc        1 P4G      0.045367
     14 H83        -5.4190    0.0250   -4.1360 hc        1 P4G      0.045367
     15 H71        -3.4090    0.9910   -3.4590 h1        1 P4G      0.025700
     16 H72        -3.1700   -0.4890   -3.9030 h1        1 P4G      0.025700
     17 H61        -1.1490   -0.4360   -2.5780 h1        1 P4G      0.038700
     18 H62        -1.4650    1.0000   -1.9380 h1        1 P4G      0.038700
     19 H51        -1.0740   -1.4360   -0.5120 h1        1 P4G      0.041700
     20 H52        -1.7200   -0.1480    0.2010 h1        1 P4G      0.041700
     21 H41         0.9620   -1.3640    0.8400 h1        1 P4G      0.041700
     22 H42         0.1970   -0.2270    1.6820 h1        1 P4G      0.041700
     23 H31         2.0080    1.3170    1.1650 h1        1 P4G      0.038700
     24 H32         2.7850    0.1100    0.4120 h1        1 P4G      0.038700
     25 H21         3.7510    1.5460    2.8910 h1        1 P4G      0.025700
     26 H22         4.5820    0.4870    2.0100 h1        1 P4G      0.025700
     27 H11         4.7470   -0.9450    3.8340 hc        1 P4G      0.045367
     28 H12         3.8370    0.0280    4.7160 hc        1 P4G      0.045367
     29 H13         5.3040    0.4830    4.2670 hc        1 P4G      0.045367
@<TRIPOS>BOND
     1    1    2 1   
     2    1   12 1   
     3    1   13 1   
     4    1   14 1   
     5    2    3 1   
     6    2   15 1   
     7    2   16 1   
     8    3    4 1   
     9    4    5 1   
    10    4   17 1   
    11    4   18 1   
    12    5    6 1   
    13    5   19 1   
    14    5   20 1   
    15    6    7 1   
    16    7    8 1   
    17    7   21 1   
    18    7   22 1   
    19    8    9 1   
    20    8   23 1   
    21    8   24 1   
    22    9   10 1   
    23   10   11 1   
    24   10   25 1   
    25   10   26 1   
    26   11   27 1   
    27   11   28 1   
    28   11   29 1   
@<TRIPOS>SUBSTRUCTURE
     1 P4G         1 TEMP              0 ****  ****    0 ROOT
