@<TRIPOS>MOLECULE
P4G
   29    28     1     0     0
SMALL
bcc


@<TRIPOS>ATOM
      1 C8         -5.3560    0.3630   -1.0160 c3        1 P4G     -0.097100
      2 C7         -4.3200    0.7650    0.0090 c3        1 P4G      0.131400
      3 O4         -3.2470   -0.1690   -0.0990 os        1 P4G     -0.428600
      4 C6         -2.2050    0.0950    0.8380 c3        1 P4G      0.126400
      5 C5         -1.0710   -0.8700    0.5060 c3        1 P4G      0.127400
      6 O3         -0.0000   -0.0760    0.0000 os        1 P4G     -0.429600
      7 C4          1.0710   -0.8720   -0.5030 c3        1 P4G      0.127400
      8 C3          2.2050    0.0920   -0.8380 c3        1 P4G      0.126400
      9 O2          3.2470   -0.1690    0.1000 os        1 P4G     -0.428600
     10 C2          4.3200    0.7640   -0.0110 c3        1 P4G      0.131400
     11 C1          5.3560    0.3650    1.0150 c3        1 P4G     -0.097100
     12 H81        -4.9160    0.3860   -2.0420 hc        1 P4G      0.045033
     13 H82        -5.7210   -0.6720   -0.8150 hc        1 P4G      0.045033
     14 H83        -6.2160    1.0720   -0.9690 hc        1 P4G      0.045033
     15 H71        -3.9360    1.8010   -0.1900 h1        1 P4G      0.024700
     16 H72        -4.7440    0.7280    1.0480 h1        1 P4G      0.024700
     17 H61        -1.8610    1.1590    0.7480 h1        1 P4G      0.041700
     18 H62        -2.5870   -0.0900    1.8760 h1        1 P4G      0.041700
     19 H51        -0.7270   -1.4060    1.4300 h1        1 P4G      0.043200
     20 H52        -1.3970   -1.6190   -0.2640 h1        1 P4G      0.043200
     21 H41         1.3970   -1.6180    0.2700 h1        1 P4G      0.043200
     22 H42         0.7270   -1.4110   -1.4250 h1        1 P4G      0.043200
     23 H31         2.5870   -0.0970   -1.8750 h1        1 P4G      0.041700
     24 H32         1.8610    1.1570   -0.7520 h1        1 P4G      0.041700
     25 H21         4.7440    0.7240   -1.0500 h1        1 P4G      0.024700
     26 H22         3.9360    1.8010    0.1840 h1        1 P4G      0.024700
     27 H11         6.2160    1.0740    0.9660 hc        1 P4G      0.045033
     28 H12         4.9170    0.3920    2.0410 hc        1 P4G      0.045033
     29 H13         5.7210   -0.6700    0.8170 hc        1 P4G      0.045033
@<TRIPOS>BOND
     1    1    2 1   
     2    1   12 1   
     3    1   13 1   
     4    1   14 1   
     5    2    3 1   
     6    2   15 1   
     7    2   16 1   
     8    3    4 1   
     9    4    5 1   
    10    4   17 1   
    11    4   18 1   
    12    5    6 1   
    13    5   19 1   
    14    5   20 1   
    15    6    7 1   
    16    7    8 1   
    17    7   21 1   
    18    7   22 1   
    19    8    9 1   
    20    8   23 1   
    21    8   24 1   
    22    9   10 1   
    23   10   11 1   
    24   10   25 1   
    25   10   26 1   
    26   11   27 1   
    27   11   28 1   
    28   11   29 1   
@<TRIPOS>SUBSTRUCTURE
     1 P4G         1 TEMP              0 ****  ****    0 ROOT
