@<TRIPOS>MOLECULE
P4G
   29    28     1     0     0
SMALL
bcc


@<TRIPOS>ATOM
      1 C8          0.0950    1.5580    0.1390 c3        1 P4G     -0.097100
      2 C7          1.0670    0.4120   -0.0150 c3        1 P4G      0.131400
      3 O4          1.9440    0.4590    1.1100 os        1 P4G     -0.428600
      4 C6          2.9290   -0.5710    1.0700 c3        1 P4G      0.126400
      5 C5          3.6850   -0.4980    2.3930 c3        1 P4G      0.127400
      6 O3          3.3400   -1.6750    3.1210 os        1 P4G     -0.429600
      7 C4          3.8540   -1.6570    4.4510 c3        1 P4G      0.127400
      8 C3          3.5690   -3.0340    5.0430 c3        1 P4G      0.126400
      9 O2          4.8320   -3.6770    5.1980 os        1 P4G     -0.428600
     10 C2          4.6990   -5.0350    5.6130 c3        1 P4G      0.131400
     11 C1          6.0980   -5.5880    5.7580 c3        1 P4G     -0.097100
     12 H81         0.6410    2.5320    0.1640 hc        1 P4G      0.045033
     13 H82        -0.6160    1.5580   -0.7210 hc        1 P4G      0.045033
     14 H83        -0.4800    1.4550    1.0900 hc        1 P4G      0.045033
     15 H71         1.6660    0.5140   -0.9600 h1        1 P4G      0.024700
     16 H72         0.5310   -0.5740   -0.0300 h1        1 P4G      0.024700
     17 H61         2.4390   -1.5730    0.9460 h1        1 P4G      0.041700
     18 H62         3.6240   -0.3840    0.2100 h1        1 P4G      0.041700
     19 H51         3.3870    0.4170    2.9710 h1        1 P4G      0.043200
     20 H52         4.7920   -0.4870    2.2140 h1        1 P4G      0.043200
     21 H41         4.9570   -1.4500    4.4390 h1        1 P4G      0.043200
     22 H42         3.3270   -0.8590    5.0380 h1        1 P4G      0.043200
     23 H31         3.0790   -2.9360    6.0470 h1        1 P4G      0.041700
     24 H32         2.9080   -3.6320    4.3600 h1        1 P4G      0.041700
     25 H21         4.1160   -5.6070    4.8420 h1        1 P4G      0.024700
     26 H22         4.1460   -5.0750    6.5900 h1        1 P4G      0.024700
     27 H11         6.0430   -6.6540    6.0790 hc        1 P4G      0.045033
     28 H12         6.6430   -5.5250    4.7850 hc        1 P4G      0.045033
     29 H13         6.6710   -5.0050    6.5180 hc        1 P4G      0.045033
@<TRIPOS>BOND
     1    1    2 1   
     2    1   12 1   
     3    1   13 1   
     4    1   14 1   
     5    2    3 1   
     6    2   15 1   
     7    2   16 1   
     8    3    4 1   
     9    4    5 1   
    10    4   17 1   
    11    4   18 1   
    12    5    6 1   
    13    5   19 1   
    14    5   20 1   
    15    6    7 1   
    16    7    8 1   
    17    7   21 1   
    18    7   22 1   
    19    8    9 1   
    20    8   23 1   
    21    8   24 1   
    22    9   10 1   
    23   10   11 1   
    24   10   25 1   
    25   10   26 1   
    26   11   27 1   
    27   11   28 1   
    28   11   29 1   
@<TRIPOS>SUBSTRUCTURE
     1 P4G         1 TEMP              0 ****  ****    0 ROOT
