@<TRIPOS>MOLECULE
P4L
   28    23     1     0     0
SMALL
bcc


@<TRIPOS>ATOM
      1 N1         -1.2560    0.1310   -0.8170 n1        1 P4L     -0.537800
      2 C2          0.2000    0.1540   -0.8500 c1        1 P4L      0.396300
      3 N3          0.9380    0.1560    0.3530 n1        1 P4L     -0.465800
      4 C4          0.3140    0.1380    1.5050 c1        1 P4L      0.064900
      5 C5         -1.2380    0.1140    1.5410 c1        1 P4L     -0.157100
      6 C6         -1.9270    0.1120    0.3970 c1        1 P4L      0.522400
      7 O6         -3.3330    0.0730    0.4230 oh        1 P4L     -0.464600
      8 CAB         1.3300   -0.4460   -4.6940 c1        1 P4L     -0.063250
      9 CAC         1.3680    0.8570   -4.2910 c1        1 P4L     -0.063250
     10 CAD         1.0570   -1.4470   -3.7750 c1        1 P4L     -0.063250
     11 CAE         1.1370    1.1730   -2.9840 c1        1 P4L     -0.063250
     12 CAF         0.3890   -0.2680    4.1240 c3        1 P4L     -0.013300
     13 CAG         1.1600    0.0110    2.9960 c3        1 P4L     -0.067300
     14 CAH        -1.9500    0.1750    2.9640 c3        1 P4L      0.019800
     15 NAI         0.8260   -1.1300   -2.4700 n1        1 P4L     -0.465800
     16 SAL        -1.0320    0.3870    4.1760 ss        1 P4L     -0.299200
     17 CAN         0.8640    0.1710   -2.0670 c1        1 P4L      0.396300
     18 HO6        -3.6370   -0.1830   -0.3720 ho        1 P4L      0.451000
     19 HAB         1.4950   -0.6740   -5.6280 ha        1 P4L      0.094000
     20 HAC         1.5600    1.5620   -4.9380 ha        1 P4L      0.094000
     21 HAD         1.0300   -2.3800   -4.0620 ha        1 P4L      0.094000
     22 HAE         1.1640    2.1050   -2.6950 ha        1 P4L      0.094000
     23 HAF         0.8870    0.0500    4.9050 h1        1 P4L      0.079700
     24 HAFA        0.2670   -1.2390    4.1630 h1        1 P4L      0.079700
     25 HAG         1.6100    0.8670    3.1520 hc        1 P4L      0.078200
     26 HAGA        1.8150   -0.7110    2.9020 hc        1 P4L      0.078200
     27 HAH        -2.6010    0.9050    2.9460 h1        1 P4L      0.090700
     28 HAHA       -2.4360   -0.6640    3.0960 h1        1 P4L      0.090700
@<TRIPOS>BOND
     1    1    6 3   
     2    2    3 3   
     3    4    5 3   
     4    4   13 1   
     5    5   14 1   
     6    6    7 1   
     7    7   18 1   
     8    8   10 3   
     9    8   19 1   
    10    9   11 3   
    11    9   20 1   
    12   10   21 1   
    13   11   22 1   
    14   12   13 1   
    15   12   16 1   
    16   12   23 1   
    17   12   24 1   
    18   13   25 1   
    19   13   26 1   
    20   14   16 1   
    21   14   27 1   
    22   14   28 1   
    23   15   17 3   
@<TRIPOS>SUBSTRUCTURE
     1 P4L         1 TEMP              0 ****  ****    0 ROOT
