@<TRIPOS>MOLECULE
P4L
   28    30     1     0     0
SMALL
bcc


@<TRIPOS>ATOM
      1 N1          0.0050   -0.4710   -0.0320 nb        1 P4L     -0.759000
      2 C2          1.3450   -0.2010    0.0120 cp        1 P4L      0.635000
      3 N3          2.0940    0.0170    1.1320 nb        1 P4L     -0.680000
      4 C4          1.4410   -0.0540    2.3190 ca        1 P4L      0.460600
      5 C5          0.0570   -0.3400    2.4110 ca        1 P4L     -0.321900
      6 C6         -0.6190   -0.5360    1.1750 ca        1 P4L      0.667600
      7 O6         -1.9610   -0.8090    1.2330 oh        1 P4L     -0.606300
      8 CAB         3.3480    0.0140   -3.7220 ca        1 P4L     -0.236300
      9 CAC         2.3610    0.9560   -3.4370 ca        1 P4L     -0.097000
     10 CAD         3.6290   -0.9750   -2.7580 ca        1 P4L      0.393200
     11 CAE         1.6930    0.8890   -2.2110 ca        1 P4L     -0.209300
     12 CAF         1.5030    1.2120    4.4540 c3        1 P4L     -0.012300
     13 CAG         2.1930    0.1790    3.5970 c3        1 P4L     -0.134700
     14 CAH        -0.6260   -0.4410    3.7080 c3        1 P4L      0.054000
     15 NAI         3.0040   -1.0620   -1.5710 nb        1 P4L     -0.632000
     16 SAL        -0.1820    0.8410    4.8500 ss        1 P4L     -0.301200
     17 CAN         2.0520   -0.1330   -1.3110 cp        1 P4L      0.363300
     18 HO6        -2.3100   -0.9220    0.3320 ho        1 P4L      0.449000
     19 HAC         2.1090    1.7420   -4.1630 ha        1 P4L      0.142000
     20 HAD         4.4000   -1.7440   -2.9440 h4        1 P4L      0.027100
     21 HAE         0.9060    1.6100   -1.9530 ha        1 P4L      0.153000
     22 HAF         1.5300    2.2080    3.9460 h1        1 P4L      0.078200
     23 HAFA        2.0420    1.3100    5.4300 h1        1 P4L      0.078200
     24 HAG         2.2540   -0.8020    4.1450 hc        1 P4L      0.080700
     25 HAGA        3.2470    0.5140    3.3920 hc        1 P4L      0.080700
     26 HAH        -0.3940   -1.4340    4.1750 h1        1 P4L      0.091200
     27 HAHA       -1.7380   -0.3690    3.5870 h1        1 P4L      0.091200
     28 HAB         3.8970    0.0330   -4.6730 ha        1 P4L      0.146000
@<TRIPOS>BOND
     1    1    2 ar  
     2    1    6 ar  
     3    2    3 ar  
     4    2   17 1   
     5    3    4 ar  
     6    4    5 ar  
     7    4   13 1   
     8    5    6 ar  
     9    5   14 1   
    10    6    7 1   
    11    7   18 1   
    12    8    9 ar  
    13    8   10 ar  
    14    8   28 1   
    15    9   11 ar  
    16    9   19 1   
    17   10   15 ar  
    18   10   20 1   
    19   11   17 ar  
    20   11   21 1   
    21   12   13 1   
    22   12   16 1   
    23   12   22 1   
    24   12   23 1   
    25   13   24 1   
    26   13   25 1   
    27   14   16 1   
    28   14   26 1   
    29   14   27 1   
    30   15   17 ar  
@<TRIPOS>SUBSTRUCTURE
     1 P4L         1 TEMP              0 ****  ****    0 ROOT
