@<TRIPOS>MOLECULE
P4L
   28    30     1     0     0
SMALL
bcc


@<TRIPOS>ATOM
      1 N1          0.0320   -0.5630   -0.0100 nb        1 P4L     -0.759000
      2 C2          1.3550   -0.2190    0.0180 cp        1 P4L      0.635000
      3 N3          2.0960    0.0690    1.1280 nb        1 P4L     -0.680000
      4 C4          1.4530   -0.0070    2.3200 ca        1 P4L      0.460600
      5 C5          0.0880   -0.3660    2.4280 ca        1 P4L     -0.321900
      6 C6         -0.5820   -0.6310    1.2020 ca        1 P4L      0.667600
      7 O6         -1.9070   -0.9760    1.2750 oh        1 P4L     -0.606300
      8 CAB         3.3250    0.0080   -3.7320 ca        1 P4L     -0.236300
      9 CAC         2.2890    0.9010   -3.4660 ca        1 P4L     -0.097000
     10 CAD         3.6660   -0.9370   -2.7450 ca        1 P4L      0.393200
     11 CAE         1.6310    0.8300   -2.2350 ca        1 P4L     -0.209300
     12 CAF         1.4560    1.3150    4.4210 c3        1 P4L     -0.012300
     13 CAG         2.1980    0.3000    3.5870 c3        1 P4L     -0.134700
     14 CAH        -0.5820   -0.4710    3.7310 c3        1 P4L      0.054000
     15 NAI         3.0520   -1.0270   -1.5510 nb        1 P4L     -0.631000
     16 SAL        -0.2040    0.8630    4.8380 ss        1 P4L     -0.301200
     17 CAN         2.0510   -0.1470   -1.3100 cp        1 P4L      0.363300
     18 HO6        -2.2540   -1.1300    0.3790 ho        1 P4L      0.449000
     19 HAC         1.9890    1.6520   -4.2110 ha        1 P4L      0.142000
     20 HAD         4.4780   -1.6670   -2.9150 h4        1 P4L      0.027100
     21 HAE         0.8060    1.5120   -1.9910 ha        1 P4L      0.153000
     22 HAF         1.4260    2.2980    3.8880 h1        1 P4L      0.078200
     23 HAFA        1.9930    1.4680    5.3910 h1        1 P4L      0.078200
     24 HAG         3.2310    0.6860    3.3670 hc        1 P4L      0.080700
     25 HAGA        2.3150   -0.6620    4.1590 hc        1 P4L      0.080700
     26 HAH        -1.6980   -0.4630    3.6150 h1        1 P4L      0.091200
     27 HAHA       -0.2950   -1.4370    4.2220 h1        1 P4L      0.091200
     28 HAB         3.8680    0.0320   -4.6860 ha        1 P4L      0.146000
@<TRIPOS>BOND
     1    1    2 ar  
     2    1    6 ar  
     3    2    3 ar  
     4    2   17 1   
     5    3    4 ar  
     6    4    5 ar  
     7    4   13 1   
     8    5    6 ar  
     9    5   14 1   
    10    6    7 1   
    11    7   18 1   
    12    8    9 ar  
    13    8   10 ar  
    14    8   28 1   
    15    9   11 ar  
    16    9   19 1   
    17   10   15 ar  
    18   10   20 1   
    19   11   17 ar  
    20   11   21 1   
    21   12   13 1   
    22   12   16 1   
    23   12   22 1   
    24   12   23 1   
    25   13   24 1   
    26   13   25 1   
    27   14   16 1   
    28   14   26 1   
    29   14   27 1   
    30   15   17 ar  
@<TRIPOS>SUBSTRUCTURE
     1 P4L         1 TEMP              0 ****  ****    0 ROOT
