@<TRIPOS>MOLECULE
P4L
   28    30     1     0     0
SMALL
bcc


@<TRIPOS>ATOM
      1 N1         -0.5120    1.4310    0.4220 nb        1 P4L     -0.759000
      2 C2         -0.9430    0.1530    0.1920 cp        1 P4L      0.635000
      3 N3         -0.1570   -0.9430   -0.0160 nb        1 P4L     -0.680000
      4 C4          1.1840   -0.7430    0.0230 ca        1 P4L      0.460600
      5 C5          1.7570    0.5290    0.2680 ca        1 P4L     -0.321900
      6 C6          0.8370    1.5970    0.4570 ca        1 P4L      0.667600
      7 O6          1.3630    2.8410    0.6900 oh        1 P4L     -0.606300
      8 CAB        -5.1430   -0.4300    0.0750 ca        1 P4L     -0.236300
      9 CAC        -4.5520    0.3730   -0.8990 ca        1 P4L     -0.097000
     10 CAD        -4.3180   -1.0050    1.0610 ca        1 P4L      0.393200
     11 CAE        -3.1700    0.5740   -0.8650 ca        1 P4L     -0.209300
     12 CAF         3.1380   -1.5740   -1.2620 c3        1 P4L     -0.012300
     13 CAG         2.1160   -1.8990   -0.2010 c3        1 P4L     -0.134700
     14 CAH         3.2120    0.7200    0.3350 c3        1 P4L      0.054000
     15 NAI        -2.9860   -0.8310    1.1170 nb        1 P4L     -0.632000
     16 SAL         4.1030   -0.1230   -0.9450 ss        1 P4L     -0.301200
     17 CAN        -2.4300   -0.0510    0.1580 cp        1 P4L      0.363300
     18 HO6         0.6420    3.4850    0.8020 ho        1 P4L      0.449000
     19 HAC        -5.1610    0.8440   -1.6850 ha        1 P4L      0.142000
     20 HAD        -4.7450   -1.6440    1.8550 h4        1 P4L      0.027100
     21 HAE        -2.6680    1.2050   -1.6110 ha        1 P4L      0.153000
     22 HAF         3.8640   -2.4200   -1.3550 h1        1 P4L      0.078200
     23 HAFA        2.6330   -1.4460   -2.2520 h1        1 P4L      0.078200
     24 HAG         2.6280   -2.1220    0.7750 hc        1 P4L      0.080700
     25 HAGA        1.5510   -2.8220   -0.5020 hc        1 P4L      0.080700
     26 HAH         3.4840    1.8030    0.2320 h1        1 P4L      0.091200
     27 HAHA        3.5890    0.3640    1.3300 h1        1 P4L      0.091200
     28 HAB        -6.2250   -0.6140    0.0820 ha        1 P4L      0.146000
@<TRIPOS>BOND
     1    1    2 ar  
     2    1    6 ar  
     3    2    3 ar  
     4    2   17 1   
     5    3    4 ar  
     6    4    5 ar  
     7    4   13 1   
     8    5    6 ar  
     9    5   14 1   
    10    6    7 1   
    11    7   18 1   
    12    8    9 ar  
    13    8   10 ar  
    14    8   28 1   
    15    9   11 ar  
    16    9   19 1   
    17   10   15 ar  
    18   10   20 1   
    19   11   17 ar  
    20   11   21 1   
    21   12   13 1   
    22   12   16 1   
    23   12   22 1   
    24   12   23 1   
    25   13   24 1   
    26   13   25 1   
    27   14   16 1   
    28   14   26 1   
    29   14   27 1   
    30   15   17 ar  
@<TRIPOS>SUBSTRUCTURE
     1 P4L         1 TEMP              0 ****  ****    0 ROOT
