@<TRIPOS>MOLECULE
P4O
   42    46     1     0     0
SMALL
bcc


@<TRIPOS>ATOM
      1 C19         0.0100    0.0330    0.0840 ca        1 P4O     -0.036000
      2 C20         1.4330    0.0260    0.0330 ca        1 P4O     -0.153300
      3 C25         2.2250    0.2130    1.1940 ca        1 P4O     -0.106000
      4 C24         3.5960    0.2020    1.1100 ca        1 P4O     -0.128000
      5 C23         4.2320    0.0040   -0.1390 ca        1 P4O     -0.119000
      6 C22         3.4980   -0.1810   -1.2840 ca        1 P4O     -0.168300
      7 C21         2.0680   -0.1760   -1.2320 ca        1 P4O      0.397600
      8 N16         1.3330   -0.3710   -2.3890 nb        1 P4O     -0.659000
      9 C17         0.0180   -0.3550   -2.2980 ca        1 P4O      0.423200
     10 C18        -0.7100   -0.1450   -1.0770 cp        1 P4O     -0.271800
     11 C14        -2.1790   -0.1290   -1.1040 cp        1 P4O      0.472800
     12 C13        -2.8330    0.4830   -2.1970 ca        1 P4O     -0.250300
     13 N15        -2.8600   -0.6970   -0.0720 nb        1 P4O     -0.663000
     14 C10        -4.2010   -0.6670   -0.1280 ca        1 P4O      0.406200
     15 C11        -4.9370   -0.0920   -1.1770 ca        1 P4O     -0.236300
     16 C12        -4.2350    0.5020   -2.2380 ca        1 P4O      0.040000
     17 C2         -4.9660    1.1190   -3.3240 cc        1 P4O     -0.108300
     18 C3         -6.3040    1.5710   -3.3220 cd        1 P4O     -0.083000
     19 C4         -6.5630    2.1030   -4.6190 cd        1 P4O     -0.217600
     20 C6         -7.7710    2.6960   -5.1870 c         1 P4O      0.741100
     21 O26        -8.8720    2.7540   -4.6050 o         1 P4O     -0.637500
     22 N7         -7.6540    3.1750   -6.4920 ns        1 P4O     -0.578900
     23 C8         -6.3810    3.4120   -7.1130 c3        1 P4O      0.108000
     24 C9         -5.2860    2.3770   -6.8000 c3        1 P4O     -0.029100
     25 C5         -5.3800    1.9630   -5.3850 cc        1 P4O     -0.060600
     26 N1         -4.4150    1.3700   -4.5960 na        1 P4O     -0.147100
     27 H19        -0.4900    0.1820    1.0540 ha        1 P4O      0.156000
     28 H25         1.7190    0.3640    2.1600 ha        1 P4O      0.138000
     29 H24         4.2140    0.3460    2.0080 ha        1 P4O      0.136000
     30 H23         5.3320    0.0000   -0.1790 ha        1 P4O      0.137000
     31 H22         3.9960   -0.3360   -2.2540 ha        1 P4O      0.151000
     32 H17        -0.5360   -0.5310   -3.2380 h4        1 P4O      0.019100
     33 H13        -2.2310    0.9580   -2.9830 ha        1 P4O      0.137000
     34 H10        -4.7200   -1.1400    0.7270 h4        1 P4O      0.027100
     35 H11        -6.0350   -0.1100   -1.1650 ha        1 P4O      0.154000
     36 H3         -7.0060    1.5300   -2.4930 ha        1 P4O      0.173000
     37 H1         -3.5000    1.1320   -4.8740 hn        1 P4O      0.301700
     38 H7         -8.4340    3.6580   -6.8730 hn        1 P4O      0.319500
     39 H8C1       -6.5370    3.4250   -8.2300 h1        1 P4O      0.040200
     40 H8C2       -5.9910    4.4290   -6.8110 h1        1 P4O      0.040200
     41 H9C1       -4.2900    2.8350   -7.0350 hc        1 P4O      0.065200
     42 H9C2       -5.4140    1.4740   -7.4570 hc        1 P4O      0.065200
@<TRIPOS>BOND
     1    1    2 ar  
     2    1   10 ar  
     3    1   27 1   
     4    2    3 ar  
     5    2    7 ar  
     6    3    4 ar  
     7    3   28 1   
     8    4    5 ar  
     9    4   29 1   
    10    5    6 ar  
    11    5   30 1   
    12    6    7 ar  
    13    6   31 1   
    14    7    8 ar  
    15    8    9 ar  
    16    9   10 ar  
    17    9   32 1   
    18   10   11 1   
    19   11   12 ar  
    20   11   13 ar  
    21   12   16 ar  
    22   12   33 1   
    23   13   14 ar  
    24   14   15 ar  
    25   14   34 1   
    26   15   16 ar  
    27   15   35 1   
    28   16   17 1   
    29   17   18 2   
    30   17   26 1   
    31   18   19 1   
    32   18   36 1   
    33   19   20 1   
    34   19   25 2   
    35   20   21 2   
    36   20   22 1   
    37   22   23 1   
    38   22   38 1   
    39   23   24 1   
    40   23   39 1   
    41   23   40 1   
    42   24   25 1   
    43   24   41 1   
    44   24   42 1   
    45   25   26 1   
    46   26   37 1   
@<TRIPOS>SUBSTRUCTURE
     1 P4O         1 TEMP              0 ****  ****    0 ROOT
