@<TRIPOS>MOLECULE
P4O
   42    46     1     0     0
SMALL
bcc


@<TRIPOS>ATOM
      1 C19         0.0120    0.0470    0.0870 ca        1 P4O     -0.036000
      2 C20         1.4350    0.0380    0.0340 ca        1 P4O     -0.153300
      3 C25         2.2280    0.2320    1.1940 ca        1 P4O     -0.106000
      4 C24         3.5990    0.2190    1.1080 ca        1 P4O     -0.128000
      5 C23         4.2340    0.0130   -0.1400 ca        1 P4O     -0.119000
      6 C22         3.4990   -0.1780   -1.2830 ca        1 P4O     -0.168300
      7 C21         2.0680   -0.1720   -1.2300 ca        1 P4O      0.397600
      8 N16         1.3330   -0.3730   -2.3850 nb        1 P4O     -0.659000
      9 C17         0.0180   -0.3550   -2.2930 ca        1 P4O      0.423200
     10 C18        -0.7100   -0.1370   -1.0720 cp        1 P4O     -0.271800
     11 C14        -2.1790   -0.1200   -1.0980 cp        1 P4O      0.472800
     12 C13        -2.8330    0.4860   -2.1940 ca        1 P4O     -0.250300
     13 N15        -2.8590   -0.6810   -0.0630 nb        1 P4O     -0.663000
     14 C10        -4.2000   -0.6500   -0.1170 ca        1 P4O      0.406200
     15 C11        -4.9360   -0.0810   -1.1690 ca        1 P4O     -0.236300
     16 C12        -4.2350    0.5060   -2.2340 ca        1 P4O      0.040000
     17 C2         -4.9670    1.1180   -3.3230 cc        1 P4O     -0.108300
     18 C3         -6.3040    1.5690   -3.3230 cd        1 P4O     -0.083000
     19 C4         -6.5640    2.0950   -4.6230 cd        1 P4O     -0.217600
     20 C6         -7.7720    2.6840   -5.1930 c         1 P4O      0.741100
     21 O26        -8.8730    2.7460   -4.6110 o         1 P4O     -0.637500
     22 N7         -7.6560    3.1570   -6.5000 n         1 P4O     -0.578900
     23 C8         -6.3830    3.3890   -7.1240 c3        1 P4O      0.108000
     24 C9         -5.2880    2.3560   -6.8050 c3        1 P4O     -0.029100
     25 C5         -5.3810    1.9500   -5.3880 cc        1 P4O     -0.060600
     26 N1         -4.4170    1.3610   -4.5960 na        1 P4O     -0.147100
     27 H19        -0.4870    0.2020    1.0570 ha        1 P4O      0.156000
     28 H25         1.7230    0.3890    2.1590 ha        1 P4O      0.138000
     29 H24         4.2180    0.3680    2.0050 ha        1 P4O      0.136000
     30 H23         5.3340    0.0070   -0.1820 ha        1 P4O      0.137000
     31 H22         3.9950   -0.3400   -2.2530 ha        1 P4O      0.151000
     32 H17        -0.5380   -0.5360   -3.2320 h4        1 P4O      0.019100
     33 H13        -2.2320    0.9560   -2.9840 ha        1 P4O      0.137000
     34 H10        -4.7190   -1.1180    0.7410 h4        1 P4O      0.027100
     35 H11        -6.0340   -0.0980   -1.1560 ha        1 P4O      0.154000
     36 H3         -7.0060    1.5340   -2.4930 ha        1 P4O      0.173000
     37 H1         -3.5010    1.1210   -4.8740 hn        1 P4O      0.301700
     38 H7         -8.4360    3.6380   -6.8840 hn        1 P4O      0.319500
     39 H8C1       -5.9920    4.4090   -6.8280 h1        1 P4O      0.040200
     40 H8C2       -6.5400    3.3960   -8.2410 h1        1 P4O      0.040200
     41 H9C1       -5.4170    1.4500   -7.4580 hc        1 P4O      0.065200
     42 H9C2       -4.2920    2.8120   -7.0440 hc        1 P4O      0.065200
@<TRIPOS>BOND
     1    1    2 ar  
     2    1   10 ar  
     3    1   27 1   
     4    2    3 ar  
     5    2    7 ar  
     6    3    4 ar  
     7    3   28 1   
     8    4    5 ar  
     9    4   29 1   
    10    5    6 ar  
    11    5   30 1   
    12    6    7 ar  
    13    6   31 1   
    14    7    8 ar  
    15    8    9 ar  
    16    9   10 ar  
    17    9   32 1   
    18   10   11 1   
    19   11   12 ar  
    20   11   13 ar  
    21   12   16 ar  
    22   12   33 1   
    23   13   14 ar  
    24   14   15 ar  
    25   14   34 1   
    26   15   16 ar  
    27   15   35 1   
    28   16   17 1   
    29   17   18 2   
    30   17   26 1   
    31   18   19 1   
    32   18   36 1   
    33   19   20 1   
    34   19   25 2   
    35   20   21 2   
    36   20   22 1   
    37   22   23 1   
    38   22   38 1   
    39   23   24 1   
    40   23   39 1   
    41   23   40 1   
    42   24   25 1   
    43   24   41 1   
    44   24   42 1   
    45   25   26 1   
    46   26   37 1   
@<TRIPOS>SUBSTRUCTURE
     1 P4O         1 TEMP              0 ****  ****    0 ROOT
