@<TRIPOS>MOLECULE
P4O
   42    33     1     0     0
SMALL
bcc


@<TRIPOS>ATOM
      1 C19         2.6340    0.8390    2.2330 c1        1 P4O      0.020500
      2 C20         4.0500    0.8050    2.2240 cg        1 P4O     -0.090000
      3 C25         4.7910    1.9890    2.4750 c1        1 P4O     -0.060667
      4 C24         6.1850    1.9550    2.4650 c1        1 P4O     -0.060667
      5 C23         6.8440    0.7720    2.2130 c1        1 P4O     -0.060667
      6 C22         6.1170   -0.3940    1.9660 c1        1 P4O     -0.060667
      7 C21         4.6980   -0.3610    1.9750 cg        1 P4O      0.331800
      8 N16         3.9640   -1.5330    1.7260 n1        1 P4O     -0.456800
      9 C17         2.5930   -1.4990    1.7350 c1        1 P4O     -0.043500
     10 C18         1.9250   -0.2990    1.9910 c1        1 P4O     -0.030500
     11 C14         0.5470   -0.2990    1.9480 c1        1 P4O      0.363800
     12 C13        -0.1130   -0.2730    0.7140 c1        1 P4O     -0.043500
     13 N15        -0.1750   -0.3220    3.1140 n1        1 P4O     -0.463800
     14 C10        -1.5380   -0.3210    3.0740 c1        1 P4O     -0.060667
     15 C11        -2.2000   -0.2960    1.8450 c1        1 P4O     -0.060667
     16 C12        -1.4740   -0.2720    0.6720 c1        1 P4O     -0.030500
     17 C2         -2.1430   -0.2420   -0.5740 c1        1 P4O      0.135400
     18 C3         -2.4850    0.9230   -1.3020 c1        1 P4O     -0.083000
     19 C4         -3.2200    0.5390   -2.3870 c1        1 P4O     -0.132900
     20 C6         -3.8370    1.2920   -3.6400 c1        1 P4O      0.611500
     21 O26        -3.5600    2.4760   -3.8480 o         1 P4O     -0.593500
     22 N7         -4.3340    0.5140   -4.6570 n3        1 P4O     -0.418400
     23 C8         -4.9690   -0.6660   -4.3130 c3        1 P4O      0.052300
     24 C9         -4.2370   -1.5590   -3.4540 c3        1 P4O     -0.031200
     25 C5         -3.3460   -0.8760   -2.3490 ce        1 P4O      0.043300
     26 N1         -2.6810   -1.3340   -1.2330 ne        1 P4O     -0.507000
     27 H19         2.1580    1.6910    2.4190 ha        1 P4O      0.096500
     28 H25         4.3230    2.8310    2.6520 ha        1 P4O      0.085333
     29 H24         6.7200    2.8110    2.6460 ha        1 P4O      0.085333
     30 H23         7.8050    0.7490    2.2070 ha        1 P4O      0.085333
     31 H22         6.5580   -1.1840    1.7980 ha        1 P4O      0.085333
     32 H17         2.0720   -2.3310    1.5580 ha        1 P4O      0.102000
     33 H13         0.4210   -0.2550   -0.1480 ha        1 P4O      0.102000
     34 H10        -2.0690   -0.3390    3.9330 ha        1 P4O      0.085333
     35 H11        -3.1440   -0.2950    1.8160 ha        1 P4O      0.085333
     36 H3         -2.3110    1.8370   -1.0270 DU        1 P4O      0.213000
     37 H1         -2.6810   -2.1690   -0.9380 DU        1 P4O      0.213000
     38 H7         -4.4390    0.8550   -5.4660 hn        1 P4O      0.282700
     39 H8C1       -5.1510   -1.1760   -5.1910 h1        1 P4O      0.040200
     40 H8C2       -5.8210   -0.4080   -3.8140 h1        1 P4O      0.040200
     41 H9C1       -4.8640   -2.0830   -3.0110 hc        1 P4O      0.064700
     42 H9C2       -3.6120   -2.0940   -4.0470 hc        1 P4O      0.064700
@<TRIPOS>BOND
     1    1    2 3   
     2    1   27 1   
     3    2    7 1   
     4    3    4 3   
     5    3   28 1   
     6    4   29 1   
     7    5    6 3   
     8    5   30 1   
     9    6   31 1   
    10    7    8 3   
    11    9   10 3   
    12    9   32 1   
    13   11   13 3   
    14   12   16 3   
    15   12   33 1   
    16   14   15 3   
    17   14   34 1   
    18   15   35 1   
    19   17   18 2   
    20   17   26 2   
    21   18   19 2   
    22   19   25 2   
    23   20   21 2   
    24   20   22 2   
    25   22   23 1   
    26   22   38 1   
    27   23   24 1   
    28   23   39 1   
    29   23   40 1   
    30   24   25 1   
    31   24   41 1   
    32   24   42 1   
    33   25   26 1   
@<TRIPOS>SUBSTRUCTURE
     1 P4O         1 TEMP              0 ****  ****    0 ROOT
