@<TRIPOS>MOLECULE
P4O
   42    46     1     0     0
SMALL
bcc


@<TRIPOS>ATOM
      1 C19        -3.0490    3.9900   -1.2680 ca        1 P4O     -0.036000
      2 C20        -4.3460    4.5740   -1.1900 ca        1 P4O     -0.153300
      3 C25        -4.5510    5.9650   -1.3720 ca        1 P4O     -0.106000
      4 C24        -5.8150    6.4970   -1.2880 ca        1 P4O     -0.128000
      5 C23        -6.9240    5.6620   -1.0200 ca        1 P4O     -0.119000
      6 C22        -6.7640    4.3110   -0.8390 ca        1 P4O     -0.168300
      7 C21        -5.4620    3.7230   -0.9200 ca        1 P4O      0.397600
      8 N16        -5.3070    2.3580   -0.7450 nb        1 P4O     -0.659000
      9 C17        -4.0900    1.8580   -0.8220 ca        1 P4O      0.423200
     10 C18        -2.9060    2.6330   -1.0750 cp        1 P4O     -0.271800
     11 C14        -1.5980    1.9630   -1.1200 cp        1 P4O      0.472800
     12 C13        -1.3370    0.9200   -0.2040 ca        1 P4O     -0.250300
     13 N15        -0.6820    2.3770   -2.0360 nb        1 P4O     -0.663000
     14 C10         0.5020    1.7440   -2.0530 ca        1 P4O      0.406200
     15 C11         0.8480    0.6900   -1.1900 ca        1 P4O     -0.236300
     16 C12        -0.0940    0.2690   -0.2390 ca        1 P4O      0.040000
     17 C2          0.2410   -0.8020    0.6760 cc        1 P4O     -0.108300
     18 C3          1.5260   -1.2650    1.0350 cd        1 P4O     -0.083000
     19 C4          1.3370   -2.3290    1.9640 cd        1 P4O     -0.217600
     20 C6          2.3030   -3.1790    2.6560 c         1 P4O      0.741100
     21 O26         3.5340   -3.1560    2.4600 o         1 P4O     -0.637500
     22 N7          1.7650   -4.0980    3.5560 n         1 P4O     -0.578900
     23 C8          0.4200   -3.9940    4.0510 c3        1 P4O      0.108000
     24 C9         -0.6320   -3.5370    3.0260 c3        1 P4O     -0.029100
     25 C5         -0.0580   -2.4950    2.1500 cc        1 P4O     -0.060600
     26 N1         -0.7160   -1.5660    1.3710 na        1 P4O     -0.147100
     27 H19        -2.1830    4.6350   -1.4810 ha        1 P4O      0.156000
     28 H25        -3.6800    6.6050   -1.5810 ha        1 P4O      0.138000
     29 H24        -5.9790    7.5760   -1.4290 ha        1 P4O      0.136000
     30 H23        -7.9270    6.1130   -0.9580 ha        1 P4O      0.137000
     31 H22        -7.6300    3.6620   -0.6320 ha        1 P4O      0.151000
     32 H17        -4.0050    0.7620   -0.6940 h4        1 P4O      0.019100
     33 H13        -2.1010    0.6530    0.5380 ha        1 P4O      0.137000
     34 H10         1.2210    2.1050   -2.8120 h4        1 P4O      0.027100
     35 H11         1.8320    0.2090   -1.2630 ha        1 P4O      0.154000
     36 H3          2.4800   -0.8830    0.6810 ha        1 P4O      0.173000
     37 H1         -1.6940   -1.4640    1.2860 hn        1 P4O      0.301700
     38 H7          2.4020   -4.6310    4.1030 hn        1 P4O      0.319500
     39 H8C1        0.3880   -3.2740    4.9230 h1        1 P4O      0.040200
     40 H8C2        0.1120   -5.0080    4.4360 h1        1 P4O      0.040200
     41 H9C1       -1.5310   -3.1650    3.5830 hc        1 P4O      0.065200
     42 H9C2       -0.9550   -4.4100    2.3960 hc        1 P4O      0.065200
@<TRIPOS>BOND
     1    1    2 ar  
     2    1   10 ar  
     3    1   27 1   
     4    2    3 ar  
     5    2    7 ar  
     6    3    4 ar  
     7    3   28 1   
     8    4    5 ar  
     9    4   29 1   
    10    5    6 ar  
    11    5   30 1   
    12    6    7 ar  
    13    6   31 1   
    14    7    8 ar  
    15    8    9 ar  
    16    9   10 ar  
    17    9   32 1   
    18   10   11 1   
    19   11   12 ar  
    20   11   13 ar  
    21   12   16 ar  
    22   12   33 1   
    23   13   14 ar  
    24   14   15 ar  
    25   14   34 1   
    26   15   16 ar  
    27   15   35 1   
    28   16   17 1   
    29   17   18 2   
    30   17   26 1   
    31   18   19 1   
    32   18   36 1   
    33   19   20 1   
    34   19   25 2   
    35   20   21 2   
    36   20   22 1   
    37   22   23 1   
    38   22   38 1   
    39   23   24 1   
    40   23   39 1   
    41   23   40 1   
    42   24   25 1   
    43   24   41 1   
    44   24   42 1   
    45   25   26 1   
    46   26   37 1   
@<TRIPOS>SUBSTRUCTURE
     1 P4O         1 TEMP              0 ****  ****    0 ROOT
