@<TRIPOS>MOLECULE
P4P
   45    39     1     0     0
SMALL
bcc


@<TRIPOS>ATOM
      1 P           0.0520    0.0720   -0.0630 p5        1 P4P      3.380000
      2 C1A         1.8670    0.0590   -0.1240 c2        1 P4P     -0.989000
      3 C2A         2.5990   -0.0540    1.0470 c2        1 P4P     -0.025000
      4 C3A         3.9830   -0.1140    0.9970 c1        1 P4P     -0.142000
      5 C4A         4.6350   -0.0610   -0.2250 c1        1 P4P     -0.090700
      6 C5A         3.9040    0.0530   -1.3970 c1        1 P4P     -0.090700
      7 C6A         2.5200    0.1120   -1.3460 c1        1 P4P     -0.033000
      8 C1C        -0.6110    0.0420   -1.7540 c2        1 P4P     -0.989000
      9 C6C        -0.9170   -1.1680   -2.3570 c2        1 P4P     -0.025000
     10 C5C        -1.3600   -1.1960   -3.6700 c1        1 P4P     -0.142000
     11 C4C        -1.4960   -0.0140   -4.3810 c1        1 P4P     -0.090700
     12 C3C        -1.1900    1.1960   -3.7790 c1        1 P4P     -0.090700
     13 C2C        -0.7470    1.2240   -2.4650 c1        1 P4P     -0.033000
     14 C1D        -0.5330   -1.3890    0.8430 c2        1 P4P     -0.989000
     15 C6D        -1.8800   -1.7170    0.8300 c2        1 P4P     -0.025000
     16 C5D        -2.3420   -2.7790    1.5930 c1        1 P4P     -0.142000
     17 C4D        -1.4570   -3.5120    2.3690 c1        1 P4P     -0.090700
     18 C3D        -0.1110   -3.1840    2.3810 c1        1 P4P     -0.090700
     19 C2D         0.3510   -2.1230    1.6180 c1        1 P4P     -0.033000
     20 C6B         0.1660    2.2040    1.8150 c1        1 P4P     -0.017000
     21 C5B        -0.4990    3.0990    2.6390 c1        1 P4P     -0.090700
     22 C4B        -1.8430    3.3650    2.4320 c1        1 P4P     -0.090700
     23 C3B        -2.5230    2.7360    1.4000 c1        1 P4P     -0.090700
     24 C2B        -1.8590    1.8420    0.5760 c1        1 P4P     -0.090700
     25 C1B        -0.5140    1.5760    0.7830 c1        1 P4P     -0.989000
     26 H2A         2.1400   -0.0920    1.9080 ha        1 P4P      0.146667
     27 H3A         4.4990   -0.1940    1.8220 ha        1 P4P      0.160667
     28 H4A         5.6100   -0.1030   -0.2600 ha        1 P4P      0.158800
     29 H5A         4.3630    0.0900   -2.2570 ha        1 P4P      0.158800
     30 H6A         2.0040    0.1920   -2.1720 ha        1 P4P      0.146333
     31 H6C        -0.8210   -2.0010   -1.8560 ha        1 P4P      0.146667
     32 H5C        -1.5760   -2.0480   -4.0940 ha        1 P4P      0.160667
     33 H4C        -1.8080   -0.0340   -5.3050 ha        1 P4P      0.158800
     34 H3C        -1.2860    2.0290   -4.2790 ha        1 P4P      0.158800
     35 H2C        -0.5310    2.0770   -2.0410 ha        1 P4P      0.146333
     36 H6D        -2.5030   -1.2010    0.2850 ha        1 P4P      0.146667
     37 H5D        -3.2910   -3.0090    1.5840 ha        1 P4P      0.160667
     38 H4D        -1.7830   -4.2590    2.9060 ha        1 P4P      0.158800
     39 H3D         0.5120   -3.7000    2.9270 ha        1 P4P      0.158800
     40 H2D         1.3000   -1.8920    1.6270 ha        1 P4P      0.146333
     41 H6B         1.1130    2.0170    1.9610 ha        1 P4P      0.147000
     42 H5B        -0.0200    3.5410    3.3660 ha        1 P4P      0.158800
     43 H4B        -2.3110    3.9950    3.0130 ha        1 P4P      0.158800
     44 H3B        -3.4700    2.9240    1.2540 ha        1 P4P      0.158800
     45 H2B        -2.3370    1.4000   -0.1510 ha        1 P4P      0.158800
@<TRIPOS>BOND
     1    1    2 1   
     2    1    8 1   
     3    1   14 1   
     4    1   25 1   
     5    2    3 1   
     6    2    7 1   
     7    3    4 1   
     8    3   26 1   
     9    4   27 1   
    10    5    6 1   
    11    5   28 1   
    12    6   29 1   
    13    7   30 1   
    14    8    9 1   
    15    8   13 1   
    16    9   10 1   
    17    9   31 1   
    18   10   32 1   
    19   11   12 1   
    20   11   33 1   
    21   12   34 1   
    22   13   35 1   
    23   14   15 1   
    24   14   19 1   
    25   15   16 1   
    26   15   36 1   
    27   16   37 1   
    28   17   18 1   
    29   17   38 1   
    30   18   39 1   
    31   19   40 1   
    32   20   25 1   
    33   20   41 1   
    34   21   22 1   
    35   21   42 1   
    36   22   43 1   
    37   23   24 1   
    38   23   44 1   
    39   24   45 1   
@<TRIPOS>SUBSTRUCTURE
     1 P4P         1 TEMP              0 ****  ****    0 ROOT
