@<TRIPOS>MOLECULE
P4T
   29    30     1     0     0
SMALL
bcc


@<TRIPOS>ATOM
      1 N7         -0.3290   -1.5980    0.5850 nc        1 P4T     -0.603000
      2 C8          0.3300   -0.9140   -0.3960 cd        1 P4T      0.304300
      3 N9          0.7880   -1.6190   -1.5890 n4        1 P4T     -0.567100
      4 C5         -0.6510   -0.7270    1.5960 cc        1 P4T      0.416600
      5 C4         -0.2270    0.6040    1.3590 cd        1 P4T     -0.306000
      6 C3         -0.4580    1.7540    2.2600 c         1 P4T      0.602700
      7 C6         -1.3870   -1.1780    2.8020 c3        1 P4T     -0.147400
      8 C10         1.4110   -0.7290   -2.5760 ca        1 P4T     -0.079400
      9 C16         2.8070   -0.5500   -2.5640 ca        1 P4T     -0.096500
     10 C15         3.3920    0.2610   -3.5340 ca        1 P4T     -0.103500
     11 C14         2.6050    0.8850   -4.5050 ca        1 P4T     -0.064000
     12 C13         1.2210    0.6990   -4.5110 ca        1 P4T     -0.103500
     13 C12         0.6120   -0.1070   -3.5530 ca        1 P4T     -0.096500
     14 S4          0.5380    0.7390   -0.0990 ss        1 P4T      0.249700
     15 C2         -0.1710    1.5360    3.7060 c3        1 P4T     -0.192100
     16 O8         -0.8530    2.8300    1.8040 o         1 P4T     -0.487100
     17 H9         -0.0210   -2.0910   -2.0250 hn        1 P4T      0.471300
     18 H6C1       -0.6920   -1.1860    3.6800 hc        1 P4T      0.077700
     19 H6C2       -2.2290   -0.4710    3.0130 hc        1 P4T      0.077700
     20 H6C3       -1.8080   -2.2070    2.6750 hc        1 P4T      0.077700
     21 H2C1        0.6350    0.7780    3.8520 hc        1 P4T      0.083033
     22 H2C2       -1.1020    1.1780    4.2160 hc        1 P4T      0.083033
     23 H2C3        0.1380    2.5020    4.1800 hc        1 P4T      0.083033
     24 H16         3.4440   -1.0400   -1.8100 ha        1 P4T      0.162000
     25 H12        -0.4820   -0.2470   -3.5760 ha        1 P4T      0.162000
     26 H15         4.4860    0.4040   -3.5330 ha        1 P4T      0.175500
     27 H14         3.0790    1.5230   -5.2700 ha        1 P4T      0.175000
     28 H13         0.6000    1.1890   -5.2810 ha        1 P4T      0.175500
     29 H92         1.4680   -2.3410   -1.3050 hn        1 P4T      0.471300
@<TRIPOS>BOND
     1    1    2 2   
     2    1    4 1   
     3    2    3 1   
     4    2   14 1   
     5    3    8 1   
     6    3   17 1   
     7    3   29 1   
     8    4    5 2   
     9    4    7 1   
    10    5    6 1   
    11    5   14 1   
    12    6   15 1   
    13    6   16 2   
    14    7   18 1   
    15    7   19 1   
    16    7   20 1   
    17    8    9 ar  
    18    8   13 ar  
    19    9   10 ar  
    20    9   24 1   
    21   10   11 ar  
    22   10   26 1   
    23   11   12 ar  
    24   11   27 1   
    25   12   13 ar  
    26   12   28 1   
    27   13   25 1   
    28   15   21 1   
    29   15   22 1   
    30   15   23 1   
@<TRIPOS>SUBSTRUCTURE
     1 P4T         1 TEMP              0 ****  ****    0 ROOT
