@<TRIPOS>MOLECULE
P4T
   28    29     1     0     0
SMALL
bcc


@<TRIPOS>ATOM
      1 N7          0.2670    0.3530   -0.0230 nc        1 P4T     -0.686000
      2 C8          1.5500   -0.0720    0.0170 cd        1 P4T      0.620300
      3 N9          2.3690   -0.3750   -1.0740 nu        1 P4T     -0.686300
      4 C5         -0.2380    0.4430    1.2640 cc        1 P4T      0.423600
      5 C4          0.6650    0.1040    2.2800 cd        1 P4T     -0.319000
      6 C3          0.4330    0.1290    3.7220 c         1 P4T      0.614700
      7 C6         -1.6310    0.9040    1.4850 c3        1 P4T     -0.137400
      8 C10         1.8810   -0.2910   -2.4030 ca        1 P4T      0.121600
      9 C16         2.6550    0.3560   -3.3930 ca        1 P4T     -0.141500
     10 C15         2.2360    0.3540   -4.7200 ca        1 P4T     -0.112500
     11 C14         1.0470   -0.2740   -5.0860 ca        1 P4T     -0.142000
     12 C13         0.2760   -0.9090   -4.1140 ca        1 P4T     -0.112500
     13 C12         0.6810   -0.9260   -2.7820 ca        1 P4T     -0.141500
     14 S4          2.1500   -0.3440    1.6240 ss        1 P4T     -0.049300
     15 C2         -0.9170   -0.3070    4.2010 c3        1 P4T     -0.192100
     16 O8          1.3150    0.4680    4.5220 o         1 P4T     -0.536100
     17 H9          3.2940   -0.0010   -0.9700 hn        1 P4T      0.419800
     18 H6C1       -2.0880    1.3110    0.5490 hc        1 P4T      0.058700
     19 H6C2       -1.6440    1.7060    2.2640 hc        1 P4T      0.058700
     20 H6C3       -2.2570    0.0460    1.8380 hc        1 P4T      0.058700
     21 H2C1       -1.6220    0.5600    4.1640 hc        1 P4T      0.066367
     22 H2C2       -0.8490   -0.6640    5.2580 hc        1 P4T      0.066367
     23 H2C3       -1.3190   -1.1280    3.5600 hc        1 P4T      0.066367
     24 H16         3.5950    0.8620   -3.1270 ha        1 P4T      0.139500
     25 H12         0.0570   -1.4360   -2.0330 ha        1 P4T      0.139500
     26 H15         2.8500    0.8580   -5.4820 ha        1 P4T      0.134000
     27 H14         0.7190   -0.2680   -6.1360 ha        1 P4T      0.134000
     28 H13        -0.6640   -1.4060   -4.3980 ha        1 P4T      0.134000
@<TRIPOS>BOND
     1    1    2 2   
     2    1    4 1   
     3    2    3 1   
     4    2   14 1   
     5    3    8 1   
     6    3   17 1   
     7    4    5 2   
     8    4    7 1   
     9    5    6 1   
    10    5   14 1   
    11    6   15 1   
    12    6   16 2   
    13    7   18 1   
    14    7   19 1   
    15    7   20 1   
    16    8    9 ar  
    17    8   13 ar  
    18    9   10 ar  
    19    9   24 1   
    20   10   11 ar  
    21   10   26 1   
    22   11   12 ar  
    23   11   27 1   
    24   12   13 ar  
    25   12   28 1   
    26   13   25 1   
    27   15   21 1   
    28   15   22 1   
    29   15   23 1   
@<TRIPOS>SUBSTRUCTURE
     1 P4T         1 TEMP              0 ****  ****    0 ROOT
