@<TRIPOS>MOLECULE
P4T
   28    24     1     0     0
SMALL
bcc


@<TRIPOS>ATOM
      1 N7         -1.7750   -0.8590   -0.5330 n2        1 P4T     -0.187000
      2 C8         -0.3470   -0.8640   -0.5060 c1        1 P4T     -0.122000
      3 N9          0.5070   -0.9660   -1.6330 n2        1 P4T     -0.211000
      4 C5         -2.3000   -0.8320    0.9460 c1        1 P4T      0.049000
      5 C4         -1.1600   -0.8210    1.8320 c1        1 P4T     -0.535000
      6 C3         -1.2070   -0.8950    3.3410 c1        1 P4T      0.307000
      7 C6         -3.7520   -0.8210    1.3710 c2        1 P4T     -0.163000
      8 C10         1.2240    0.1720   -2.0850 c2        1 P4T      0.037000
      9 C16         2.4930    0.4320   -1.5920 c2        1 P4T     -0.151000
     10 C15         3.2180    1.5100   -2.0760 c1        1 P4T     -0.104000
     11 C14         2.6730    2.3280   -3.0530 c1        1 P4T     -0.122500
     12 C13         1.4050    2.0680   -3.5470 c1        1 P4T     -0.122500
     13 C12         0.6800    0.9900   -3.0630 c1        1 P4T     -0.161000
     14 S4          0.0990   -0.8400    0.9720 ss        1 P4T      0.502000
     15 C2          0.0780   -0.8730    4.1390 c3        1 P4T     -0.267000
     16 O8         -2.2740   -0.9990    3.9110 o         1 P4T     -0.306000
     17 H9          0.5850   -1.7590   -2.0760 hn        1 P4T      0.233000
     18 H6C1       -3.9070   -0.0730    1.9850 ha        1 P4T      0.106333
     19 H6C2       -4.3230   -0.7200    0.5810 ha        1 P4T      0.106333
     20 H6C3       -3.9660   -1.6640    1.8230 ha        1 P4T      0.106333
     21 H2C1        0.6230   -1.6520    3.9020 hc        1 P4T      0.103667
     22 H2C2        0.5750   -0.0530    3.9360 hc        1 P4T      0.103667
     23 H2C3       -0.1310   -0.9000    5.0960 hc        1 P4T      0.103667
     24 H16         2.8770   -0.1430   -0.9030 ha        1 P4T      0.142000
     25 H12        -0.2130    0.8070   -3.4110 ha        1 P4T      0.139000
     26 H15         4.1110    1.6940   -1.7280 ha        1 P4T      0.138000
     27 H14         3.1840    3.0870   -3.3940 ha        1 P4T      0.138000
     28 H13         1.0210    2.6440   -4.2360 ha        1 P4T      0.138000
@<TRIPOS>BOND
     1    1    2 1   
     2    1    4 1   
     3    2   14 1   
     4    3    8 1   
     5    3   17 1   
     6    4    5 1   
     7    5   14 1   
     8    6   15 1   
     9    6   16 1   
    10    7   18 1   
    11    7   19 1   
    12    7   20 1   
    13    8    9 1   
    14    8   13 1   
    15    9   10 1   
    16    9   24 1   
    17   10   26 1   
    18   11   12 1   
    19   11   27 1   
    20   12   28 1   
    21   13   25 1   
    22   15   21 1   
    23   15   22 1   
    24   15   23 1   
@<TRIPOS>SUBSTRUCTURE
     1 P4T         1 TEMP              0 ****  ****    0 ROOT
