@<TRIPOS>MOLECULE
P4T
   28    29     1     0     0
SMALL
bcc


@<TRIPOS>ATOM
      1 N7          0.2640    0.3540   -0.0250 nc        1 P4T     -0.686000
      2 C8          1.5500   -0.0630    0.0180 cd        1 P4T      0.620300
      3 N9          2.3730   -0.3670   -1.0690 nh        1 P4T     -0.686300
      4 C5         -0.2430    0.4470    1.2610 cc        1 P4T      0.423600
      5 C4          0.6610    0.1200    2.2790 cd        1 P4T     -0.319000
      6 C3          0.4260    0.1510    3.7210 c         1 P4T      0.614700
      7 C6         -1.6390    0.9000    1.4770 c3        1 P4T     -0.137400
      8 C10         1.8860   -0.2940   -2.4000 ca        1 P4T      0.121600
      9 C16         2.6570    0.3520   -3.3920 ca        1 P4T     -0.141500
     10 C15         2.2400    0.3390   -4.7200 ca        1 P4T     -0.112500
     11 C14         1.0560   -0.2980   -5.0840 ca        1 P4T     -0.142000
     12 C13         0.2870   -0.9330   -4.1090 ca        1 P4T     -0.112500
     13 C12         0.6900   -0.9390   -2.7770 ca        1 P4T     -0.141500
     14 S4          2.1490   -0.3230    1.6280 ss        1 P4T     -0.049300
     15 C2         -0.9220   -0.2910    4.2000 c3        1 P4T     -0.192100
     16 O8          1.3040    0.5000    4.5210 o         1 P4T     -0.536100
     17 H9          3.2950    0.0140   -0.9660 hn        1 P4T      0.419800
     18 H6C1       -2.2600    0.0410    1.8340 hc        1 P4T      0.058700
     19 H6C2       -1.6580    1.7070    2.2520 hc        1 P4T      0.058700
     20 H6C3       -2.0970    1.3000    0.5380 hc        1 P4T      0.058700
     21 H2C1       -1.6320    0.5710    4.1580 hc        1 P4T      0.066367
     22 H2C2       -1.3170   -1.1180    3.5630 hc        1 P4T      0.066367
     23 H2C3       -0.8530   -0.6420    5.2590 hc        1 P4T      0.066367
     24 H16         3.5940    0.8660   -3.1270 ha        1 P4T      0.139500
     25 H12         0.0680   -1.4480   -2.0250 ha        1 P4T      0.139500
     26 H15         2.8520    0.8430   -5.4830 ha        1 P4T      0.134000
     27 H14         0.7290   -0.3000   -6.1330 ha        1 P4T      0.134000
     28 H13        -0.6490   -1.4370   -4.3910 ha        1 P4T      0.134000
@<TRIPOS>BOND
     1    1    2 2   
     2    1    4 1   
     3    2    3 1   
     4    2   14 1   
     5    3    8 1   
     6    3   17 1   
     7    4    5 2   
     8    4    7 1   
     9    5    6 1   
    10    5   14 1   
    11    6   15 1   
    12    6   16 2   
    13    7   18 1   
    14    7   19 1   
    15    7   20 1   
    16    8    9 ar  
    17    8   13 ar  
    18    9   10 ar  
    19    9   24 1   
    20   10   11 ar  
    21   10   26 1   
    22   11   12 ar  
    23   11   27 1   
    24   12   13 ar  
    25   12   28 1   
    26   13   25 1   
    27   15   21 1   
    28   15   22 1   
    29   15   23 1   
@<TRIPOS>SUBSTRUCTURE
     1 P4T         1 TEMP              0 ****  ****    0 ROOT
