@<TRIPOS>MOLECULE
P4T
   28    29     1     0     0
SMALL
bcc


@<TRIPOS>ATOM
      1 N7         41.6300   69.8920   65.0020 nc        1 P4T     -0.686000
      2 C8         40.3770   69.9060   64.4930 cd        1 P4T      0.620300
      3 N9         39.3700   68.9620   64.7100 nh        1 P4T     -0.686300
      4 C5         42.3640   70.9410   64.4720 cc        1 P4T      0.423600
      5 C4         41.6650   71.7600   63.5760 cd        1 P4T     -0.319000
      6 C3         42.1600   72.9490   62.8850 c         1 P4T      0.614700
      7 C6         43.7730   71.1470   64.8890 c3        1 P4T     -0.137400
      8 C10        39.6050   67.8100   65.5050 ca        1 P4T      0.121600
      9 C16        38.6620   67.4340   66.4870 ca        1 P4T     -0.141500
     10 C15        38.8280   66.2510   67.2000 ca        1 P4T     -0.112500
     11 C14        39.9300   65.4310   66.9630 ca        1 P4T     -0.142000
     12 C13        40.8670   65.7990   65.9990 ca        1 P4T     -0.112500
     13 C12        40.7150   66.9740   65.2690 ca        1 P4T     -0.141500
     14 S4         40.0850   71.2100   63.3830 ss        1 P4T     -0.049300
     15 C2         43.5760   72.9120   62.4000 c3        1 P4T     -0.192100
     16 O8         41.4410   73.9360   62.6810 o         1 P4T     -0.536100
     17 H9         38.4810   69.3890   64.8890 hn        1 P4T      0.419800
     18 H6C1       44.4550   70.9000   64.0370 hc        1 P4T      0.058700
     19 H6C2       43.9280   72.2160   65.1790 hc        1 P4T      0.058700
     20 H6C3       44.0470   70.5000   65.7600 hc        1 P4T      0.058700
     21 H2C1       43.7050   73.6250   61.5500 hc        1 P4T      0.066367
     22 H2C2       44.2600   73.2210   63.2290 hc        1 P4T      0.066367
     23 H2C3       43.8530   71.8840   62.0650 hc        1 P4T      0.066367
     24 H16        37.7860   68.0690   66.6950 ha        1 P4T      0.139500
     25 H12        41.4670   67.2430   64.5120 ha        1 P4T      0.139500
     26 H15        38.0840   65.9680   67.9600 ha        1 P4T      0.134000
     27 H14        40.0590   64.5000   67.5340 ha        1 P4T      0.134000
     28 H13        41.7400   65.1550   65.8090 ha        1 P4T      0.134000
@<TRIPOS>BOND
     1    1    2 2   
     2    1    4 1   
     3    2    3 1   
     4    2   14 1   
     5    3    8 1   
     6    3   17 1   
     7    4    5 2   
     8    4    7 1   
     9    5    6 1   
    10    5   14 1   
    11    6   15 1   
    12    6   16 2   
    13    7   18 1   
    14    7   19 1   
    15    7   20 1   
    16    8    9 ar  
    17    8   13 ar  
    18    9   10 ar  
    19    9   24 1   
    20   10   11 ar  
    21   10   26 1   
    22   11   12 ar  
    23   11   27 1   
    24   12   13 ar  
    25   12   28 1   
    26   13   25 1   
    27   15   21 1   
    28   15   22 1   
    29   15   23 1   
@<TRIPOS>SUBSTRUCTURE
     1 P4T         1 TEMP              0 ****  ****    0 ROOT
