@<TRIPOS>MOLECULE
P4Y
   41    44     1     0     0
SMALL
bcc


@<TRIPOS>ATOM
      1 C01         0.1570    0.1510    0.0540 ca        1 P4Y     -0.170000
      2 C02         1.5550    0.0550    0.1480 ca        1 P4Y     -0.125000
      3 C03         2.1950   -0.0460    1.3750 ca        1 P4Y     -0.152000
      4 C04         1.3990   -0.0480    2.5300 ca        1 P4Y     -0.048200
      5 C05        -0.0410    0.0550    2.4410 ca        1 P4Y     -0.080800
      6 C06        -0.6450    0.1520    1.1880 ca        1 P4Y     -0.078000
      7 N07         1.7450   -0.1900    3.8770 na        1 P4Y     -0.187400
      8 C08         0.5640   -0.0840    4.6470 cc        1 P4Y      0.030700
      9 C09        -0.5440    0.0300    3.8020 cd        1 P4Y     -0.110400
     10 C10         0.6280   -0.1720    6.1040 ca        1 P4Y     -0.074800
     11 C11        -1.9650    0.1130    4.1760 c3        1 P4Y     -0.030500
     12 C12        -2.4110    1.5610    4.3300 ca        1 P4Y      0.609300
     13 C13         0.5610    0.9750    6.9020 ca        1 P4Y     -0.089000
     14 C14         0.6170    0.8490    8.2940 ca        1 P4Y     -0.146500
     15 C15         0.7510   -0.4040    8.8860 ca        1 P4Y     -0.132000
     16 C16         0.8280   -1.5470    8.0880 ca        1 P4Y     -0.146500
     17 C17         0.7670   -1.4340    6.7020 ca        1 P4Y     -0.089000
     18 N18        -1.8330    2.2710    5.3410 nb        1 P4Y     -0.666000
     19 C19        -2.1730    3.5670    5.4880 ca        1 P4Y      0.331800
     20 C20        -3.1420    4.1670    4.6350 ca        1 P4Y     -0.065500
     21 C21        -3.6960    3.3370    3.6160 ca        1 P4Y      0.575600
     22 N22        -3.3370    2.0390    3.4460 nb        1 P4Y     -0.772000
     23 C23        -1.4850    4.4070    6.5880 c         1 P4Y      0.826100
     24 O24        -3.5750    5.4560    4.7050 oh        1 P4Y     -0.509100
     25 O25        -4.6350    3.9030    2.7780 oh        1 P4Y     -0.608300
     26 O26        -2.1610    5.3680    7.0570 o         1 P4Y     -0.807800
     27 O27        -0.3140    4.1140    6.9310 o         1 P4Y     -0.807800
     28 H01        -0.3060    0.2340   -0.9400 ha        1 P4Y      0.118000
     29 H02         2.1550    0.0650   -0.7730 ha        1 P4Y      0.115000
     30 H03         3.2880   -0.1170    1.4410 ha        1 P4Y      0.122000
     31 H06        -1.7380    0.2400    1.1130 ha        1 P4Y      0.141000
     32 H11        -2.5860   -0.3990    3.3930 hc        1 P4Y      0.060700
     33 H11A       -2.1370   -0.4140    5.1550 hc        1 P4Y      0.060700
     34 H13         0.4380    1.9880    6.4640 ha        1 P4Y      0.168500
     35 H14         0.5400    1.7590    8.9100 ha        1 P4Y      0.134000
     36 H15         0.7910   -0.4960    9.9800 ha        1 P4Y      0.117000
     37 H16         0.9320   -2.5370    8.5530 ha        1 P4Y      0.134000
     38 H17         0.8210   -2.3340    6.0720 ha        1 P4Y      0.168500
     39 HN07        2.6430   -0.0010    4.2390 hn        1 P4Y      0.289700
     40 H141       -3.2100    5.8570    5.5220 ho        1 P4Y      0.477000
     41 H151       -4.9060    3.2390    2.1250 ho        1 P4Y      0.415000
@<TRIPOS>BOND
     1    1    2 ar  
     2    1    6 ar  
     3    1   28 1   
     4    2    3 ar  
     5    2   29 1   
     6    3    4 ar  
     7    3   30 1   
     8    4    5 ar  
     9    4    7 1   
    10    5    6 ar  
    11    5    9 1   
    12    6   31 1   
    13    7    8 1   
    14    7   39 1   
    15    8    9 2   
    16    8   10 1   
    17    9   11 1   
    18   10   13 ar  
    19   10   17 ar  
    20   11   12 1   
    21   11   32 1   
    22   11   33 1   
    23   12   18 ar  
    24   12   22 ar  
    25   13   14 ar  
    26   13   34 1   
    27   14   15 ar  
    28   14   35 1   
    29   15   16 ar  
    30   15   36 1   
    31   16   17 ar  
    32   16   37 1   
    33   17   38 1   
    34   18   19 ar  
    35   19   20 ar  
    36   19   23 1   
    37   20   21 ar  
    38   20   24 1   
    39   21   22 ar  
    40   21   25 1   
    41   23   26 1   
    42   23   27 1   
    43   24   40 1   
    44   25   41 1   
@<TRIPOS>SUBSTRUCTURE
     1 P4Y         1 TEMP              0 ****  ****    0 ROOT
