@<TRIPOS>MOLECULE
P4Y
   41    32     1     0     0
SMALL
bcc


@<TRIPOS>ATOM
      1 C01         0.7570    1.1720   -3.9770 c1        1 P4Y     -0.167000
      2 C02         2.1450    1.1590   -3.9670 c2        1 P4Y     -0.112000
      3 C03         2.8290    1.0460   -2.7660 c1        1 P4Y     -0.166000
      4 C04         2.1180    0.9460   -1.5590 c1        1 P4Y      0.000000
      5 C05         0.7470    0.9600   -1.5690 c1        1 P4Y     -0.079000
      6 C06         0.0550    1.0740   -2.7860 c1        1 P4Y     -0.056000
      7 N07         2.5350    0.8260   -0.2460 n1        1 P4Y     -0.211000
      8 C08         1.4240    0.7660    0.5480 c2        1 P4Y     -0.022000
      9 C09         0.3130    0.8480   -0.2660 c1        1 P4Y     -0.076000
     10 C10         2.0100    0.5830    1.7880 c1        1 P4Y     -0.001000
     11 C11        -1.1230    1.1000    0.1350 c2        1 P4Y     -0.032000
     12 C12        -1.9540   -0.1250   -0.1720 c2        1 P4Y     -0.016000
     13 C13         1.8720    1.4340    2.8730 c1        1 P4Y     -0.106000
     14 C14         2.5530    1.1710    4.0510 c1        1 P4Y     -0.133000
     15 C15         3.3720    0.0560    4.1430 c2        1 P4Y     -0.134000
     16 C16         3.5100   -0.7940    3.0580 c1        1 P4Y     -0.134000
     17 C17         2.8290   -0.5310    1.8800 c1        1 P4Y     -0.120000
     18 N18        -3.2260    0.1220    0.2490 n2        1 P4Y     -0.139000
     19 C19        -4.1480   -0.8510    0.2060 c1        1 P4Y     -0.080000
     20 C20        -3.8110   -2.0890   -0.2590 c1        1 P4Y      0.046500
     21 C21        -2.5360   -2.3350   -0.6810 c1        1 P4Y      0.046500
     22 N22        -1.6160   -1.3600   -0.6370 n1        1 P4Y     -0.240000
     23 C23        -5.5540   -0.5840    0.6950 c2        1 P4Y      0.382000
     24 O24        -4.7900   -3.0950   -0.3540 oh        1 P4Y     -0.251000
     25 O25        -2.1880   -3.6100   -1.1630 oh        1 P4Y     -0.251000
     26 O26        -6.4200   -0.1320   -0.0990 o         1 P4Y     -0.536000
     27 O27        -5.8640   -0.8340    1.8890 o         1 P4Y     -0.536000
     28 H01         0.2760    1.2730   -4.8200 DU        1 P4Y      0.152250
     29 H02         2.6390    1.2130   -4.8070 ha        1 P4Y      0.117000
     30 H03         3.8050    1.0370   -2.7600 DU        1 P4Y      0.152250
     31 H06        -0.9210    1.0830   -2.7930 ha        1 P4Y      0.176000
     32 H11        -1.4720    1.8650   -0.3650 ha        1 P4Y      0.104500
     33 H11A       -1.1650    1.2900    1.0940 ha        1 P4Y      0.104500
     34 H13         1.2950    2.2180    2.8080 ha        1 P4Y      0.142000
     35 H14         2.4610    1.7730    4.8130 DU        1 P4Y      0.152250
     36 H15         3.8320   -0.1430    4.9810 ha        1 P4Y      0.123000
     37 H16         4.0780   -1.5850    3.1260 ha        1 P4Y      0.125000
     38 H17         2.9260   -1.1310    1.1160 ha        1 P4Y      0.131000
     39 HN07        3.4310    0.9780   -0.1570 DU        1 P4Y      0.152250
     40 H141       -4.9920   -3.2320   -1.2090 ho        1 P4Y      0.245000
     41 H151       -2.0340   -3.5630   -2.0380 ho        1 P4Y      0.245000
@<TRIPOS>BOND
     1    1    2 1   
     2    1    6 1   
     3    2    3 1   
     4    2   29 1   
     5    3    4 1   
     6    4    5 1   
     7    6   31 1   
     8    7    8 1   
     9    8    9 1   
    10    8   10 1   
    11   10   17 1   
    12   11   12 1   
    13   11   32 1   
    14   11   33 1   
    15   12   18 1   
    16   12   22 1   
    17   13   14 1   
    18   13   34 1   
    19   14   15 1   
    20   15   16 1   
    21   15   36 1   
    22   16   37 1   
    23   17   38 1   
    24   18   19 1   
    25   19   23 1   
    26   20   21 1   
    27   20   24 1   
    28   21   25 1   
    29   23   26 1   
    30   23   27 1   
    31   24   40 1   
    32   25   41 1   
@<TRIPOS>SUBSTRUCTURE
     1 P4Y         1 TEMP              0 ****  ****    0 ROOT
