@<TRIPOS>MOLECULE
P4Y
   41    44     1     0     0
SMALL
bcc


@<TRIPOS>ATOM
      1 C01         4.3400   -2.3800   -0.1110 ca        1 P4Y     -0.170000
      2 C02         5.0440   -1.5480   -0.9970 ca        1 P4Y     -0.125000
      3 C03         4.6210   -0.2550   -1.2710 ca        1 P4Y     -0.153000
      4 C04         3.4590    0.2020   -0.6320 ca        1 P4Y     -0.049200
      5 C05         2.7290   -0.6500    0.2790 ca        1 P4Y     -0.080800
      6 C06         3.1880   -1.9420    0.5280 ca        1 P4Y     -0.076000
      7 N07         2.8310    1.4510   -0.6650 na        1 P4Y     -0.187400
      8 C08         1.6630    1.3740    0.1310 cc        1 P4Y      0.027700
      9 C09         1.5930    0.1230    0.7490 cd        1 P4Y     -0.108400
     10 C10         0.7850    2.5350    0.2590 ca        1 P4Y     -0.072800
     11 C11         0.5810   -0.3620    1.7010 c3        1 P4Y     -0.032500
     12 C12        -0.5450   -1.0960    0.9820 ca        1 P4Y      0.608300
     13 C13        -0.4150    2.6160   -0.4570 ca        1 P4Y     -0.090000
     14 C14        -1.2330    3.7400   -0.3030 ca        1 P4Y     -0.146500
     15 C15        -0.8570    4.7770    0.5460 ca        1 P4Y     -0.132000
     16 C16         0.3450    4.7000    1.2530 ca        1 P4Y     -0.146500
     17 C17         1.1640    3.5830    1.1110 ca        1 P4Y     -0.090000
     18 N18        -1.2930   -0.3540    0.1150 nb        1 P4Y     -0.668000
     19 C19        -2.2790   -0.9730   -0.5680 ca        1 P4Y      0.346800
     20 C20        -2.5400   -2.3500   -0.3490 ca        1 P4Y     -0.131500
     21 C21        -1.7130   -3.0370    0.5880 ca        1 P4Y      0.586600
     22 N22        -0.7040   -2.4290    1.2600 nb        1 P4Y     -0.712000
     23 C23        -3.1130   -0.1760   -1.5940 c         1 P4Y      0.826100
     24 O24        -3.5130   -3.0940   -0.9570 oh        1 P4Y     -0.554100
     25 O25        -1.8950   -4.3790    0.8620 oh        1 P4Y     -0.618300
     26 O26        -4.2660   -0.6360   -1.8450 o         1 P4Y     -0.807800
     27 O27        -2.6150    0.8430   -2.1280 o         1 P4Y     -0.807800
     28 H01         4.7090   -3.3990    0.0710 ha        1 P4Y      0.119000
     29 H02         5.9490   -1.9340   -1.4890 ha        1 P4Y      0.115000
     30 H03         5.1740    0.3880   -1.9680 ha        1 P4Y      0.122000
     31 H06         2.6300   -2.6000    1.2120 ha        1 P4Y      0.146000
     32 H11         1.0690   -1.0460    2.4470 hc        1 P4Y      0.062200
     33 H11A        0.1330    0.5020    2.2630 hc        1 P4Y      0.062200
     34 H13        -0.7510    1.8000   -1.1300 ha        1 P4Y      0.169000
     35 H14        -2.1840    3.7810   -0.8570 ha        1 P4Y      0.133500
     36 H15        -1.5060    5.6560    0.6650 ha        1 P4Y      0.117000
     37 H16         0.6430    5.5160    1.9240 ha        1 P4Y      0.133500
     38 H17         2.1080    3.5170    1.6710 ha        1 P4Y      0.169000
     39 HN07        2.9380    2.1020   -1.3980 hn        1 P4Y      0.288700
     40 H141       -4.0870   -2.4880   -1.4740 ho        1 P4Y      0.491000
     41 H151       -2.6520   -4.6650    0.3270 ho        1 P4Y      0.435000
@<TRIPOS>BOND
     1    1    2 ar  
     2    1    6 ar  
     3    1   28 1   
     4    2    3 ar  
     5    2   29 1   
     6    3    4 ar  
     7    3   30 1   
     8    4    5 ar  
     9    4    7 1   
    10    5    6 ar  
    11    5    9 1   
    12    6   31 1   
    13    7    8 1   
    14    7   39 1   
    15    8    9 2   
    16    8   10 1   
    17    9   11 1   
    18   10   13 ar  
    19   10   17 ar  
    20   11   12 1   
    21   11   32 1   
    22   11   33 1   
    23   12   18 ar  
    24   12   22 ar  
    25   13   14 ar  
    26   13   34 1   
    27   14   15 ar  
    28   14   35 1   
    29   15   16 ar  
    30   15   36 1   
    31   16   17 ar  
    32   16   37 1   
    33   17   38 1   
    34   18   19 ar  
    35   19   20 ar  
    36   19   23 1   
    37   20   21 ar  
    38   20   24 1   
    39   21   22 ar  
    40   21   25 1   
    41   23   26 1   
    42   23   27 1   
    43   24   40 1   
    44   25   41 1   
@<TRIPOS>SUBSTRUCTURE
     1 P4Y         1 TEMP              0 ****  ****    0 ROOT
