@<TRIPOS>MOLECULE
P4Y
   41    44     1     0     0
SMALL
bcc


@<TRIPOS>ATOM
      1 C01         0.1580    0.1470    0.0550 ca        1 P4Y     -0.170000
      2 C02         1.5550    0.0400    0.1520 ca        1 P4Y     -0.125000
      3 C03         2.1920   -0.0660    1.3800 ca        1 P4Y     -0.152000
      4 C04         1.3940   -0.0620    2.5330 ca        1 P4Y     -0.048200
      5 C05        -0.0450    0.0520    2.4410 ca        1 P4Y     -0.080800
      6 C06        -0.6460    0.1540    1.1880 ca        1 P4Y     -0.078000
      7 N07         1.7360   -0.2070    3.8810 na        1 P4Y     -0.187400
      8 C08         0.5540   -0.0920    4.6490 cc        1 P4Y      0.030700
      9 C09        -0.5510    0.0300    3.8010 cd        1 P4Y     -0.110400
     10 C10         0.6150   -0.1820    6.1060 ca        1 P4Y     -0.074800
     11 C11        -1.9720    0.1230    4.1730 c3        1 P4Y     -0.030500
     12 C12        -2.4070    1.5750    4.3270 ca        1 P4Y      0.609300
     13 C13         0.5550    0.9660    6.9040 ca        1 P4Y     -0.089000
     14 C14         0.6080    0.8390    8.2960 ca        1 P4Y     -0.146500
     15 C15         0.7310   -0.4150    8.8880 ca        1 P4Y     -0.132000
     16 C16         0.8010   -1.5590    8.0900 ca        1 P4Y     -0.146500
     17 C17         0.7440   -1.4450    6.7040 ca        1 P4Y     -0.089000
     18 N18        -1.8250    2.2800    5.3400 nb        1 P4Y     -0.666000
     19 C19        -2.1560    3.5790    5.4860 ca        1 P4Y      0.331800
     20 C20        -3.1190    4.1860    4.6320 ca        1 P4Y     -0.065500
     21 C21        -3.6770    3.3610    3.6110 ca        1 P4Y      0.575600
     22 N22        -3.3280    2.0610    3.4410 nb        1 P4Y     -0.772000
     23 C23        -1.4640    4.4130    6.5880 c         1 P4Y      0.826100
     24 O24        -3.5420    5.4790    4.7010 oh        1 P4Y     -0.509100
     25 O25        -4.6110    3.9350    2.7720 oh        1 P4Y     -0.608300
     26 O26        -2.1340    5.3780    7.0560 o         1 P4Y     -0.807800
     27 O27        -0.2960    4.1110    6.9330 o         1 P4Y     -0.807800
     28 H01        -0.3030    0.2340   -0.9400 ha        1 P4Y      0.118000
     29 H02         2.1570    0.0460   -0.7690 ha        1 P4Y      0.115000
     30 H03         3.2840   -0.1450    1.4480 ha        1 P4Y      0.122000
     31 H06        -1.7390    0.2510    1.1100 ha        1 P4Y      0.141000
     32 H11        -2.5960   -0.3840    3.3890 hc        1 P4Y      0.060700
     33 H11A       -2.1500   -0.4020    5.1510 hc        1 P4Y      0.060700
     34 H13         0.4410    1.9790    6.4660 ha        1 P4Y      0.168500
     35 H14         0.5370    1.7490    8.9120 ha        1 P4Y      0.134000
     36 H15         0.7690   -0.5080    9.9820 ha        1 P4Y      0.117000
     37 H16         0.8970   -2.5500    8.5540 ha        1 P4Y      0.134000
     38 H17         0.7920   -2.3450    6.0730 ha        1 P4Y      0.168500
     39 HN07        2.6350   -0.0250    4.2440 hn        1 P4Y      0.289700
     40 H141       -3.1760    5.8770    5.5200 ho        1 P4Y      0.477000
     41 H151       -4.8850    3.2720    2.1180 ho        1 P4Y      0.415000
@<TRIPOS>BOND
     1    1    2 ar  
     2    1    6 ar  
     3    1   28 1   
     4    2    3 ar  
     5    2   29 1   
     6    3    4 ar  
     7    3   30 1   
     8    4    5 ar  
     9    4    7 1   
    10    5    6 ar  
    11    5    9 1   
    12    6   31 1   
    13    7    8 1   
    14    7   39 1   
    15    8    9 2   
    16    8   10 1   
    17    9   11 1   
    18   10   13 ar  
    19   10   17 ar  
    20   11   12 1   
    21   11   32 1   
    22   11   33 1   
    23   12   18 ar  
    24   12   22 ar  
    25   13   14 ar  
    26   13   34 1   
    27   14   15 ar  
    28   14   35 1   
    29   15   16 ar  
    30   15   36 1   
    31   16   17 ar  
    32   16   37 1   
    33   17   38 1   
    34   18   19 ar  
    35   19   20 ar  
    36   19   23 1   
    37   20   21 ar  
    38   20   24 1   
    39   21   22 ar  
    40   21   25 1   
    41   23   26 1   
    42   23   27 1   
    43   24   40 1   
    44   25   41 1   
@<TRIPOS>SUBSTRUCTURE
     1 P4Y         1 TEMP              0 ****  ****    0 ROOT
