@<TRIPOS>MOLECULE
P51
   62    64     1     0     0
SMALL
bcc


@<TRIPOS>ATOM
      1 C01        -0.0950    0.0370   -0.2870 ca        1 P51     -0.004000
      2 C04        -0.7840   -0.1460   -1.4980 cg        1 P51     -0.110000
      3 C05        -1.3690   -0.3050   -2.5310 c1        1 P51     -0.094100
      4 C06        -2.0540   -0.5060   -3.7790 c3        1 P51      0.208500
      5 O          -3.3740    0.0480   -3.6410 os        1 P51     -0.328900
      6 C07        -4.1970   -0.1080   -4.7440 ca        1 P51      0.117100
      7 C1         -0.1260    0.2350    2.1360 ca        1 P51     -0.201300
      8 N1         -0.8780    1.4520    4.1650 n3        1 P51     -0.750600
      9 O1          2.0050    0.6080    3.2720 oh        1 P51     -0.481100
     10 C02         1.2980    0.2200   -0.2780 ca        1 P51     -0.035000
     11 C2         -0.9160    0.2020    3.4100 c3        1 P51      0.221100
     12 N2         -1.6980    5.1530    6.2750 nx        1 P51     -0.689400
     13 C03        -1.6200    1.3700    5.4120 c3        1 P51      0.169300
     14 C3         -0.7960    0.0450    0.9260 ca        1 P51     -0.052000
     15 C4          1.9890    0.4060    0.9150 ca        1 P51     -0.017100
     16 C7          1.2740    0.4090    2.1300 ca        1 P51      0.189100
     17 C8         -1.4520    2.6260    6.2720 c3        1 P51     -0.102400
     18 C10        -1.8720    3.8700    5.4810 c3        1 P51      0.128500
     19 C11        -2.4100    6.2960    5.6110 c3        1 P51      0.107800
     20 C12        -1.9540    7.6580    6.0920 c3        1 P51     -0.129600
     21 C13        -2.1040    5.0300    7.7130 c3        1 P51      0.107800
     22 C14        -3.5560    4.6770    7.9560 c3        1 P51     -0.129600
     23 C15        -1.0650    3.9210    4.1750 c3        1 P51     -0.102400
     24 C16        -1.2600    2.6210    3.3910 c3        1 P51      0.169300
     25 I2          3.9930    0.6570    0.8140 i         1 P51     -0.095900
     26 C08        -5.5040    0.3830   -4.5650 ca        1 P51     -0.178500
     27 C09        -6.4110    0.2860   -5.6140 ca        1 P51     -0.095000
     28 C17        -6.0330   -0.2920   -6.8280 ca        1 P51     -0.156000
     29 C18        -4.7370   -0.7750   -6.9940 ca        1 P51     -0.095000
     30 C          -3.8080   -0.6880   -5.9560 ca        1 P51     -0.178500
     31 H02         1.8430    0.2120   -1.2380 ha        1 P51      0.164000
     32 H3         -1.8880   -0.1050    0.9190 ha        1 P51      0.147000
     33 H061       -1.5140    0.0250   -4.6120 h1        1 P51      0.066700
     34 H062       -2.1300   -1.6060   -4.0110 h1        1 P51      0.066700
     35 H08        -5.7860    0.8350   -3.6040 ha        1 P51      0.140500
     36 H          -2.7900   -1.0730   -6.1080 ha        1 P51      0.140500
     37 H21C       -1.9810   -0.0960    3.1720 h1        1 P51      0.054200
     38 H22C       -0.4890   -0.5990    4.0840 h1        1 P51      0.054200
     39 H031       -2.7240    1.1990    5.2380 h1        1 P51      0.060200
     40 H032       -1.2250    0.4920    5.9990 h1        1 P51      0.060200
     41 H161       -0.6040    2.6620    2.4740 h1        1 P51      0.060200
     42 H162       -2.3350    2.5670    3.0460 h1        1 P51      0.060200
     43 H1          1.4430    0.4450    4.0430 ho        1 P51      0.433000
     44 H10        -2.9740    3.7970    5.2400 hx        1 P51      0.100700
     45 H111       -2.2280    6.2220    4.5000 hx        1 P51      0.100950
     46 H112       -3.5140    6.1650    5.7930 hx        1 P51      0.100950
     47 H131       -1.4350    4.2540    8.1870 hx        1 P51      0.100950
     48 H132       -1.8780    6.0240    8.2010 hx        1 P51      0.100950
     49 H81C       -2.0960    2.4910    7.1810 hc        1 P51      0.070950
     50 H82C       -0.3830    2.7170    6.6000 hc        1 P51      0.070950
     51 H151       -1.4000    4.7610    3.5140 hc        1 P51      0.070950
     52 H152        0.0260    4.0620    4.3990 hc        1 P51      0.070950
     53 H121       -2.2440    7.8460    7.1540 hc        1 P51      0.075700
     54 H122       -0.8500    7.7900    5.9880 hc        1 P51      0.075700
     55 H123       -2.4570    8.4320    5.4560 hc        1 P51      0.075700
     56 H141       -3.6800    4.4760    9.0520 hc        1 P51      0.075700
     57 H142       -4.2380    5.5180    7.6820 hc        1 P51      0.075700
     58 H143       -3.8700    3.7630    7.3960 hc        1 P51      0.075700
     59 H09        -7.4350    0.6670   -5.4830 ha        1 P51      0.137500
     60 H17        -6.7580   -0.3660   -7.6510 ha        1 P51      0.139000
     61 H18        -4.4380   -1.2310   -7.9500 ha        1 P51      0.137500
     62 H21        -0.6910    5.3700    6.2720 hn        1 P51      0.442800
@<TRIPOS>BOND
     1    1    2 1   
     2    1   10 ar  
     3    1   14 ar  
     4    2    3 3   
     5    3    4 1   
     6    4    5 1   
     7    4   33 1   
     8    4   34 1   
     9    5    6 1   
    10    6   26 ar  
    11    6   30 ar  
    12    7   11 1   
    13    7   14 ar  
    14    7   16 ar  
    15    8   11 1   
    16    8   13 1   
    17    8   24 1   
    18    9   16 1   
    19    9   43 1   
    20   10   15 ar  
    21   10   31 1   
    22   11   37 1   
    23   11   38 1   
    24   12   18 1   
    25   12   19 1   
    26   12   21 1   
    27   12   62 1   
    28   13   17 1   
    29   13   39 1   
    30   13   40 1   
    31   14   32 1   
    32   15   16 ar  
    33   15   25 1   
    34   17   18 1   
    35   17   49 1   
    36   17   50 1   
    37   18   23 1   
    38   18   44 1   
    39   19   20 1   
    40   19   45 1   
    41   19   46 1   
    42   20   53 1   
    43   20   54 1   
    44   20   55 1   
    45   21   22 1   
    46   21   47 1   
    47   21   48 1   
    48   22   56 1   
    49   22   57 1   
    50   22   58 1   
    51   23   24 1   
    52   23   51 1   
    53   23   52 1   
    54   24   41 1   
    55   24   42 1   
    56   26   27 ar  
    57   26   35 1   
    58   27   28 ar  
    59   27   59 1   
    60   28   29 ar  
    61   28   60 1   
    62   29   30 ar  
    63   29   61 1   
    64   30   36 1   
@<TRIPOS>SUBSTRUCTURE
     1 P51         1 TEMP              0 ****  ****    0 ROOT
