@<TRIPOS>MOLECULE
P51
   62    63     1     0     0
SMALL
bcc


@<TRIPOS>ATOM
      1 C01        -0.3040   -0.0890   -0.8820 ca        1 P51      0.047000
      2 C04        -0.7680   -0.5000   -2.1470 c1        1 P51     -0.092000
      3 C05        -1.1680   -0.8510   -3.2210 c1        1 P51     -0.180000
      4 C06        -1.6150   -1.2580   -4.5260 c3        1 P51      0.088000
      5 O          -2.9650   -0.8830   -4.8020 os        1 P51     -0.205000
      6 C07        -3.9630   -1.6620   -4.2430 ca        1 P51      0.072000
      7 C1         -0.6410    1.2100    1.1700 ca        1 P51      0.100000
      8 N1         -1.1760    2.7380    3.0840 n4        1 P51      0.174000
      9 O1          1.0110    1.1120    2.9020 oh        1 P51     -0.328000
     10 C02         0.9400   -0.5410   -0.4080 ca        1 P51     -0.120000
     11 C2         -1.5050    2.0960    1.8610 c2        1 P51     -0.619000
     12 N2         -1.9410    4.7090    6.9190 n3        1 P51     -0.076000
     13 C03        -1.6510    1.9550    4.2810 c3        1 P51     -0.146000
     14 C3         -1.0750    0.7720   -0.1020 ca        1 P51     -0.135000
     15 C4          1.3910   -0.1380    0.8430 ca        1 P51     -0.280000
     16 C7          0.6100    0.7200    1.6300 ca        1 P51     -0.015000
     17 C8         -1.3910    2.6430    5.6130 c3        1 P51     -0.200000
     18 C10        -2.0360    4.0380    5.6020 c3        1 P51     -0.039000
     19 C11        -0.9430    5.4940    7.2390 c2        1 P51      0.113000
     20 C12        -0.7780    6.2130    8.5230 c3        1 P51     -0.263000
     21 C13        -3.0430    4.4160    7.8500 c3        1 P51     -0.088000
     22 C14        -4.2490    5.3240    7.6860 c3        1 P51     -0.241000
     23 C15        -1.4500    4.8450    4.4370 c3        1 P51     -0.200000
     24 C16        -1.7460    4.1200    3.1280 c3        1 P51     -0.146000
     25 I2          3.1940   -0.8440    1.4500 i         1 P51      0.134000
     26 C08        -3.7590   -2.6280   -3.2520 ca        1 P51     -0.174500
     27 C09        -4.8530   -3.3430   -2.7650 ca        1 P51     -0.100500
     28 C17        -6.1340   -3.0970   -3.2540 ca        1 P51     -0.162000
     29 C18        -6.3300   -2.1270   -4.2400 ca        1 P51     -0.100500
     30 C          -5.2540   -1.4040   -4.7430 ca        1 P51     -0.174500
     31 H02         1.5440   -1.2140   -1.0360 ha        1 P51      0.154000
     32 H3         -2.0450    1.1280   -0.4820 ha        1 P51      0.145000
     33 H061       -1.0400   -0.7010   -5.3240 h1        1 P51      0.118500
     34 H062       -1.4780   -2.3660   -4.6620 h1        1 P51      0.118500
     35 H08        -2.7540   -2.8190   -2.8490 ha        1 P51      0.146000
     36 H          -5.3910   -0.6400   -5.5210 ha        1 P51      0.146000
     37 H21C       -2.5290    2.2530    1.5110 hx        1 P51      0.159000
     38 H22C       -0.1500    2.8080    3.1590 hn        1 P51      0.238000
     39 H031       -1.1000    0.9690    4.2500 hx        1 P51      0.151250
     40 H032       -2.7480    1.7520    4.1440 hx        1 P51      0.151250
     41 H161       -1.3050    4.6970    2.2640 hx        1 P51      0.151250
     42 H162       -2.8580    4.0480    2.9650 hx        1 P51      0.151250
     43 H1          1.9070    0.7690    3.0500 ho        1 P51      0.233000
     44 H10        -3.1500    3.9170    5.4100 h1        1 P51      0.150000
     45 H111       -0.1260    5.6390    6.4910 h4        1 P51      0.195000
     46 H112       -2.5510    7.9180    4.4350 ha        1 P51      0.001000
     47 H131       -2.6470    4.4950    8.9040 h1        1 P51      0.137500
     48 H132       -3.3480    3.3420    7.6760 h1        1 P51      0.137500
     49 H81C       -0.2880    2.7270    5.8000 hc        1 P51      0.117500
     50 H82C       -1.8310    2.0060    6.4250 hc        1 P51      0.117500
     51 H151       -0.3410    4.9720    4.5530 hc        1 P51      0.117500
     52 H152       -1.9150    5.8660    4.3810 hc        1 P51      0.117500
     53 H121       -0.0590    7.0630    8.3870 hc        1 P51      0.152000
     54 H122       -0.3500    5.5150    9.2940 hc        1 P51      0.152000
     55 H123       -1.7430    6.6230    8.9180 hc        1 P51      0.152000
     56 H141       -4.6860    5.2490    6.6620 hc        1 P51      0.114333
     57 H142       -3.9910    6.3910    7.8920 hc        1 P51      0.114333
     58 H143       -5.0260    4.9990    8.4250 hc        1 P51      0.114333
     59 H09        -4.6980   -4.1060   -1.9880 ha        1 P51      0.133500
     60 H17        -6.9910   -3.6670   -2.8680 ha        1 P51      0.133000
     61 H18        -7.3420   -1.9340   -4.6270 ha        1 P51      0.133500
     62 H21        -2.7120    8.3370    3.9280 ha        1 P51      0.001000
@<TRIPOS>BOND
     1    1    2 1   
     2    1   10 1   
     3    1   14 1   
     4    2    3 1   
     5    3    4 1   
     6    4    5 1   
     7    4   33 1   
     8    4   34 1   
     9    5    6 1   
    10    6   26 1   
    11    6   30 1   
    12    7   11 1   
    13    7   14 1   
    14    7   16 1   
    15    8   11 1   
    16    8   13 1   
    17    8   24 1   
    18    8   38 1   
    19    9   16 1   
    20    9   43 1   
    21   10   15 1   
    22   10   31 1   
    23   11   37 1   
    24   12   18 1   
    25   12   19 1   
    26   12   21 1   
    27   13   17 1   
    28   13   39 1   
    29   13   40 1   
    30   14   32 1   
    31   15   16 1   
    32   15   25 1   
    33   17   18 1   
    34   17   49 1   
    35   17   50 1   
    36   18   23 1   
    37   18   44 1   
    38   19   20 1   
    39   19   45 1   
    40   20   53 1   
    41   20   54 1   
    42   20   55 1   
    43   21   22 1   
    44   21   47 1   
    45   21   48 1   
    46   22   56 1   
    47   22   57 1   
    48   22   58 1   
    49   23   24 1   
    50   23   51 1   
    51   23   52 1   
    52   24   41 1   
    53   24   42 1   
    54   26   27 1   
    55   26   35 1   
    56   27   28 1   
    57   27   59 1   
    58   28   29 1   
    59   28   60 1   
    60   29   30 1   
    61   29   61 1   
    62   30   36 1   
    63   46   62 1   
@<TRIPOS>SUBSTRUCTURE
     1 P51         1 TEMP              0 ****  ****    0 ROOT
