@<TRIPOS>MOLECULE
P51
   61    63     1     0     0
SMALL
bcc


@<TRIPOS>ATOM
      1 C01        -1.4400    1.1690   -0.6260 ca        1 P51     -0.021000
      2 C04        -2.7290    0.7460   -0.2540 cg        1 P51     -0.077000
      3 C05        -3.8260    0.3910    0.0690 c1        1 P51     -0.131100
      4 C06        -5.1440   -0.0150    0.4710 c3        1 P51      0.216500
      5 O          -5.4450   -1.2500   -0.2060 os        1 P51     -0.322900
      6 C07        -6.6950   -1.7770    0.0560 ca        1 P51      0.124100
      7 C1          0.7440    0.6550   -1.5590 ca        1 P51     -0.109300
      8 N1          2.5640   -0.9680   -1.1770 n3        1 P51     -0.723600
      9 O1          2.3850    2.3300   -1.8030 oh        1 P51     -0.479100
     10 C02        -1.0500    2.5010   -0.4440 ca        1 P51     -0.039000
     11 C2          1.7080   -0.3250   -2.1670 c3        1 P51      0.225100
     12 N2          4.8380   -3.9210    1.0360 n3        1 P51     -0.728600
     13 C03         3.7760   -1.5110   -1.7720 c3        1 P51      0.168800
     14 C3         -0.5310    0.2520   -1.1830 ca        1 P51     -0.053000
     15 C4          0.2250    2.9280   -0.8160 ca        1 P51     -0.072100
     16 C7          1.1240    2.0050   -1.3770 ca        1 P51      0.193100
     17 C8          4.7050   -2.1740   -0.7580 c3        1 P51     -0.076900
     18 C10         3.9730   -3.2660    0.0370 c3        1 P51      0.188500
     19 C11         4.1040   -4.9270    1.7950 c3        1 P51      0.165800
     20 C12         4.9340   -5.8210    2.7010 c3        1 P51     -0.113100
     21 C13         6.1060   -4.3800    0.5000 c3        1 P51      0.165800
     22 C14         6.0720   -5.4210   -0.6100 c3        1 P51     -0.113100
     23 C15         2.7340   -2.6210    0.6810 c3        1 P51     -0.076900
     24 C16         1.8570   -1.9530   -0.3740 c3        1 P51      0.168800
     25 I2          0.6920    4.8730   -0.5110 i         1 P51     -0.136900
     26 C08        -6.9760   -2.9730   -0.6350 ca        1 P51     -0.180000
     27 C09        -8.2050   -3.5910   -0.4430 ca        1 P51     -0.097000
     28 C17        -9.1520   -3.0370    0.4230 ca        1 P51     -0.163000
     29 C18        -8.8650   -1.8550    1.1010 ca        1 P51     -0.097000
     30 C          -7.6370   -1.2150    0.9250 ca        1 P51     -0.180000
     31 H02        -1.7650    3.2140   -0.0020 ha        1 P51      0.152000
     32 H3         -0.8350   -0.7980   -1.3240 ha        1 P51      0.149000
     33 H061       -5.1820   -0.1850    1.5830 h1        1 P51      0.059700
     34 H062       -5.9030    0.7640    0.1760 h1        1 P51      0.059700
     35 H08        -6.2210   -3.3950   -1.3120 ha        1 P51      0.142500
     36 H          -7.4290   -0.2840    1.4690 ha        1 P51      0.142500
     37 H21C        1.1150   -1.0850   -2.7600 h1        1 P51      0.046700
     38 H22C        2.3680    0.2350   -2.8920 h1        1 P51      0.046700
     39 H031        3.5360   -2.2620   -2.5830 h1        1 P51      0.030200
     40 H032        4.3320   -0.6560   -2.2520 h1        1 P51      0.030200
     41 H161        1.0130   -1.4180    0.1480 h1        1 P51      0.030200
     42 H162        1.3980   -2.7600   -1.0210 h1        1 P51      0.030200
     43 H1          2.5590    3.2600   -1.5780 ho        1 P51      0.431000
     44 H10         3.6020   -4.0370   -0.7100 h1        1 P51      0.015700
     45 H111        3.3820   -4.3600    2.4520 h1        1 P51      0.039450
     46 H112        3.4930   -5.5930    1.1130 h1        1 P51      0.039450
     47 H131        6.6670   -3.4740    0.1330 h1        1 P51      0.039450
     48 H132        6.7070   -4.7930    1.3610 h1        1 P51      0.039450
     49 H81C        5.5570   -2.6150   -1.3400 hc        1 P51      0.055700
     50 H82C        5.1180   -1.4060   -0.0550 hc        1 P51      0.055700
     51 H151        2.1020   -3.3950    1.1890 hc        1 P51      0.055700
     52 H152        3.0540   -1.8710    1.4480 hc        1 P51      0.055700
     53 H121        5.5580   -6.5320    2.1090 hc        1 P51      0.037700
     54 H122        5.6020   -5.2210    3.3640 hc        1 P51      0.037700
     55 H123        4.2390   -6.4150    3.3430 hc        1 P51      0.037700
     56 H141        7.1170   -5.7120   -0.8750 hc        1 P51      0.037700
     57 H142        5.5210   -6.3350   -0.2820 hc        1 P51      0.037700
     58 H143        5.5750   -5.0170   -1.5240 hc        1 P51      0.037700
     59 H09        -8.4330   -4.5260   -0.9780 ha        1 P51      0.133000
     60 H17       -10.1210   -3.5350    0.5670 ha        1 P51      0.134000
     61 H18        -9.6090   -1.4170    1.7830 ha        1 P51      0.133000
@<TRIPOS>BOND
     1    1    2 1   
     2    1   10 ar  
     3    1   14 ar  
     4    2    3 3   
     5    3    4 1   
     6    4    5 1   
     7    4   33 1   
     8    4   34 1   
     9    5    6 1   
    10    6   26 ar  
    11    6   30 ar  
    12    7   11 1   
    13    7   14 ar  
    14    7   16 ar  
    15    8   11 1   
    16    8   13 1   
    17    8   24 1   
    18    9   16 1   
    19    9   43 1   
    20   10   15 ar  
    21   10   31 1   
    22   11   37 1   
    23   11   38 1   
    24   12   18 1   
    25   12   19 1   
    26   12   21 1   
    27   13   17 1   
    28   13   39 1   
    29   13   40 1   
    30   14   32 1   
    31   15   16 ar  
    32   15   25 1   
    33   17   18 1   
    34   17   49 1   
    35   17   50 1   
    36   18   23 1   
    37   18   44 1   
    38   19   20 1   
    39   19   45 1   
    40   19   46 1   
    41   20   53 1   
    42   20   54 1   
    43   20   55 1   
    44   21   22 1   
    45   21   47 1   
    46   21   48 1   
    47   22   56 1   
    48   22   57 1   
    49   22   58 1   
    50   23   24 1   
    51   23   51 1   
    52   23   52 1   
    53   24   41 1   
    54   24   42 1   
    55   26   27 ar  
    56   26   35 1   
    57   27   28 ar  
    58   27   59 1   
    59   28   29 ar  
    60   28   60 1   
    61   29   30 ar  
    62   29   61 1   
    63   30   36 1   
@<TRIPOS>SUBSTRUCTURE
     1 P51         1 TEMP              0 ****  ****    0 ROOT
