@<TRIPOS>MOLECULE
P51
   61    57     1     0     0
SMALL
bcc


@<TRIPOS>ATOM
      1 C01         1.0770   -0.2010   -2.5100 c1        1 P51     -0.025000
      2 C04         0.3570   -0.7240   -3.7640 c1        1 P51     -0.137000
      3 C05        -0.2060   -1.1360   -4.7470 c1        1 P51     -0.137000
      4 C06        -0.9200   -1.6620   -5.9960 c2        1 P51      0.092000
      5 O          -0.6730   -0.7710   -7.1070 os        1 P51     -0.205000
      6 C07        -1.2080   -1.2310   -8.3430 c2        1 P51      0.075000
      7 C1          1.0720    0.2980   -0.1330 c1        1 P51     -0.168000
      8 N1          0.8230    0.6710    2.2990 n3        1 P51     -0.270000
      9 O1          3.3640    1.4230    0.4900 oh        1 P51     -0.243000
     10 C02         2.4030    0.2140   -2.5940 c2        1 P51     -0.039000
     11 C2          0.2400   -0.0210    1.1710 c2        1 P51     -0.035000
     12 N2         -0.4330    0.6510    5.6410 n3        1 P51     -0.284000
     13 C03        -0.1420    1.6690    2.8220 c3        1 P51     -0.069000
     14 C3          0.4050   -0.1600   -1.2770 c2        1 P51     -0.049000
     15 C4          3.0660    0.6700   -1.4520 c1        1 P51     -0.308000
     16 C7          2.3960    0.7110   -0.2200 c1        1 P51      0.157000
     17 C8          0.3480    2.3440    4.1010 c3        1 P51     -0.155000
     18 C10         0.7670    1.3600    5.1350 c3        1 P51      0.003000
     19 C11        -0.0630   -0.1720    6.7870 c3        1 P51     -0.054000
     20 C12        -0.7930   -1.5330    6.7040 c3        1 P51     -0.213500
     21 C13        -1.4410    1.6290    6.0520 c3        1 P51     -0.054000
     22 C14        -2.8420    1.1050    5.6930 c3        1 P51     -0.213500
     23 C15         1.7400    0.3580    4.6010 c3        1 P51     -0.155000
     24 C16         1.2430   -0.3100    3.3180 c3        1 P51     -0.069000
     25 I2          5.0920    1.2060   -1.5630 i         1 P51      0.168000
     26 C08        -2.3870   -1.3900   -9.0600 c1        1 P51     -0.154000
     27 C09        -2.3420   -1.6010  -10.4350 c1        1 P51     -0.132000
     28 C17        -1.1130   -1.6530  -11.0920 c1        1 P51     -0.132000
     29 C18         0.0600   -1.4950  -10.3770 c1        1 P51     -0.097000
     30 C           0.0140   -1.2840   -8.9980 c2        1 P51     -0.197000
     31 H02         2.8740    0.1840   -3.4580 ha        1 P51      0.156000
     32 H3         -0.4710   -0.5310   -1.2000 ha        1 P51      0.143000
     33 H061       -1.8860   -1.7110   -5.8240 h4        1 P51      0.114000
     34 H062       -0.5780   -2.5630   -6.2140 h4        1 P51      0.114000
     35 H08        -3.2410   -1.3530   -8.6020 ha        1 P51      0.148000
     36 H           0.8480   -1.1710   -8.4910 ha        1 P51      0.142000
     37 H21C        0.2520   -0.9780    1.3380 h4        1 P51      0.084000
     38 H22C       -0.6730    0.2730    1.0500 h4        1 P51      0.084000
     39 H031       -0.2950    2.3720    2.1230 h1        1 P51      0.079500
     40 H032       -0.9980    1.2150    3.0110 h1        1 P51      0.079500
     41 H161        1.9820   -0.8750    2.9380 h1        1 P51      0.079500
     42 H162        0.4770   -0.8930    3.5350 h1        1 P51      0.079500
     43 H1          3.0850    2.2550    0.6160 ho        1 P51      0.251000
     44 H10         1.1870    1.8420    5.8780 h1        1 P51      0.055000
     45 H111       -0.3230    0.2960    7.6320 h1        1 P51      0.068500
     46 H112        0.9020   -0.3200    6.7830 h1        1 P51      0.068500
     47 H131       -1.3830    1.7690    7.0300 h1        1 P51      0.068500
     48 H132       -1.2810    2.4800    5.5900 h1        1 P51      0.068500
     49 H81C       -0.3700    2.8920    4.4600 hc        1 P51      0.090750
     50 H82C        1.1050    2.9160    3.8850 hc        1 P51      0.090750
     51 H151        1.8900   -0.3350    5.2830 hc        1 P51      0.090750
     52 H152        2.5930    0.8120    4.4140 hc        1 P51      0.090750
     53 H121       -1.3140   -1.5760    5.8690 hc        1 P51      0.076000
     54 H122       -1.4000   -1.6290    7.4760 hc        1 P51      0.076000
     55 H123       -0.1290   -2.2630    6.7150 hc        1 P51      0.076000
     56 H141       -2.8010    0.1250    5.5480 hc        1 P51      0.076000
     57 H142       -3.4710    1.3040    6.4390 hc        1 P51      0.076000
     58 H143       -3.1560    1.5440    4.8740 hc        1 P51      0.076000
     59 H09        -3.1720   -1.7130  -10.9410 ha        1 P51      0.133000
     60 H17        -1.0790   -1.8030  -12.0650 ha        1 P51      0.133000
     61 H18         0.9240   -1.5320  -10.8390 ha        1 P51      0.132000
@<TRIPOS>BOND
     1    1   10 1   
     2    1   14 1   
     3    2    3 1   
     4    4    5 1   
     5    4   33 1   
     6    4   34 1   
     7    5    6 1   
     8    6   26 1   
     9    6   30 1   
    10    7   14 1   
    11    7   16 1   
    12    8   11 1   
    13    8   13 1   
    14    8   24 1   
    15    9   16 1   
    16    9   43 1   
    17   10   15 1   
    18   10   31 1   
    19   11   37 1   
    20   11   38 1   
    21   12   18 1   
    22   12   19 1   
    23   12   21 1   
    24   13   17 1   
    25   13   39 1   
    26   13   40 1   
    27   14   32 1   
    28   15   25 1   
    29   17   18 1   
    30   17   49 1   
    31   17   50 1   
    32   18   23 1   
    33   18   44 1   
    34   19   20 1   
    35   19   45 1   
    36   19   46 1   
    37   20   53 1   
    38   20   54 1   
    39   20   55 1   
    40   21   22 1   
    41   21   47 1   
    42   21   48 1   
    43   22   56 1   
    44   22   57 1   
    45   22   58 1   
    46   23   24 1   
    47   23   51 1   
    48   23   52 1   
    49   24   41 1   
    50   24   42 1   
    51   26   35 1   
    52   27   28 1   
    53   27   59 1   
    54   28   60 1   
    55   29   30 1   
    56   29   61 1   
    57   30   36 1   
@<TRIPOS>SUBSTRUCTURE
     1 P51         1 TEMP              0 ****  ****    0 ROOT
