@<TRIPOS>MOLECULE
P51
   62    64     1     0     0
SMALL
bcc


@<TRIPOS>ATOM
      1 C01        -0.3710    0.4210   -0.3670 ca        1 P51     -0.004000
      2 C04        -1.0650    0.4010   -1.5890 cg        1 P51     -0.110000
      3 C05        -1.6530    0.3810   -2.6320 c1        1 P51     -0.094100
      4 C06        -2.3440    0.3460   -3.8930 c3        1 P51      0.208500
      5 O          -3.6010    1.0220   -3.7150 os        1 P51     -0.328900
      6 C07        -4.4210    1.0450   -4.8310 ca        1 P51      0.117100
      7 C1         -0.4040    0.4260    2.0640 ca        1 P51     -0.201300
      8 N1         -1.0550    1.5430    4.1830 n3        1 P51     -0.750600
      9 O1          1.7420    0.5040    3.2280 oh        1 P51     -0.481100
     10 C02         1.0320    0.4700   -0.3430 ca        1 P51     -0.035000
     11 C2         -1.2050    0.3660    3.3300 c3        1 P51      0.221100
     12 N2         -1.5430    5.1240    6.5830 n4        1 P51     -0.689400
     13 C03        -1.8120    1.4310    5.4190 c3        1 P51      0.169300
     14 C3         -1.0790    0.3970    0.8430 ca        1 P51     -0.052000
     15 C4          1.7280    0.4940    0.8630 ca        1 P51     -0.017100
     16 C7          1.0050    0.4680    2.0730 ca        1 P51      0.189100
     17 C8         -1.5350    2.5930    6.3780 c3        1 P51     -0.102400
     18 C10        -1.8300    3.9310    5.6880 c3        1 P51      0.128500
     19 C11        -2.1400    6.3780    6.0120 c3        1 P51      0.107800
     20 C12        -1.5600    7.6490    6.5990 c3        1 P51     -0.129600
     21 C13        -1.9710    4.9250    8.0060 c3        1 P51      0.107800
     22 C14        -3.4520    4.6910    8.2190 c3        1 P51     -0.129600
     23 C15        -1.0110    4.0090    4.3910 c3        1 P51     -0.102400
     24 C16        -1.3210    2.8000    3.5060 c3        1 P51      0.169300
     25 I2          3.7470    0.5620    0.7830 i         1 P51     -0.095900
     26 C08        -5.6670    1.6670   -4.6210 ca        1 P51     -0.178500
     27 C09        -6.5660    1.7510   -5.6780 ca        1 P51     -0.095000
     28 C17        -6.2390    1.2260   -6.9310 ca        1 P51     -0.156000
     29 C18        -5.0040    0.6130   -7.1280 ca        1 P51     -0.095000
     30 C          -4.0840    0.5170   -6.0820 ca        1 P51     -0.178500
     31 H02         1.5820    0.4870   -1.3000 ha        1 P51      0.164000
     32 H3         -2.1800    0.3520    0.8220 ha        1 P51      0.147000
     33 H061       -1.7440    0.8780   -4.6830 h1        1 P51      0.066700
     34 H062       -2.5330   -0.7190   -4.2070 h1        1 P51      0.066700
     35 H08        -5.9080    2.0740   -3.6300 ha        1 P51      0.140500
     36 H          -3.1150    0.0310   -6.2580 ha        1 P51      0.140500
     37 H21C       -2.2910    0.1890    3.0690 h1        1 P51      0.054200
     38 H22C       -0.8600   -0.5220    3.9390 h1        1 P51      0.054200
     39 H031       -2.9260    1.3790    5.2320 h1        1 P51      0.060200
     40 H032       -1.5060    0.4760    5.9340 h1        1 P51      0.060200
     41 H161       -0.6570    2.8520    2.5950 h1        1 P51      0.060200
     42 H162       -2.3930    2.8750    3.1570 h1        1 P51      0.060200
     43 H1          1.1610    0.3340    3.9830 ho        1 P51      0.433000
     44 H10        -2.9320    3.9810    5.4410 hx        1 P51      0.100700
     45 H111       -1.9590    6.3760    4.8980 hx        1 P51      0.100950
     46 H112       -3.2530    6.3390    6.1850 hx        1 P51      0.100950
     47 H131       -1.3810    4.0550    8.4170 hx        1 P51      0.100950
     48 H132       -1.6570    5.8520    8.5720 hx        1 P51      0.100950
     49 H81C       -2.1950    2.4480    7.2730 hc        1 P51      0.070950
     50 H82C       -0.4650    2.5580    6.7120 hc        1 P51      0.070950
     51 H151       -1.2610    4.9270    3.8000 hc        1 P51      0.070950
     52 H152        0.0860    4.0300    4.6270 hc        1 P51      0.070950
     53 H121       -1.8360    7.7780    7.6730 hc        1 P51      0.075700
     54 H122       -0.4470    7.6830    6.5030 hc        1 P51      0.075700
     55 H123       -1.9840    8.5150    6.0280 hc        1 P51      0.075700
     56 H141       -3.6030    4.4160    9.2950 hc        1 P51      0.075700
     57 H142       -4.0500    5.6120    8.0130 hc        1 P51      0.075700
     58 H143       -3.8440    3.8580    7.5880 hc        1 P51      0.075700
     59 H09        -7.5420    2.2350   -5.5240 ha        1 P51      0.137500
     60 H17        -6.9570    1.2970   -7.7600 ha        1 P51      0.139000
     61 H18        -4.7450    0.1990   -8.1140 ha        1 P51      0.137500
     62 H21        -0.5200    5.2450    6.5980 hn        1 P51      0.442800
@<TRIPOS>BOND
     1    1    2 1   
     2    1   10 ar  
     3    1   14 ar  
     4    2    3 3   
     5    3    4 1   
     6    4    5 1   
     7    4   33 1   
     8    4   34 1   
     9    5    6 1   
    10    6   26 ar  
    11    6   30 ar  
    12    7   11 1   
    13    7   14 ar  
    14    7   16 ar  
    15    8   11 1   
    16    8   13 1   
    17    8   24 1   
    18    9   16 1   
    19    9   43 1   
    20   10   15 ar  
    21   10   31 1   
    22   11   37 1   
    23   11   38 1   
    24   12   18 1   
    25   12   19 1   
    26   12   21 1   
    27   12   62 1   
    28   13   17 1   
    29   13   39 1   
    30   13   40 1   
    31   14   32 1   
    32   15   16 ar  
    33   15   25 1   
    34   17   18 1   
    35   17   49 1   
    36   17   50 1   
    37   18   23 1   
    38   18   44 1   
    39   19   20 1   
    40   19   45 1   
    41   19   46 1   
    42   20   53 1   
    43   20   54 1   
    44   20   55 1   
    45   21   22 1   
    46   21   47 1   
    47   21   48 1   
    48   22   56 1   
    49   22   57 1   
    50   22   58 1   
    51   23   24 1   
    52   23   51 1   
    53   23   52 1   
    54   24   41 1   
    55   24   42 1   
    56   26   27 ar  
    57   26   35 1   
    58   27   28 ar  
    59   27   59 1   
    60   28   29 ar  
    61   28   60 1   
    62   29   30 ar  
    63   29   61 1   
    64   30   36 1   
@<TRIPOS>SUBSTRUCTURE
     1 P51         1 TEMP              0 ****  ****    0 ROOT
