@<TRIPOS>MOLECULE
P52
   73    66     1     0     0
SMALL
bcc


@<TRIPOS>ATOM
      1 O1         -0.4250   -2.3370    1.1300 o         1 P52     -1.136000
      2 O2          1.6000   -3.6940    1.7300 oh        1 P52     -0.824000
      3 C1         -1.6050   -5.1760   -1.9950 c3        1 P52     -0.112000
      4 C2         -2.7200   -4.6390   -2.9150 c2        1 P52     -0.080000
      5 C3         -3.9270   -4.2420   -2.3710 c2        1 P52     -0.124000
      6 C4         -4.9900   -3.9220   -3.2010 c1        1 P52     -0.124000
      7 C5         -4.8440   -4.0000   -4.5740 c1        1 P52     -0.129250
      8 C6         -3.6380   -4.3970   -5.1190 c1        1 P52     -0.129250
      9 N1          0.5520   -5.5140   -0.2010 n3        1 P52     -0.317000
     10 C7         -2.5740   -4.7170   -4.2910 c1        1 P52     -0.126000
     11 C8         -1.1760   -4.0730   -1.0090 c3        1 P52     -0.199000
     12 O3          0.1970    0.0850    1.8720 o         1 P52     -0.362000
     13 C9          0.3040   -4.2210   -0.6970 c3        1 P52     -0.740000
     14 C10         1.0050    0.3070    0.9820 c1        1 P52      0.302000
     15 C11         1.8660   -1.6780   -0.2230 c3        1 P52     -0.895000
     16 C12         2.1990   -0.6040    0.8000 c3        1 P52     -0.097000
     17 N2          0.8620    1.4790    0.1550 n2        1 P52     -0.365000
     18 C13         3.3940    0.2130    0.3120 c3        1 P52     -0.152000
     19 C14         4.6390   -0.1150    1.1850 c3        1 P52     -0.101000
     20 C15         5.6880   -0.8240    0.3310 c3        1 P52     -0.214500
     21 C16         5.2290    1.1850    1.7440 c3        1 P52     -0.214500
     22 C17        -0.3680    2.2180    0.1650 c3        1 P52      0.007000
     23 N3         -2.8380    5.8810    1.1520 n2        1 P52     -0.217000
     24 P1          0.7930   -2.9770    0.5660 p5        1 P52      2.811000
     25 C18        -1.1260    1.9490   -1.1050 c1        1 P52      0.289000
     26 C19        -0.0650    3.7060    0.2700 c3        1 P52     -0.097000
     27 C20        -1.1720    4.4010    1.0960 c2        1 P52     -0.166000
     28 C21        -2.3460    4.7910    0.4790 c1        1 P52     -0.081000
     29 C22        -0.9420    5.2590    2.1560 c1        1 P52     -0.087000
     30 C23        -1.9680    6.1730    2.1920 c1        1 P52     -0.006000
     31 C24         0.0800    5.3110    3.1200 c1        1 P52     -0.083000
     32 C25        -1.9950    7.1580    3.1940 c1        1 P52     -0.150000
     33 C26         0.0540    6.2830    4.1080 c1        1 P52     -0.129250
     34 C27        -0.9850    7.2080    4.1460 c1        1 P52     -0.129250
     35 O4         -0.5940    2.1430   -2.1850 o         1 P52     -0.399000
     36 N4         -2.4770    1.4890   -1.0470 n2        1 P52     -0.420000
     37 H1          1.0830   -3.7700    2.4440 ho        1 P52      0.280000
     38 H2         -0.8420   -5.4430   -2.5340 hc        1 P52      0.087500
     39 H3         -1.9380   -5.9480   -1.4960 hc        1 P52      0.087500
     40 H4         -4.0300   -4.1860   -1.4060 ha        1 P52      0.135000
     41 H5         -5.8460   -3.6410   -2.8150 ha        1 P52      0.134000
     42 H6         -5.5940   -3.7750   -5.1590 ha        1 P52      0.132500
     43 H7         -3.5350   -4.4530   -6.0910 ha        1 P52      0.132500
     44 H8          0.1830   -6.1330   -0.7650 hn        1 P52      0.157000
     45 H9          0.1800   -5.5980    0.6280 hn        1 P52      0.157000
     46 H11        -1.7190   -4.9980   -4.6780 ha        1 P52      0.129000
     47 H12        -1.6910   -4.1550   -0.1870 hc        1 P52      0.102500
     48 H13        -1.3380   -3.2010   -1.4080 hc        1 P52      0.102500
     49 H14         0.8250   -4.0790   -1.5140 h1        1 P52      0.139000
     50 H15         2.6990   -2.0920   -0.5470 hc        1 P52      0.151000
     51 H16         1.3880   -1.2740   -0.9770 hc        1 P52      0.151000
     52 H17         2.4210   -1.0290    1.6580 hc        1 P52      0.149000
     53 H18         1.5670    1.7770   -0.3370 hn        1 P52      0.241000
     54 H19         3.1860    1.1690    0.3830 hc        1 P52      0.090000
     55 H20         3.5830   -0.0120   -0.6260 hc        1 P52      0.090000
     56 H21         4.3750   -0.6930    1.9210 hc        1 P52      0.078000
     57 H22         5.2510   -1.4850   -0.2400 hc        1 P52      0.078667
     58 H23         6.3380   -1.2750    0.9180 hc        1 P52      0.078667
     59 H24         6.1550   -0.1650   -0.2290 hc        1 P52      0.078667
     60 H25         6.0470    0.9810    2.2560 hc        1 P52      0.078667
     61 H26         5.4490    1.7910    1.0010 hc        1 P52      0.078667
     62 H27         4.5750    1.6140    2.3320 hc        1 P52      0.078667
     63 H28        -0.9100    1.9400    0.9330 h1        1 P52      0.147000
     64 H29        -3.6030    6.3350    0.9510 DU        1 P52      0.207500
     65 H30         0.7980    3.8320    0.7120 hc        1 P52      0.102500
     66 H31        -0.0330    4.0970   -0.6250 hc        1 P52      0.102500
     67 H32        -2.7310    4.3920   -0.3230 DU        1 P52      0.207500
     68 H33         0.8080    4.6620    3.0940 ha        1 P52      0.167000
     69 H34        -2.7240    7.8090    3.2210 ha        1 P52      0.132000
     70 H35         0.7580    6.3170    4.7720 ha        1 P52      0.132500
     71 H36        -1.0030    7.8890    4.8390 ha        1 P52      0.132500
     72 H37        -2.8940    1.3970   -0.2380 hn        1 P52      0.233500
     73 H38        -2.9300    1.2980   -1.8190 hn        1 P52      0.233500
@<TRIPOS>BOND
     1    1   24 1   
     2    2   24 1   
     3    2   37 1   
     4    3    4 1   
     5    3   11 1   
     6    3   38 1   
     7    3   39 1   
     8    4    5 1   
     9    4   10 1   
    10    5    6 1   
    11    5   40 1   
    12    6   41 1   
    13    7    8 1   
    14    7   42 1   
    15    8   43 1   
    16    9   13 1   
    17    9   44 1   
    18    9   45 1   
    19   10   46 1   
    20   11   13 1   
    21   11   47 1   
    22   11   48 1   
    23   12   14 1   
    24   13   24 1   
    25   13   49 1   
    26   14   16 1   
    27   15   16 1   
    28   15   24 1   
    29   15   50 1   
    30   15   51 1   
    31   16   18 1   
    32   16   52 1   
    33   17   22 1   
    34   17   53 1   
    35   18   19 1   
    36   18   54 1   
    37   18   55 1   
    38   19   20 1   
    39   19   21 1   
    40   19   56 1   
    41   20   57 1   
    42   20   58 1   
    43   20   59 1   
    44   21   60 1   
    45   21   61 1   
    46   21   62 1   
    47   22   25 1   
    48   22   26 1   
    49   22   63 1   
    50   23   28 1   
    51   23   30 1   
    52   25   35 1   
    53   26   27 1   
    54   26   65 1   
    55   26   66 1   
    56   27   28 1   
    57   27   29 1   
    58   29   31 1   
    59   30   32 1   
    60   31   68 1   
    61   32   69 1   
    62   33   34 1   
    63   33   70 1   
    64   34   71 1   
    65   36   72 1   
    66   36   73 1   
@<TRIPOS>SUBSTRUCTURE
     1 P52         1 TEMP              0 ****  ****    0 ROOT
