@<TRIPOS>MOLECULE
P52
   75    71     1     0     0
SMALL
bcc


@<TRIPOS>ATOM
      1 O1          0.2410    1.9740   -2.3830 oh        1 P52     -0.862000
      2 O2          0.8090    1.3910    0.0190 o         1 P52     -1.099000
      3 C2         -0.3080    1.3230    5.2540 c2        1 P52     -0.240000
      4 C3          3.9280    3.7180   -5.3030 c1        1 P52     -0.233000
      5 C4          2.7310    3.7610   -5.2540 c1        1 P52     -0.233000
      6 C5         -1.9770    3.8010    7.4430 c1        1 P52      0.311000
      7 C6         -1.6270    2.6830    6.8270 c2        1 P52     -0.504000
      8 N1          2.9010    1.5390   -3.2680 n4        1 P52     -0.031000
      9 C7         -0.6820    2.5290    5.7570 c2        1 P52      0.044000
     10 C8          1.1040    2.0650    3.2960 c3        1 P52     -0.258000
     11 C9          2.6630    1.5190   -1.8250 c3        1 P52     -0.829000
     12 C10         2.9130   -1.9540   -1.7650 c2        1 P52      0.312000
     13 C11         0.8980   -0.4670   -1.9110 c3        1 P52     -0.931000
     14 C12         1.6360   -1.4820   -1.0540 c3        1 P52     -0.090000
     15 N2          3.4960   -3.1370   -1.4470 n         1 P52     -0.384000
     16 C13         0.7350   -2.6560   -0.6720 c3        1 P52     -0.125000
     17 C14        -0.5340   -2.2300   -0.0100 c2        1 P52     -0.141000
     18 C15        -1.7120   -2.3290   -0.6350 c2        1 P52     -0.198000
     19 C16        -0.4160   -1.7480    1.3880 c3        1 P52     -0.197000
     20 C17         3.7080   -6.7750    2.7280 c2        1 P52     -0.230000
     21 N3          6.8620   -5.9090    4.9410 n2        1 P52     -0.167000
     22 P1          1.0820    1.0630   -1.3670 p5        1 P52      2.800000
     23 C18         3.8640   -6.6800   -1.3180 c2        1 P52      0.276000
     24 C19         4.0620   -6.0820    3.7370 c1        1 P52      0.236000
     25 C20         4.4190   -5.2440    4.8190 c3        1 P52     -0.095000
     26 C21         5.9380   -5.0480    4.9520 c2        1 P52     -0.043000
     27 C22         3.6800   -3.9410    4.7600 ca        1 P52     -0.153000
     28 C23         4.0930   -2.9450    3.8660 ca        1 P52     -0.113000
     29 C24         2.5870   -3.7150    5.6040 ca        1 P52     -0.113000
     30 C25         3.4030   -1.7360    3.8120 ca        1 P52     -0.125500
     31 C26         1.9030   -2.5020    5.5380 ca        1 P52     -0.125500
     32 C27         2.3000   -1.5110    4.6390 ca        1 P52     -0.109000
     33 O4          3.8120   -5.9230   -0.3140 o         1 P52     -0.492000
     34 N4          4.9190   -7.4950   -1.5490 n         1 P52     -0.403000
     35 H2          2.8830    2.5440   -1.3990 hx        1 P52      0.193000
     36 H3          1.7320   -0.5350    4.5740 ha        1 P52      0.242000
     37 H4          4.9900    3.7130   -5.3810 ha        1 P52      0.239500
     38 H5         -0.7690    0.4010    5.6550 ha        1 P52      0.140000
     39 H6          1.6710    3.8610   -5.2630 ha        1 P52      0.239500
     40 H7         -2.1320    1.7540    7.1810 ha        1 P52      0.206000
     41 H8          3.6930    2.1550   -3.5060 hn        1 P52      0.271000
     42 H9          2.0640    1.9000   -3.7520 hn        1 P52      0.271000
     43 H11        -0.2130    3.4580    5.3830 ha        1 P52      0.134000
     44 H12         2.2230    2.1390    3.2570 hc        1 P52      0.111333
     45 H13         0.6780    3.0970    3.3920 hc        1 P52      0.111333
     46 H14         0.7660    1.6440    2.3020 hc        1 P52      0.111333
     47 H15        -0.2030   -0.7440   -1.9050 hc        1 P52      0.180000
     48 H16         3.4230    0.8280   -1.3500 hx        1 P52      0.193000
     49 H17         1.1830   -0.6200   -2.9870 hc        1 P52      0.180000
     50 H18         3.1010   -3.7790   -0.8010 hn        1 P52      0.251000
     51 H19         1.9660   -0.9790   -0.0960 hc        1 P52      0.125000
     52 H20         0.5090   -3.2540   -1.5950 hc        1 P52      0.099000
     53 H21         1.2790   -3.3250    0.0490 hc        1 P52      0.099000
     54 H22        -1.8120   -2.7060   -1.6620 ha        1 P52      0.129500
     55 H23        -0.4460    2.5480   -2.0420 ho        1 P52      0.316000
     56 H24        -2.6590   -2.0570   -0.1460 ha        1 P52      0.129500
     57 H25        -1.4240   -1.6130    1.8530 hc        1 P52      0.095667
     58 H26         0.1580   -2.4830    2.0060 hc        1 P52      0.095667
     59 H27         0.1170   -0.7630    1.4290 hc        1 P52      0.095667
     60 H28         3.9520   -6.4810    1.6630 ha        1 P52      0.289000
     61 H29         6.6540   -6.8770    4.8240 hn        1 P52      0.165000
     62 H30         3.1230   -7.7210    2.7630 ha        1 P52      0.289000
     63 H31         4.0980   -5.8000    5.7770 hc        1 P52      0.234000
     64 H32         6.2000   -3.9770    5.1100 h4        1 P52      0.207000
     65 H33         2.2700   -4.4820    6.3270 ha        1 P52      0.131500
     66 H34         4.9680   -3.1080    3.2200 ha        1 P52      0.131500
     67 H35         1.0460   -2.3220    6.2070 ha        1 P52      0.149000
     68 H36         3.7370   -0.9470    3.1230 ha        1 P52      0.149000
     69 H37         5.7110   -7.5000   -0.9520 hn        1 P52      0.242000
     70 H38         4.9480   -8.0770   -2.3520 hn        1 P52      0.242000
     71 C1          0.7210    1.1230    4.3160 c1        1 P52     -0.129000
     72 H131        3.1230    0.5840   -3.6060 hn        1 P52      0.271000
     73 H221        4.3380   -3.3980   -1.9060 hn        1 P52      0.251000
     74 H43         3.0380   -6.7220   -2.0670 h5        1 P52      0.150000
     75 O3          3.4670   -1.2130   -2.6250 o         1 P52     -0.487000
@<TRIPOS>BOND
     1    1   22 1   
     2    1   55 1   
     3    2   22 1   
     4    3    9 1   
     5    3   38 1   
     6    3   71 1   
     7    4    5 1   
     8    4   37 1   
     9    5   39 1   
    10    6    7 1   
    11    7    9 1   
    12    7   40 1   
    13    8   11 1   
    14    8   41 1   
    15    8   42 1   
    16    8   72 1   
    17    9   43 1   
    18   10   44 1   
    19   10   45 1   
    20   10   46 1   
    21   10   71 1   
    22   11   22 1   
    23   11   35 1   
    24   11   48 1   
    25   12   14 1   
    26   12   15 1   
    27   12   75 1   
    28   13   14 1   
    29   13   22 1   
    30   13   47 1   
    31   13   49 1   
    32   14   16 1   
    33   14   51 1   
    34   15   50 1   
    35   15   73 1   
    36   16   17 1   
    37   16   52 1   
    38   16   53 1   
    39   17   18 1   
    40   17   19 1   
    41   18   54 1   
    42   18   56 1   
    43   19   57 1   
    44   19   58 1   
    45   19   59 1   
    46   20   24 1   
    47   20   60 1   
    48   20   62 1   
    49   21   26 1   
    50   21   61 1   
    51   23   33 1   
    52   23   34 1   
    53   23   74 1   
    54   24   25 1   
    55   25   26 1   
    56   25   27 1   
    57   25   63 1   
    58   26   64 1   
    59   27   28 1   
    60   27   29 1   
    61   28   30 1   
    62   28   66 1   
    63   29   31 1   
    64   29   65 1   
    65   30   32 1   
    66   30   68 1   
    67   31   32 1   
    68   31   67 1   
    69   32   36 1   
    70   34   69 1   
    71   34   70 1   
@<TRIPOS>SUBSTRUCTURE
     1 P52         1 TEMP              0 ****  ****    0 ROOT
