@<TRIPOS>MOLECULE
P52
   73    75     1     0     0
SMALL
bcc


@<TRIPOS>ATOM
      1 O1          1.4720    0.7070    1.3000 o         1 P52     -0.878300
      2 O2          1.3310   -0.2240   -0.9510 oh        1 P52     -0.803400
      3 C2          5.6030   -0.6780   -1.8530 ca        1 P52     -0.083300
      4 C3          5.3280   -1.9970   -1.4700 ca        1 P52     -0.126000
      5 C4          6.3560   -2.9340   -1.3890 ca        1 P52     -0.127500
      6 C5          7.6670   -2.5630   -1.6900 ca        1 P52     -0.129000
      7 C6          7.9460   -1.2520   -2.0750 ca        1 P52     -0.127500
      8 N1          3.1430    3.0100    0.1510 n3        1 P52     -0.897800
      9 C7          6.9190   -0.3120   -2.1560 ca        1 P52     -0.126000
     10 C8          4.0340    0.7560   -0.5700 c3        1 P52     -0.090400
     11 C9          2.9270    1.8110   -0.6340 c3        1 P52     -0.131700
     12 C10        -2.0780    1.2590   -0.6940 c         1 P52      0.660100
     13 C11         0.2770    2.1150   -0.6280 c3        1 P52     -0.427600
     14 C12        -0.9930    1.9100    0.1750 c3        1 P52     -0.106700
     15 N2         -3.0090    0.4710   -0.0560 n         1 P52     -0.552900
     16 C13        -1.5790    3.2150    0.7080 c3        1 P52     -0.072400
     17 C14        -0.7680    3.8550    1.8260 c3        1 P52     -0.066700
     18 C15        -1.3630    5.2120    2.1530 c3        1 P52     -0.099100
     19 C16        -0.7290    2.9890    3.0680 c3        1 P52     -0.099100
     20 C17        -4.0330   -0.2450   -0.7750 c3        1 P52      0.041700
     21 N3         -1.7200   -3.9720   -0.2890 na        1 P52     -0.192400
     22 P1          1.4840    1.1390   -0.0960 p5        1 P52      1.500100
     23 C18        -5.2790    0.6440   -1.0260 c         1 P52      0.638100
     24 C19        -4.4980   -1.5210   -0.0510 c3        1 P52     -0.011200
     25 C20        -3.4160   -2.4930    0.1360 cc        1 P52     -0.154400
     26 C21        -2.6260   -3.0760   -0.8580 cd        1 P52     -0.097100
     27 C22        -2.9940   -3.0650    1.3990 ca        1 P52     -0.088800
     28 C23        -1.9290   -3.9940    1.0920 ca        1 P52     -0.047200
     29 C24        -3.3960   -2.8990    2.7250 ca        1 P52     -0.086000
     30 C25        -1.2920   -4.7260    2.1070 ca        1 P52     -0.143000
     31 C26        -2.7580   -3.6290    3.7160 ca        1 P52     -0.153000
     32 C27        -1.7210   -4.5280    3.4100 ca        1 P52     -0.110000
     33 O4         -6.3800    0.3900   -0.4960 o         1 P52     -0.622100
     34 N4         -5.1280    1.7080   -1.8700 n         1 P52     -0.667000
     35 H1          1.2620   -1.0210   -0.4320 ho        1 P52      0.474000
     36 H2          4.8420    1.2160   -2.5280 hc        1 P52      0.055200
     37 H3          3.6400   -0.1380   -2.5110 hc        1 P52      0.055200
     38 H4          4.2940   -2.2900   -1.2350 ha        1 P52      0.131000
     39 H5          6.1330   -3.9670   -1.0860 ha        1 P52      0.132000
     40 H6          8.4770   -3.3030   -1.6260 ha        1 P52      0.132000
     41 H7          8.9780   -0.9570   -2.3150 ha        1 P52      0.132000
     42 H8          3.3380    2.7500    1.1020 hn        1 P52      0.363800
     43 H9          3.9140    3.5440   -0.2020 hn        1 P52      0.363800
     44 H11         7.1450    0.7200   -2.4610 ha        1 P52      0.131000
     45 H12         3.6580   -0.1390   -0.0020 hc        1 P52      0.057200
     46 H13         4.9270    1.1430   -0.0070 hc        1 P52      0.057200
     47 H14         2.8400    2.1460   -1.7110 h1        1 P52      0.103700
     48 H15         0.0490    1.9500   -1.7210 hc        1 P52      0.134200
     49 H16         0.5600    3.2030   -0.5770 hc        1 P52      0.134200
     50 H17        -0.7570    1.2410    1.0580 hc        1 P52      0.097700
     51 H18        -2.9120    0.2740    0.9130 hn        1 P52      0.329500
     52 H19        -1.6690    3.9410   -0.1440 hc        1 P52      0.052700
     53 H20        -2.6150    3.0170    1.0930 hc        1 P52      0.052700
     54 H21         0.2880    4.0160    1.4690 hc        1 P52      0.048700
     55 H22        -2.4090    5.1020    2.5260 hc        1 P52      0.040033
     56 H23        -0.7570    5.7150    2.9450 hc        1 P52      0.040033
     57 H24        -1.3750    5.8640    1.2480 hc        1 P52      0.040033
     58 H25        -0.2730    3.5580    3.9140 hc        1 P52      0.040033
     59 H26        -1.7600    2.6830    3.3670 hc        1 P52      0.040033
     60 H27        -0.1140    2.0700    2.8990 hc        1 P52      0.040033
     61 H28        -3.6160   -0.5390   -1.7880 h1        1 P52      0.080700
     62 H29        -1.0830   -4.5390   -0.7800 hn        1 P52      0.299700
     63 H30        -4.9540   -1.2480    0.9390 hc        1 P52      0.075700
     64 H31        -5.3220   -1.9700   -0.6720 hc        1 P52      0.075700
     65 H32        -2.6390   -2.9090   -1.9370 h4        1 P52      0.168000
     66 H33        -4.2100   -2.2010    2.9720 ha        1 P52      0.135000
     67 H34        -0.4820   -5.4300    1.8750 ha        1 P52      0.132000
     68 H35        -3.0640   -3.5080    4.7660 ha        1 P52      0.131000
     69 H36        -1.2400   -5.0870    4.2270 ha        1 P52      0.131000
     70 H37        -4.2520    1.9050   -2.2900 hn        1 P52      0.322500
     71 H38        -5.9000    2.2950   -2.0610 hn        1 P52      0.322500
     72 C1          4.4990    0.3170   -1.9480 c3        1 P52     -0.037100
     73 O3         -2.1480    1.4620   -1.9260 o         1 P52     -0.637100
@<TRIPOS>BOND
     1    1   22 2   
     2    2   22 1   
     3    2   35 1   
     4    3    4 ar  
     5    3    9 ar  
     6    3   72 1   
     7    4    5 ar  
     8    4   38 1   
     9    5    6 ar  
    10    5   39 1   
    11    6    7 ar  
    12    6   40 1   
    13    7    9 ar  
    14    7   41 1   
    15    8   11 1   
    16    8   42 1   
    17    8   43 1   
    18    9   44 1   
    19   10   11 1   
    20   10   45 1   
    21   10   46 1   
    22   10   72 1   
    23   11   22 1   
    24   11   47 1   
    25   12   14 1   
    26   12   15 1   
    27   12   73 2   
    28   13   14 1   
    29   13   22 1   
    30   13   48 1   
    31   13   49 1   
    32   14   16 1   
    33   14   50 1   
    34   15   20 1   
    35   15   51 1   
    36   16   17 1   
    37   16   52 1   
    38   16   53 1   
    39   17   18 1   
    40   17   19 1   
    41   17   54 1   
    42   18   55 1   
    43   18   56 1   
    44   18   57 1   
    45   19   58 1   
    46   19   59 1   
    47   19   60 1   
    48   20   23 1   
    49   20   24 1   
    50   20   61 1   
    51   21   26 1   
    52   21   28 1   
    53   21   62 1   
    54   23   33 2   
    55   23   34 1   
    56   24   25 1   
    57   24   63 1   
    58   24   64 1   
    59   25   26 2   
    60   25   27 1   
    61   26   65 1   
    62   27   28 ar  
    63   27   29 ar  
    64   28   30 ar  
    65   29   31 ar  
    66   29   66 1   
    67   30   32 ar  
    68   30   67 1   
    69   31   32 ar  
    70   31   68 1   
    71   32   69 1   
    72   34   70 1   
    73   34   71 1   
    74   36   72 1   
    75   37   72 1   
@<TRIPOS>SUBSTRUCTURE
     1 P52         1 TEMP              0 ****  ****    0 ROOT
