@<TRIPOS>MOLECULE
P53
   41    38     1     0     0
SMALL
bcc


@<TRIPOS>ATOM
      1 P          -4.7710   -2.0260   -1.8760 p3        1 P53      2.543000
      2 C1          1.3950    4.3510    0.5400 c1        1 P53     -0.113000
      3 C2          1.9300    4.3990   -0.7470 c2        1 P53     -0.166000
      4 C4          2.2140    3.2360   -1.4190 c1        1 P53     -0.133000
      5 C6          1.9700    2.0190   -0.8230 c1        1 P53     -0.164000
      6 O6         -3.2180   -1.6010   -1.8400 os        1 P53     -0.754000
      7 C8          1.4390    1.9720    0.4590 c1        1 P53      0.102000
      8 C10         1.1530    3.1500    1.1340 c2        1 P53     -0.108000
      9 C13         0.5450    3.0990    2.5880 c3        1 P53      0.008000
     10 O15         0.1710    4.4050    2.9920 oh        1 P53     -0.353000
     11 O17         1.2430    0.7200    1.1030 o         1 P53     -0.238000
     12 C19         0.8320   -0.2700    0.1310 c3        1 P53      0.175000
     13 O1P        -5.3320   -1.7610   -3.2570 o         1 P53     -1.173000
     14 C21         1.4750   -1.5400    0.4660 c3        1 P53      0.006000
     15 C23         1.0340   -2.6320   -0.2960 c3        1 P53     -0.097000
     16 C25        -0.4300   -2.7820   -0.3130 c3        1 P53      0.173000
     17 C27        -1.2340   -1.4470   -0.7900 c3        1 P53     -0.059000
     18 O29        -0.6300   -0.3360    0.1250 os        1 P53     -0.320000
     19 O2P        -4.9040   -3.5260   -1.5480 os        1 P53     -0.841000
     20 O32         2.9580   -1.3900    0.2650 oh        1 P53     -0.364000
     21 O34         1.6500   -3.9210    0.2920 oh        1 P53     -0.390000
     22 O36        -0.7650   -3.8430   -1.1850 oh        1 P53     -0.704000
     23 C38        -2.5330   -1.5780   -0.5780 c3        1 P53      0.045000
     24 O3P        -5.5410   -1.2170   -0.8590 o         1 P53     -1.173000
     25 H1          1.1970    5.1680    1.0080 DU        1 P53      0.134000
     26 H2          2.0950    5.2310   -1.1580 ha        1 P53      0.109000
     27 H4          2.6070    3.2720   -2.3680 ha        1 P53      0.109000
     28 H6          2.1710    1.1970   -1.2970 ha        1 P53      0.143000
     29 H13        -0.2290    2.5300    2.5900 h1        1 P53      0.116500
     30 H19         1.1290    0.0040   -0.7260 h2        1 P53      0.077000
     31 H21         1.3110   -1.7290    1.3880 h1        1 P53      0.097000
     32 H23         1.3360   -2.5270   -1.1730 h1        1 P53      0.065000
     33 H25        -0.7350   -3.0210    0.6120 h1        1 P53     -0.038000
     34 H27        -1.0510   -1.2490   -1.7590 h1        1 P53      0.085000
     35 HO32        3.3650   -1.5820    0.9920 ho        1 P53      0.206000
     36 HO34        1.3460   -4.0510    1.0800 ho        1 P53      0.236000
     37 HO36       -0.8150   -4.6630   -0.6880 ho        1 P53      0.268000
     38 H38        -2.6980   -2.3860   -0.1130 h1        1 P53      0.076500
     39 H38A       -2.8560   -0.8150   -0.0400 h1        1 P53      0.076500
     40 H18         1.2220    2.7400    3.2200 h1        1 P53      0.116500
     41 H191       -0.0460    4.4000    3.8670 ho        1 P53      0.221000
@<TRIPOS>BOND
     1    1    6 1   
     2    1   13 1   
     3    1   24 1   
     4    2    3 1   
     5    2    8 1   
     6    3    4 1   
     7    3   26 1   
     8    4   27 1   
     9    5    7 1   
    10    5   28 1   
    11    6   23 1   
    12    7    8 1   
    13    8    9 1   
    14    9   10 1   
    15    9   29 1   
    16    9   40 1   
    17   10   41 1   
    18   11   12 1   
    19   12   14 1   
    20   12   18 1   
    21   12   30 1   
    22   14   15 1   
    23   14   20 1   
    24   14   31 1   
    25   15   16 1   
    26   15   21 1   
    27   15   32 1   
    28   16   17 1   
    29   16   22 1   
    30   16   33 1   
    31   17   18 1   
    32   17   23 1   
    33   17   34 1   
    34   20   35 1   
    35   21   36 1   
    36   22   37 1   
    37   23   38 1   
    38   23   39 1   
@<TRIPOS>SUBSTRUCTURE
     1 P53         1 TEMP              0 ****  ****    0 ROOT
