@<TRIPOS>MOLECULE
P53
   41    42     1     0     0
SMALL
bcc


@<TRIPOS>ATOM
      1 P          -3.1740   -1.6760    0.5620 p5        1 P53      1.324900
      2 C1          3.6740   -2.7410    0.2850 ca        1 P53     -0.142000
      3 C2          2.6090   -3.5160    0.7360 ca        1 P53     -0.185000
      4 C4          1.3310   -2.9620    0.8290 ca        1 P53     -0.076000
      5 C6          1.1080   -1.6310    0.4790 ca        1 P53     -0.134000
      6 O6         -3.2940    0.0650    0.4640 os        1 P53     -0.551200
      7 C8          2.1880   -0.8580    0.0340 ca        1 P53      0.111100
      8 C10         3.4840   -1.4030   -0.0740 ca        1 P53     -0.194300
      9 C13         4.6280   -0.5810   -0.5570 c3        1 P53      0.191700
     10 O15         5.5680   -1.3180   -1.3300 oh        1 P53     -0.631800
     11 O17         2.0570    0.4650   -0.3770 os        1 P53     -0.367900
     12 C19         0.9940    1.1990    0.2230 c3        1 P53      0.310900
     13 O1P        -3.3550   -2.0570   -0.8800 o         1 P53     -0.928833
     14 C21         1.2650    2.6820   -0.1150 c3        1 P53      0.075100
     15 C23         0.0350    3.5090    0.2740 c3        1 P53      0.095100
     16 C25        -1.2500    2.8900   -0.3250 c3        1 P53      0.121100
     17 C27        -1.3460    1.4030    0.0730 c3        1 P53      0.094100
     18 O29        -0.1650    0.7680   -0.4500 os        1 P53     -0.394600
     19 O2P        -1.7570   -1.8110    1.0760 o         1 P53     -0.928833
     20 O32         2.3740    3.1960    0.6110 oh        1 P53     -0.630800
     21 O34         0.1410    4.8340   -0.2350 oh        1 P53     -0.622800
     22 O36        -2.3710    3.5820    0.1920 oh        1 P53     -0.564800
     23 C38        -2.5590    0.6340   -0.5310 c3        1 P53      0.252400
     24 O3P        -4.2670   -2.0310    1.5220 o         1 P53     -0.928833
     25 H4          0.4560   -3.5470    1.1650 ha        1 P53      0.182000
     26 H6          0.0480   -1.2450    0.5460 ha        1 P53      0.293000
     27 H13         4.2610    0.2850   -1.1740 h1        1 P53      0.039700
     28 H19         0.9390    1.0180    1.3310 h2        1 P53      0.066700
     29 H21         1.4710    2.7860   -1.2170 h1        1 P53      0.061700
     30 H23        -0.0530    3.5530    1.3950 h1        1 P53      0.055700
     31 H25        -1.2160    2.9890   -1.4440 h1        1 P53      0.041700
     32 H27        -1.3780    1.3080    1.1910 h1        1 P53      0.081700
     33 HO32        3.0640    2.5220    0.5570 ho        1 P53      0.414000
     34 HO34        0.9900    5.1720    0.0730 ho        1 P53      0.401000
     35 HO36       -2.2910    4.4870   -0.1330 ho        1 P53      0.382000
     36 H38        -2.1740   -0.1400   -1.2560 h1        1 P53      0.015700
     37 H38A       -3.1740    1.4050   -1.0810 h1        1 P53      0.015700
     38 H18         5.2290   -0.1870    0.3090 h1        1 P53      0.039700
     39 H191        5.0620   -1.9150   -1.8930 ho        1 P53      0.404000
     40 H1          4.6820   -3.1730    0.2040 ha        1 P53      0.106000
     41 H2          2.7760   -4.5660    1.0120 ha        1 P53      0.105000
@<TRIPOS>BOND
     1    1    6 1   
     2    1   13 1   
     3    1   19 1   
     4    1   24 1   
     5    2    3 ar  
     6    2    8 ar  
     7    2   40 1   
     8    3    4 ar  
     9    3   41 1   
    10    4    5 ar  
    11    4   25 1   
    12    5    7 ar  
    13    5   26 1   
    14    6   23 1   
    15    7    8 ar  
    16    7   11 1   
    17    8    9 1   
    18    9   10 1   
    19    9   27 1   
    20    9   38 1   
    21   10   39 1   
    22   11   12 1   
    23   12   14 1   
    24   12   18 1   
    25   12   28 1   
    26   14   15 1   
    27   14   20 1   
    28   14   29 1   
    29   15   16 1   
    30   15   21 1   
    31   15   30 1   
    32   16   17 1   
    33   16   22 1   
    34   16   31 1   
    35   17   18 1   
    36   17   23 1   
    37   17   32 1   
    38   20   33 1   
    39   21   34 1   
    40   22   35 1   
    41   23   36 1   
    42   23   37 1   
@<TRIPOS>SUBSTRUCTURE
     1 P53         1 TEMP              0 ****  ****    0 ROOT
