@<TRIPOS>MOLECULE
P54
   43    45     1     0     0
SMALL
bcc


@<TRIPOS>ATOM
      1 C1          0.5640   -1.5860   -0.0530 cc        1 P54     -0.160900
      2 C2          1.6140   -0.6120   -0.4580 cc        1 P54     -0.010300
      3 C3          0.9230   -2.9310    0.1950 cd        1 P54      0.765200
      4 N4          2.9240   -1.0580   -0.6090 na        1 P54     -0.192900
      5 N5          2.2650   -3.3070    0.0440 nd        1 P54     -0.770000
      6 C6          3.1510   -2.3920   -0.3210 cc        1 P54      0.569400
      7 N7         -0.6430   -0.8990    0.0140 nc        1 P54     -0.587100
      8 C8         -0.3190    0.3850   -0.3280 cd        1 P54      0.502200
      9 N9          1.0500    0.6170   -0.6270 nd        1 P54     -0.404300
     10 S10        -1.3840    1.7060   -0.4020 ss        1 P54     -0.037100
     11 N11        -0.0080   -3.8600    0.5620 nh        1 P54     -0.943500
     12 C12         4.0000   -0.1530   -0.9530 c3        1 P54      0.028300
     13 C13         4.6440    0.5410    0.2470 c3        1 P54     -0.100400
     14 C14         5.7310    1.4840   -0.2440 c3        1 P54      0.001700
     15 C15         6.4290    2.1070    0.8410 c1        1 P54     -0.147100
     16 C16         7.0190    2.6360    1.7370 c1        1 P54     -0.144500
     17 C17        -2.9320    1.0950   -0.0260 ca        1 P54     -0.059100
     18 C18        -3.4870    1.5210    1.1880 ca        1 P54     -0.068000
     19 C19        -4.7930    1.1950    1.5320 ca        1 P54     -0.157000
     20 C20        -5.5710    0.4120    0.6680 ca        1 P54     -0.045300
     21 C21        -3.7050    0.3090   -0.8950 ca        1 P54      0.000700
     22 C22        -5.0170   -0.0260   -0.5360 ca        1 P54     -0.154000
     23 C23        -3.1650   -0.1790   -2.1850 c3        1 P54     -0.070800
     24 C24        -6.9650    0.0660    1.0280 c3        1 P54     -0.057800
     25 H6          4.2030   -2.7400   -0.4240 h5        1 P54      0.054100
     26 HN11       -0.9440   -3.5620    0.6990 hn        1 P54      0.454300
     27 HN1A        0.2510   -4.7910    0.7730 hn        1 P54      0.454300
     28 H12         4.7870   -0.7410   -1.5080 h1        1 P54      0.073200
     29 H12A        3.5860    0.6300   -1.6520 h1        1 P54      0.073200
     30 H13         3.8710    1.1210    0.8170 hc        1 P54      0.066700
     31 H13A        5.0840   -0.2170    0.9460 hc        1 P54      0.066700
     32 H14         6.4680    0.9150   -0.8800 hc        1 P54      0.061700
     33 H14A        5.2700    2.2790   -0.8960 hc        1 P54      0.061700
     34 H16         7.5400    3.1070    2.5310 ha        1 P54      0.166500
     35 H18        -2.8740    2.1250    1.8770 ha        1 P54      0.143000
     36 H19        -5.2170    1.5440    2.4850 ha        1 P54      0.132000
     37 H22        -5.6200   -0.6440   -1.2200 ha        1 P54      0.131000
     38 H23        -2.6480   -1.1610   -2.0300 hc        1 P54      0.055367
     39 H23A       -3.9830   -0.3250   -2.9320 hc        1 P54      0.055367
     40 H23B       -2.4200    0.5450   -2.6030 hc        1 P54      0.055367
     41 H24        -7.6480    0.9090    0.7530 hc        1 P54      0.045367
     42 H24A       -7.3060   -0.8510    0.4870 hc        1 P54      0.045367
     43 H24B       -7.0590   -0.1150    2.1270 hc        1 P54      0.045367
@<TRIPOS>BOND
     1    1    2 1   
     2    1    3 2   
     3    1    7 1   
     4    2    4 1   
     5    2    9 2   
     6    3    5 1   
     7    3   11 1   
     8    4    6 1   
     9    4   12 1   
    10    5    6 2   
    11    6   25 1   
    12    7    8 2   
    13    8    9 1   
    14    8   10 1   
    15   10   17 1   
    16   11   26 1   
    17   11   27 1   
    18   12   13 1   
    19   12   28 1   
    20   12   29 1   
    21   13   14 1   
    22   13   30 1   
    23   13   31 1   
    24   14   15 1   
    25   14   32 1   
    26   14   33 1   
    27   15   16 3   
    28   16   34 1   
    29   17   18 ar  
    30   17   21 ar  
    31   18   19 ar  
    32   18   35 1   
    33   19   20 ar  
    34   19   36 1   
    35   20   22 ar  
    36   20   24 1   
    37   21   22 ar  
    38   21   23 1   
    39   22   37 1   
    40   23   38 1   
    41   23   39 1   
    42   23   40 1   
    43   24   41 1   
    44   24   42 1   
    45   24   43 1   
@<TRIPOS>SUBSTRUCTURE
     1 P54         1 TEMP              0 ****  ****    0 ROOT
