@<TRIPOS>MOLECULE
P54
   44    45     1     0     0
SMALL
bcc


@<TRIPOS>ATOM
      1 C1         -0.1030   -0.1020    0.3940 cc        1 P54      0.071100
      2 C2          1.3580   -0.6010    0.3980 cc        1 P54      0.001700
      3 C3         -0.6250    0.3260    1.5940 cd        1 P54      0.372200
      4 N4          2.0900   -0.5880    1.6040 na        1 P54     -0.173200
      5 N5          0.1320    0.3250    2.7780 nd        1 P54     -0.681000
      6 C6          1.3640   -0.0980    2.7420 cc        1 P54      0.592400
      7 N7         -0.5850   -0.2160   -0.8910 nc        1 P54     -0.675100
      8 C8          0.4670   -0.7430   -1.6170 cd        1 P54      0.527200
      9 N9          1.6790   -0.9850   -0.8340 nd        1 P54     -0.341300
     10 S10         0.5250   -1.1180   -3.2050 ss        1 P54      0.321900
     11 N11        -2.0070    0.8050    1.6860 n4        1 P54     -0.787300
     12 C12         3.3570   -0.9680    1.7870 c1        1 P54      0.055500
     13 C13         5.6330    1.6020    2.3300 c3        1 P54     -0.092100
     14 C14         5.6780    2.3860    1.0380 c3        1 P54     -0.016300
     15 C15         4.4030    2.9300    0.6720 c1        1 P54     -0.120100
     16 C16         3.3500    3.4010    0.3530 c1        1 P54     -0.190500
     17 C17        -0.9740   -0.7330   -3.8720 ca        1 P54     -0.190100
     18 C18        -1.4260    0.5950   -3.9180 ca        1 P54     -0.044000
     19 C19        -2.5930    0.9280   -4.5910 ca        1 P54     -0.155000
     20 C20        -3.3410   -0.0670   -5.2390 ca        1 P54      0.002700
     21 C21        -1.7250   -1.7380   -4.5080 ca        1 P54      0.018700
     22 C22        -2.8990   -1.3920   -5.1880 ca        1 P54     -0.153000
     23 C23        -1.2990   -3.1580   -4.5040 c3        1 P54     -0.082800
     24 C24        -4.5720    0.2860   -5.9800 c3        1 P54     -0.074800
     25 H6          1.9640   -0.0940    3.6860 h5        1 P54      0.115100
     26 HN11       -2.5220    0.2520    2.3820 hn        1 P54      0.469467
     27 HN1A       -2.4580    0.7100    0.7670 hn        1 P54      0.469467
     28 H12         6.6530    1.2160    2.5710 hc        1 P54      0.042367
     29 H12A        3.9110   -1.3390    0.9010 ha        1 P54      0.042500
     30 H13         5.2910    2.2480    3.1740 hc        1 P54      0.042367
     31 H13A        4.9370    0.7310    2.2470 hc        1 P54      0.042367
     32 H14         6.4170    3.2320    1.1400 hc        1 P54      0.068200
     33 H14A        6.0500    1.7230    0.2070 hc        1 P54      0.068200
     34 H16         2.4340    3.8460    0.0620 ha        1 P54      0.158500
     35 H18        -0.8440    1.3850   -3.4170 ha        1 P54      0.140000
     36 H19        -2.9300    1.9760   -4.6270 ha        1 P54      0.150000
     37 H22        -3.4790   -2.1810   -5.6930 ha        1 P54      0.154000
     38 H23        -2.1640   -3.8220   -4.2500 hc        1 P54      0.064700
     39 H23A       -0.4800   -3.3460   -3.7650 hc        1 P54      0.064700
     40 H23B       -0.9280   -3.4460   -5.5210 hc        1 P54      0.064700
     41 H24        -5.2960   -0.5660   -5.9900 hc        1 P54      0.062700
     42 H24A       -4.3130    0.5360   -7.0410 hc        1 P54      0.062700
     43 H24B       -5.0740    1.1750   -5.5250 hc        1 P54      0.062700
     44 H113       -2.0130    1.7910    1.9740 hn        1 P54      0.469467
@<TRIPOS>BOND
     1    1    2 1   
     2    1    3 2   
     3    1    7 1   
     4    2    4 1   
     5    2    9 2   
     6    3    5 1   
     7    3   11 1   
     8    4    6 1   
     9    4   12 3   
    10    5    6 2   
    11    6   25 1   
    12    7    8 2   
    13    8    9 1   
    14    8   10 1   
    15   10   17 1   
    16   11   26 1   
    17   11   27 1   
    18   11   44 1   
    19   12   29 1   
    20   13   14 1   
    21   13   28 1   
    22   13   30 1   
    23   13   31 1   
    24   14   15 1   
    25   14   32 1   
    26   14   33 1   
    27   15   16 3   
    28   16   34 1   
    29   17   18 ar  
    30   17   21 ar  
    31   18   19 ar  
    32   18   35 1   
    33   19   20 ar  
    34   19   36 1   
    35   20   22 ar  
    36   20   24 1   
    37   21   22 ar  
    38   21   23 1   
    39   22   37 1   
    40   23   38 1   
    41   23   39 1   
    42   23   40 1   
    43   24   41 1   
    44   24   42 1   
    45   24   43 1   
@<TRIPOS>SUBSTRUCTURE
     1 P54         1 TEMP              0 ****  ****    0 ROOT
