@<TRIPOS>MOLECULE
P54
   43    45     1     0     0
SMALL
bcc


@<TRIPOS>ATOM
      1 C1         -0.0250   -0.1910    0.2090 cc        1 P54     -0.160900
      2 C2          1.4530   -0.0630    0.1000 cc        1 P54     -0.009300
      3 C3         -0.6250   -0.2600    1.4880 cd        1 P54      0.765200
      4 N4          2.2140   -0.0400    1.2660 na        1 P54     -0.192900
      5 N5          0.2010   -0.2100    2.6210 nd        1 P54     -0.770000
      6 C6          1.5110   -0.0970    2.4560 cc        1 P54      0.569400
      7 N7         -0.5420   -0.2010   -1.0810 nc        1 P54     -0.587100
      8 C8          0.5580   -0.0870   -1.8860 cd        1 P54      0.502200
      9 N9          1.8070    0.0020   -1.2140 nd        1 P54     -0.404300
     10 S10         0.5620   -0.0180   -3.5820 ss        1 P54     -0.037100
     11 N11        -1.9760   -0.3840    1.6350 nh        1 P54     -0.943500
     12 C12         3.6520    0.1310    1.2330 c3        1 P54      0.028300
     13 C13         4.1100    1.5900    1.2200 c3        1 P54     -0.100400
     14 C14         5.6280    1.6370    1.1530 c3        1 P54      0.001700
     15 C15         6.1240    2.9790    1.2210 c1        1 P54     -0.147100
     16 C16         6.5530    4.0950    1.2740 c1        1 P54     -0.144500
     17 C17        -1.0640   -0.1850   -4.0720 ca        1 P54     -0.059100
     18 C18        -1.6520    0.9450   -4.6580 ca        1 P54     -0.068000
     19 C19        -2.9230    0.8830   -5.2150 ca        1 P54     -0.157000
     20 C20        -3.6470   -0.3160   -5.1770 ca        1 P54     -0.045300
     21 C21        -1.7840   -1.3890   -4.0320 ca        1 P54      0.000700
     22 C22        -3.0710   -1.4410   -4.5840 ca        1 P54     -0.153000
     23 C23        -1.2160   -2.6100   -3.4160 c3        1 P54     -0.070800
     24 C24        -5.0130   -0.3790   -5.7480 c3        1 P54     -0.057800
     25 H6          2.1210   -0.0590    3.3850 h5        1 P54      0.054100
     26 HN11       -2.5420   -0.3790    0.8220 hn        1 P54      0.454300
     27 HN1A       -2.3970   -0.3930    2.5310 hn        1 P54      0.454300
     28 H12         4.0860   -0.3870    2.1360 h1        1 P54      0.073700
     29 H12A        4.0420   -0.3850    0.3070 h1        1 P54      0.073700
     30 H13         3.6760    2.1220    0.3330 hc        1 P54      0.066700
     31 H13A        3.7520    2.1180    2.1420 hc        1 P54      0.066700
     32 H14         5.9750    1.1590    0.1940 hc        1 P54      0.061700
     33 H14A        6.0640    1.0380    2.0020 hc        1 P54      0.061700
     34 H16         6.9330    5.0830    1.3190 ha        1 P54      0.166500
     35 H18        -1.0910    1.8940   -4.6770 ha        1 P54      0.143000
     36 H19        -3.3660    1.7750   -5.6810 ha        1 P54      0.132000
     37 H22        -3.6320   -2.3870   -4.5510 ha        1 P54      0.131000
     38 H23        -1.4570   -2.6280   -2.3220 hc        1 P54      0.055367
     39 H23A       -1.6420   -3.5300   -3.8860 hc        1 P54      0.055367
     40 H23B       -0.1020   -2.6300   -3.5280 hc        1 P54      0.055367
     41 H24        -5.3090   -1.4330   -5.9740 hc        1 P54      0.045033
     42 H24A       -5.0750    0.2160   -6.6920 hc        1 P54      0.045033
     43 H24B       -5.7490    0.0430   -5.0190 hc        1 P54      0.045033
@<TRIPOS>BOND
     1    1    2 1   
     2    1    3 2   
     3    1    7 1   
     4    2    4 1   
     5    2    9 2   
     6    3    5 1   
     7    3   11 1   
     8    4    6 1   
     9    4   12 1   
    10    5    6 2   
    11    6   25 1   
    12    7    8 2   
    13    8    9 1   
    14    8   10 1   
    15   10   17 1   
    16   11   26 1   
    17   11   27 1   
    18   12   13 1   
    19   12   28 1   
    20   12   29 1   
    21   13   14 1   
    22   13   30 1   
    23   13   31 1   
    24   14   15 1   
    25   14   32 1   
    26   14   33 1   
    27   15   16 3   
    28   16   34 1   
    29   17   18 ar  
    30   17   21 ar  
    31   18   19 ar  
    32   18   35 1   
    33   19   20 ar  
    34   19   36 1   
    35   20   22 ar  
    36   20   24 1   
    37   21   22 ar  
    38   21   23 1   
    39   22   37 1   
    40   23   38 1   
    41   23   39 1   
    42   23   40 1   
    43   24   41 1   
    44   24   42 1   
    45   24   43 1   
@<TRIPOS>SUBSTRUCTURE
     1 P54         1 TEMP              0 ****  ****    0 ROOT
