@<TRIPOS>MOLECULE
P54
   43    45     1     0     0
SMALL
bcc


@<TRIPOS>ATOM
      1 C1         -0.0710   -0.1370    0.2170 cc        1 P54     -0.160900
      2 C2          1.4100   -0.0260    0.1250 cc        1 P54     -0.010300
      3 C3         -0.6880   -0.1770    1.4890 cd        1 P54      0.765200
      4 N4          2.1560    0.0110    1.3000 na        1 P54     -0.192900
      5 N5          0.1240   -0.1150    2.6310 nd        1 P54     -0.770000
      6 C6          1.4370   -0.0180    2.4810 cc        1 P54      0.569400
      7 N7         -0.5710   -0.1670   -1.0800 nc        1 P54     -0.587100
      8 C8          0.5410   -0.0770   -1.8720 cd        1 P54      0.502200
      9 N9          1.7810    0.0110   -1.1850 nd        1 P54     -0.404300
     10 S10         0.5680   -0.0400   -3.5690 ss        1 P54     -0.037100
     11 N11        -2.0420   -0.2850    1.6200 nv        1 P54     -0.943500
     12 C12         3.5960    0.1670    1.2820 c3        1 P54      0.028300
     13 C13         4.0680    1.6210    1.2340 c3        1 P54     -0.100400
     14 C14         5.5870    1.6510    1.1850 c3        1 P54      0.001700
     15 C15         6.0960    2.9900    1.2190 c1        1 P54     -0.147100
     16 C16         6.5350    4.1030    1.2450 c1        1 P54     -0.144500
     17 C17        -1.0540   -0.1970   -4.0780 ca        1 P54     -0.059100
     18 C18        -1.6210    0.9280   -4.6910 ca        1 P54     -0.068000
     19 C19        -2.8850    0.8710   -5.2640 ca        1 P54     -0.157000
     20 C20        -3.6230   -0.3200   -5.2150 ca        1 P54     -0.045300
     21 C21        -1.7870   -1.3920   -4.0260 ca        1 P54      0.000700
     22 C22        -3.0670   -1.4400   -4.5950 ca        1 P54     -0.153000
     23 C23        -1.2420   -2.6090   -3.3810 c3        1 P54     -0.070800
     24 C24        -4.9810   -0.3790   -5.8020 c3        1 P54     -0.057800
     25 H6          2.0350    0.0310    3.4180 h5        1 P54      0.054100
     26 HN11       -2.4740   -0.2740    2.5100 hn        1 P54      0.454300
     27 HN1A       -2.5980   -0.2900    0.7990 hn        1 P54      0.454300
     28 H12         3.9930   -0.3790    0.3770 h1        1 P54      0.073200
     29 H12A        4.0130   -0.3290    2.2050 h1        1 P54      0.073200
     30 H13         3.7050    2.1780    2.1350 hc        1 P54      0.066700
     31 H13A        3.6500    2.1310    0.3260 hc        1 P54      0.066700
     32 H14         5.9420    1.1420    0.2440 hc        1 P54      0.061700
     33 H14A        6.0070    1.0730    2.0560 hc        1 P54      0.061700
     34 H16         6.9250    5.0880    1.2660 ha        1 P54      0.166500
     35 H18        -1.0490    1.8700   -4.7190 ha        1 P54      0.143000
     36 H19        -3.3120    1.7590   -5.7510 ha        1 P54      0.132000
     37 H22        -3.6390   -2.3790   -4.5520 ha        1 P54      0.131000
     38 H23        -1.6710   -3.5330   -3.8400 hc        1 P54      0.055367
     39 H23A       -1.4970   -2.6040   -2.2900 hc        1 P54      0.055367
     40 H23B       -0.1270   -2.6430   -3.4770 hc        1 P54      0.055367
     41 H24        -5.0330    0.2230   -6.7430 hc        1 P54      0.045033
     42 H24A       -5.2740   -1.4310   -6.0380 hc        1 P54      0.045033
     43 H24B       -5.7270    0.0390   -5.0790 hc        1 P54      0.045033
@<TRIPOS>BOND
     1    1    2 1   
     2    1    3 2   
     3    1    7 1   
     4    2    4 1   
     5    2    9 2   
     6    3    5 1   
     7    3   11 1   
     8    4    6 1   
     9    4   12 1   
    10    5    6 2   
    11    6   25 1   
    12    7    8 2   
    13    8    9 1   
    14    8   10 1   
    15   10   17 1   
    16   11   26 1   
    17   11   27 1   
    18   12   13 1   
    19   12   28 1   
    20   12   29 1   
    21   13   14 1   
    22   13   30 1   
    23   13   31 1   
    24   14   15 1   
    25   14   32 1   
    26   14   33 1   
    27   15   16 3   
    28   16   34 1   
    29   17   18 ar  
    30   17   21 ar  
    31   18   19 ar  
    32   18   35 1   
    33   19   20 ar  
    34   19   36 1   
    35   20   22 ar  
    36   20   24 1   
    37   21   22 ar  
    38   21   23 1   
    39   22   37 1   
    40   23   38 1   
    41   23   39 1   
    42   23   40 1   
    43   24   41 1   
    44   24   42 1   
    45   24   43 1   
@<TRIPOS>SUBSTRUCTURE
     1 P54         1 TEMP              0 ****  ****    0 ROOT
