@<TRIPOS>MOLECULE
P54
   43    36     1     0     0
SMALL
bcc


@<TRIPOS>ATOM
      1 C1         -1.0650   -0.6670    1.8870 c1        1 P54     -0.240000
      2 C2          0.2890   -0.6810    1.8830 c1        1 P54      0.009000
      3 C3         -1.7550   -0.6520    3.0940 c1        1 P54      0.251000
      4 N4          0.9790   -0.6790    3.0710 n2        1 P54     -0.145000
      5 N5         -1.0750   -0.6510    4.2590 n1        1 P54     -0.249000
      6 C6          0.2990   -0.6640    4.2550 c1        1 P54      0.084000
      7 N7         -1.4910   -0.5340    0.5930 n1        1 P54     -0.161500
      8 C8         -0.3970   -0.4650   -0.2030 c1        1 P54     -0.246000
      9 N9          0.7060   -0.5560    0.5880 n1        1 P54     -0.161500
     10 S10         0.2720   -0.6430   -1.8700 s         1 P54      0.447000
     11 N11        -3.0900   -0.5820    3.5990 n3        1 P54     -0.338000
     12 C12         2.4160   -0.6940    3.2570 c3        1 P54     -0.030000
     13 C13         2.8620    0.6170    3.9300 c3        1 P54     -0.176000
     14 C14         4.2510    0.4300    4.5330 c3        1 P54     -0.048000
     15 C15         5.2970    0.9280    3.5580 c1        1 P54     -0.186000
     16 C16         6.1170    1.3200    2.7960 c1        1 P54     -0.192000
     17 C17        -1.0420   -0.3560   -3.0830 c2        1 P54     -0.268000
     18 C18        -2.1890   -1.1430   -3.0640 c2        1 P54     -0.088000
     19 C19        -3.1620   -0.9800   -4.0490 c1        1 P54     -0.137000
     20 C20        -2.9870   -0.0310   -5.0510 c1        1 P54     -0.064000
     21 C21        -0.8670    0.5940   -4.0850 c1        1 P54     -0.045000
     22 C22        -1.8400    0.7560   -5.0700 c1        1 P54     -0.132000
     23 C23         0.4220    1.4190   -4.1410 c3        1 P54     -0.191000
     24 C24        -4.0620    0.1750   -6.0950 c3        1 P54     -0.178000
     25 H6          0.7910   -0.6640    5.1010 ha        1 P54      0.191000
     26 HN11       -3.7890   -0.8750    3.0860 hn        1 P54      0.251000
     27 HN1A       -3.2420   -0.2630    4.4350 hn        1 P54      0.251000
     28 H12         2.8560   -0.7810    2.3840 h1        1 P54      0.115500
     29 H12A        2.6640   -1.4510    3.8230 h1        1 P54      0.115500
     30 H13         2.2280    0.8530    4.6380 hc        1 P54      0.105500
     31 H13A        2.8880    1.3310    3.2660 hc        1 P54      0.105500
     32 H14         4.4010   -0.5150    4.7160 hc        1 P54      0.100000
     33 H14A        4.3160    0.9430    5.3760 hc        1 P54      0.100000
     34 H16         6.7930    1.6430    2.1680 DU        1 P54      0.225000
     35 H18        -2.3120   -1.8100   -2.3610 ha        1 P54      0.145000
     36 H19        -3.9690   -1.5340   -4.0360 ha        1 P54      0.129000
     37 H22        -1.7180    1.4190   -5.7700 ha        1 P54      0.130000
     38 H23         0.2460    2.2720   -4.5910 hc        1 P54      0.091000
     39 H23A        1.1020    0.9250   -4.6350 hc        1 P54      0.091000
     40 H23B        0.7400    1.5900   -3.2300 hc        1 P54      0.091000
     41 H24        -4.0230   -0.5510   -6.7500 hc        1 P54      0.082333
     42 H24A       -4.9380    0.1780   -5.6640 hc        1 P54      0.082333
     43 H24B       -3.9180    1.0320   -6.5480 hc        1 P54      0.082333
@<TRIPOS>BOND
     1    1    3 1   
     2    2    4 1   
     3    3   11 1   
     4    4   12 1   
     5    5    6 1   
     6    6   25 1   
     7    7    8 1   
     8    8    9 1   
     9   10   17 1   
    10   11   26 1   
    11   11   27 1   
    12   12   13 1   
    13   12   28 1   
    14   12   29 1   
    15   13   14 1   
    16   13   30 1   
    17   13   31 1   
    18   14   15 1   
    19   14   32 1   
    20   14   33 1   
    21   15   16 1   
    22   17   18 1   
    23   17   21 1   
    24   18   19 1   
    25   18   35 1   
    26   19   36 1   
    27   20   22 1   
    28   20   24 1   
    29   21   23 1   
    30   22   37 1   
    31   23   38 1   
    32   23   39 1   
    33   23   40 1   
    34   24   41 1   
    35   24   42 1   
    36   24   43 1   
@<TRIPOS>SUBSTRUCTURE
     1 P54         1 TEMP              0 ****  ****    0 ROOT
