@<TRIPOS>MOLECULE
P55
   46    42     1     0     0
SMALL
bcc


@<TRIPOS>ATOM
      1 N01         1.0140   -0.4480   -3.6860 n2        1 P55     -0.113000
      2 C02         2.3690   -0.4780   -3.7150 c1        1 P55     -0.056000
      3 C03         2.8220   -0.3360   -2.4300 c1        1 P55     -0.185000
      4 C04         1.7170   -0.2160   -1.5970 c1        1 P55      0.151000
      5 N05         0.6120   -0.2850   -2.3600 n2        1 P55     -0.183000
      6 N06         1.6030   -0.0480   -0.2450 n1        1 P55     -0.251000
      7 C07         0.3830    0.0510    0.3230 c1        1 P55      0.233000
      8 N08        -0.7320   -0.0180   -0.4470 n1        1 P55     -0.301000
      9 C09        -0.6210   -0.1850   -1.7850 c1        1 P55      0.310000
     10 N10        -1.4980   -1.0500   -2.5320 n3        1 P55     -0.245000
     11 C11        -2.5160   -0.4830   -3.3840 c2        1 P55      0.044000
     12 C12        -3.7680   -0.1770   -2.8580 c2        1 P55     -0.105000
     13 C13        -4.7930    0.2430   -3.7010 c1        1 P55     -0.122000
     14 C14        -4.5670    0.3560   -5.0680 c1        1 P55     -0.122500
     15 C15        -3.3160    0.0510   -5.5940 c1        1 P55     -0.122500
     16 C16        -2.2910   -0.3690   -4.7530 c1        1 P55     -0.153000
     17 N17         1.3790   -0.3800    1.2780 n3        1 P55     -0.243000
     18 C18         0.8120   -1.1230    2.2010 c3        1 P55     -0.037500
     19 C19         0.1510   -0.6460    3.3070 c3        1 P55     -0.079500
     20 N20         0.8160    0.4910    3.8620 n3        1 P55     -0.261000
     21 C21         2.3200    0.6130    3.4120 c3        1 P55     -0.079500
     22 C22         2.0290    0.7670    1.8420 c3        1 P55     -0.037500
     23 C23         0.7480    0.4330    5.3120 c3        1 P55     -0.066000
     24 C24         0.2660    1.7830    5.8550 c3        1 P55     -0.214000
     25 C25         4.3300   -0.4850   -2.3440 c1        1 P55     -0.036000
     26 N26         5.4640   -0.5970   -2.2800 n1        1 P55     -0.067000
     27 H02         2.9270   -0.5940   -4.5140 DU        1 P55      0.192000
     28 HN10       -1.3940   -1.9600   -2.4850 hn        1 P55      0.261000
     29 H12        -3.9270   -0.2570   -1.8940 ha        1 P55      0.154000
     30 H13        -5.6770    0.4590   -3.3290 ha        1 P55      0.137000
     31 H14        -5.2900    0.6530   -5.6620 ha        1 P55      0.138000
     32 H15        -3.1570    0.1310   -6.5600 ha        1 P55      0.138000
     33 H16        -1.4100   -0.5840   -5.1240 ha        1 P55      0.137000
     34 H181        1.5200   -1.7160    2.5450 h1        1 P55      0.105500
     35 H182        0.1660   -1.6970    1.7270 h1        1 P55      0.105500
     36 H191        0.1060   -1.3560    3.9860 h1        1 P55      0.096000
     37 H192       -0.7640   -0.3900    3.0490 h1        1 P55      0.096000
     38 H211        2.7480    1.4170    3.7850 h1        1 P55      0.096000
     39 H212        2.8270   -0.2040    3.6110 h1        1 P55      0.096000
     40 H221        2.8830    0.9080    1.3750 h1        1 P55      0.105500
     41 H222        1.4580    1.5550    1.7020 h1        1 P55      0.105500
     42 H231        1.6420    0.2330    5.6750 h1        1 P55      0.069500
     43 H232        0.1200   -0.2720    5.5820 h1        1 P55      0.069500
     44 H241       -0.5980    1.6630    6.3100 hc        1 P55      0.081000
     45 H242        0.9270    2.1340    6.4940 hc        1 P55      0.081000
     46 H243        0.1600    2.4150    5.1130 hc        1 P55      0.081000
@<TRIPOS>BOND
     1    1    2 1   
     2    1    5 1   
     3    2    3 1   
     4    3    4 1   
     5    4    6 1   
     6    5    9 1   
     7    7    8 1   
     8    7   17 1   
     9    9   10 1   
    10   10   11 1   
    11   10   28 1   
    12   11   12 1   
    13   11   16 1   
    14   12   13 1   
    15   12   29 1   
    16   13   30 1   
    17   14   15 1   
    18   14   31 1   
    19   15   32 1   
    20   16   33 1   
    21   17   18 1   
    22   17   22 1   
    23   18   19 1   
    24   18   34 1   
    25   18   35 1   
    26   19   20 1   
    27   19   36 1   
    28   19   37 1   
    29   20   21 1   
    30   20   23 1   
    31   21   22 1   
    32   21   38 1   
    33   21   39 1   
    34   22   40 1   
    35   22   41 1   
    36   23   24 1   
    37   23   42 1   
    38   23   43 1   
    39   24   44 1   
    40   24   45 1   
    41   24   46 1   
    42   25   26 1   
@<TRIPOS>SUBSTRUCTURE
     1 P55         1 TEMP              0 ****  ****    0 ROOT
