@<TRIPOS>MOLECULE
P55
   47    50     1     0     0
SMALL
bcc


@<TRIPOS>ATOM
      1 N01         0.0260   -0.6260    0.3590 n2        1 P55     -0.106000
      2 C02         1.3490   -0.4470    0.5710 c2        1 P55     -0.040000
      3 C03         1.6410   -0.1510    1.9610 c2        1 P55     -0.113000
      4 C04         0.3870   -0.1570    2.6200 c2        1 P55      0.116000
      5 N05        -0.5720   -0.4490    1.5590 na        1 P55     -0.162000
      6 N06         0.0040    0.0350    3.9170 n2        1 P55     -0.182000
      7 C07        -1.3280   -0.0520    4.1830 c2        1 P55      0.187000
      8 N08        -2.3140   -0.3790    3.2080 n2        1 P55     -0.306000
      9 C09        -1.9180   -0.5870    1.9400 c2        1 P55      0.254000
     10 N10        -2.8670   -1.0060    0.9650 nh        1 P55     -0.259000
     11 C11        -4.2500   -0.6330    1.1720 c3        1 P55     -0.019000
     12 C12        -4.5880    0.8100    0.9450 c2        1 P55      0.060500
     13 C13        -5.5090    1.4610    1.7110 c2        1 P55     -0.217000
     14 C14        -6.1020    0.8240    2.8290 c2        1 P55      0.165000
     15 C15        -5.7700   -0.4980    3.1580 c2        1 P55     -0.217000
     16 C16        -4.8350   -1.1950    2.4310 c2        1 P55      0.060500
     17 N17        -1.8310    0.2960    5.4650 nh        1 P55     -0.190000
     18 C18        -2.7870   -0.6220    6.0750 c3        1 P55     -0.058000
     19 C19        -2.1330   -1.7370    6.9210 c3        1 P55     -0.099500
     20 N20        -1.1920   -1.2160    7.9010 n3        1 P55     -0.258000
     21 C21        -0.2220   -0.3000    7.3160 c3        1 P55     -0.099500
     22 C22        -0.8860    0.7960    6.4610 c3        1 P55     -0.058000
     23 C23        -0.5800   -2.2860    8.6800 c3        1 P55     -0.066000
     24 C24         0.3090   -1.8050    9.8140 c3        1 P55     -0.216000
     25 C25         2.8950    0.0900    2.5250 c1        1 P55     -0.070000
     26 N26         3.9410    0.2910    2.9950 n1        1 P55      0.001000
     27 H02         2.0780   -0.5240   -0.2440 h4        1 P55      0.213000
     28 HN10       -2.5650   -0.9460    0.0090 hn        1 P55      0.265000
     29 H12        -4.0880    1.3180    0.0990 ha        1 P55      0.195000
     30 H13        -5.7830    2.5110    1.4920 ha        1 P55      0.197500
     31 H14        -6.8190    1.3880    3.4590 ha        1 P55      0.194000
     32 H15        -6.2360   -0.9660    4.0470 ha        1 P55      0.197500
     33 H16        -4.5140   -2.2130    2.7280 ha        1 P55      0.195000
     34 H181       -3.4380    0.0140    6.7420 h1        1 P55      0.113250
     35 H182       -3.4440   -1.1080    5.3070 h1        1 P55      0.113250
     36 H191       -2.9540   -2.2670    7.4810 h1        1 P55      0.090750
     37 H192       -1.6520   -2.4860    6.2240 h1        1 P55      0.090750
     38 H211        0.3160    0.2120    8.1630 h1        1 P55      0.090750
     39 H212        0.5470   -0.8390    6.6900 h1        1 P55      0.090750
     40 H221       -0.0810    1.4190    5.9840 h1        1 P55      0.113250
     41 H222       -1.4980    1.4710    7.1280 h1        1 P55      0.113250
     42 H231        0.0230   -2.9780    8.0200 h1        1 P55      0.074500
     43 H232       -1.4250   -2.8900    9.1200 h1        1 P55      0.074500
     44 H241        0.5750   -2.6830   10.4520 hc        1 P55      0.086333
     45 H242       -0.2130   -1.0490   10.4490 hc        1 P55      0.086333
     46 H243        1.2530   -1.3540    9.4250 hc        1 P55      0.086333
     47 H102       -4.8470   -1.1840    0.3430 h1        1 P55      0.214000
@<TRIPOS>BOND
     1    1    2 1   
     2    1    5 1   
     3    2    3 1   
     4    2   27 1   
     5    3    4 1   
     6    3   25 1   
     7    4    5 1   
     8    4    6 1   
     9    5    9 1   
    10    6    7 1   
    11    7    8 1   
    12    7   17 1   
    13    8    9 1   
    14    9   10 1   
    15   10   11 1   
    16   10   28 1   
    17   11   12 1   
    18   11   16 1   
    19   11   47 1   
    20   12   13 1   
    21   12   29 1   
    22   13   14 1   
    23   13   30 1   
    24   14   15 1   
    25   14   31 1   
    26   15   16 1   
    27   15   32 1   
    28   16   33 1   
    29   17   18 1   
    30   17   22 1   
    31   18   19 1   
    32   18   34 1   
    33   18   35 1   
    34   19   20 1   
    35   19   36 1   
    36   19   37 1   
    37   20   21 1   
    38   20   23 1   
    39   21   22 1   
    40   21   38 1   
    41   21   39 1   
    42   22   40 1   
    43   22   41 1   
    44   23   24 1   
    45   23   42 1   
    46   23   43 1   
    47   24   44 1   
    48   24   45 1   
    49   24   46 1   
    50   25   26 1   
@<TRIPOS>SUBSTRUCTURE
     1 P55         1 TEMP              0 ****  ****    0 ROOT
