@<TRIPOS>MOLECULE
P55
   46    47     1     0     0
SMALL
bcc


@<TRIPOS>ATOM
      1 N01        -0.3210   -1.2010    0.4050 nc        1 P55     -0.578100
      2 C02         1.0260   -1.1900    0.2980 cd        1 P55      0.442500
      3 C03         1.6560   -0.6100    1.4650 cd        1 P55     -0.227300
      4 C04         0.5840   -0.2480    2.3290 cc        1 P55      0.489500
      5 N05        -0.6080   -0.6380    1.6020 na        1 P55     -0.176600
      6 N06         0.5470    0.3290    3.5630 nc        1 P55     -0.752000
      7 C07        -0.7070    0.5250    4.0890 cd        1 P55      0.932900
      8 N08        -1.9160    0.1380    3.4640 nd        1 P55     -0.807000
      9 C09        -1.8610   -0.4420    2.2450 cc        1 P55      0.842400
     10 N10        -3.0110   -0.9220    1.6060 nh        1 P55     -0.715300
     11 C11        -4.3100   -0.4660    1.9490 ca        1 P55      0.120600
     12 C12        -5.1470    0.0440    0.9310 ca        1 P55     -0.128500
     13 C13        -6.4540    0.4180    1.2240 ca        1 P55     -0.118000
     14 C14        -6.9480    0.3020    2.5230 ca        1 P55     -0.130000
     15 C15        -6.1260   -0.1970    3.5310 ca        1 P55     -0.118000
     16 C16        -4.8160   -0.5860    3.2580 ca        1 P55     -0.128500
     17 N17        -0.8300    1.2220    5.3020 nh        1 P55     -0.626100
     18 C18        -1.9470    1.0400    6.1420 c2        1 P55      0.078000
     19 C19        -2.6870   -0.0650    6.3130 c2        1 P55     -0.282000
     20 N20        -0.0880   -1.4160    8.1350 n3        1 P55     -0.542000
     21 C21         0.9430   -0.6310    8.1730 c1        1 P55     -0.139500
     22 C22         0.3550    1.7580    5.9430 c3        1 P55      0.180100
     23 C23        -0.1980   -2.7690    8.6610 c3        1 P55      0.114800
     24 C24        -1.4330   -3.0090    9.5100 c3        1 P55     -0.109100
     25 C25         3.0220   -0.4430    1.6890 ch        1 P55      0.253500
     26 N26         4.1640   -0.3070    1.8710 n1        1 P55     -0.386800
     27 H02         1.5350   -1.5840   -0.5860 h4        1 P55      0.063800
     28 HN10       -2.9080   -1.1780    0.6420 hn        1 P55      0.459800
     29 H12        -4.7760    0.1470   -0.1010 ha        1 P55      0.146000
     30 H13        -7.0980    0.8120    0.4230 ha        1 P55      0.137000
     31 H14        -7.9810    0.6050    2.7500 ha        1 P55      0.137000
     32 H15        -6.5110   -0.2900    4.5580 ha        1 P55      0.137000
     33 H16        -4.1890   -0.9760    4.0750 ha        1 P55      0.146000
     34 H181       -2.1640    1.9630    6.7200 h4        1 P55      0.145000
     35 H182       -2.5240   -1.0120    5.7870 ha        1 P55      0.124500
     36 H191       -0.9230   -1.0800    7.6920 hn        1 P55      0.438800
     37 H192       -3.5510   -0.0460    6.9900 ha        1 P55      0.124500
     38 H211        0.0290    2.5380    6.6820 h1        1 P55      0.070700
     39 H212        1.8610   -1.0050    8.6700 ha        1 P55     -0.003500
     40 H221        0.9200    0.9500    6.4930 h1        1 P55      0.070700
     41 H222        1.0210    2.2410    5.1820 h1        1 P55      0.070700
     42 H231       -0.2080   -3.4870    7.7900 h1        1 P55      0.055200
     43 H232        0.7220   -2.9910    9.2730 h1        1 P55      0.055200
     44 H241       -1.4370   -4.0730    9.8500 hc        1 P55      0.044700
     45 H242       -2.3660   -2.8210    8.9270 hc        1 P55      0.044700
     46 H243       -1.4390   -2.3490   10.4100 hc        1 P55      0.044700
@<TRIPOS>BOND
     1    1    2 2   
     2    1    5 1   
     3    2    3 1   
     4    2   27 1   
     5    3    4 2   
     6    3   25 1   
     7    4    5 1   
     8    4    6 1   
     9    5    9 1   
    10    6    7 2   
    11    7    8 1   
    12    7   17 1   
    13    8    9 2   
    14    9   10 1   
    15   10   11 1   
    16   10   28 1   
    17   11   12 ar  
    18   11   16 ar  
    19   12   13 ar  
    20   12   29 1   
    21   13   14 ar  
    22   13   30 1   
    23   14   15 ar  
    24   14   31 1   
    25   15   16 ar  
    26   15   32 1   
    27   16   33 1   
    28   17   18 1   
    29   17   22 1   
    30   18   19 2   
    31   18   34 1   
    32   19   35 1   
    33   19   37 1   
    34   20   21 3   
    35   20   23 1   
    36   20   36 1   
    37   21   39 1   
    38   22   38 1   
    39   22   40 1   
    40   22   41 1   
    41   23   24 1   
    42   23   42 1   
    43   23   43 1   
    44   24   44 1   
    45   24   45 1   
    46   24   46 1   
    47   25   26 3   
@<TRIPOS>SUBSTRUCTURE
     1 P55         1 TEMP              0 ****  ****    0 ROOT
