@<TRIPOS>MOLECULE
P55
   46    49     1     0     0
SMALL
bcc


@<TRIPOS>ATOM
      1 N01        -3.0650   -1.8860    0.8160 nc        1 P55     -0.576100
      2 C02        -2.8110   -3.2120    0.7770 cd        1 P55      0.444500
      3 C03        -1.4820   -3.4930    0.2740 cd        1 P55     -0.228300
      4 C04        -0.9100   -2.2200   -0.0070 cc        1 P55      0.492500
      5 N05        -1.9510   -1.2750    0.3480 na        1 P55     -0.175600
      6 N06         0.3030   -1.8390   -0.4930 nc        1 P55     -0.764000
      7 C07         0.4920   -0.4870   -0.6440 cd        1 P55      0.924900
      8 N08        -0.4490    0.4990   -0.2680 nd        1 P55     -0.819000
      9 C09        -1.6450    0.1060    0.2260 cc        1 P55      0.850400
     10 N10        -2.5880    1.0320    0.6860 nh        1 P55     -0.719300
     11 C11        -2.5120    2.4100    0.3610 ca        1 P55      0.123600
     12 C12        -3.6210    3.0370   -0.2500 ca        1 P55     -0.129000
     13 C13        -3.5950    4.4050   -0.5020 ca        1 P55     -0.118000
     14 C14        -2.4770    5.1660   -0.1660 ca        1 P55     -0.129000
     15 C15        -1.3790    4.5520    0.4350 ca        1 P55     -0.118000
     16 C16        -1.3870    3.1850    0.7050 ca        1 P55     -0.129000
     17 N17         1.6540   -0.0310   -1.3040 nh        1 P55     -0.701300
     18 C18         2.1290    1.3230   -1.0630 c3        1 P55      0.184800
     19 C19         3.1710    1.4190    0.0720 c3        1 P55      0.136800
     20 N20         4.2710    0.4770   -0.0840 n3        1 P55     -0.733600
     21 C21         3.8220   -0.8800   -0.3620 c3        1 P55      0.136800
     22 C22         2.7710   -0.9480   -1.4890 c3        1 P55      0.184800
     23 C23         5.1990    0.5530    1.0370 c3        1 P55      0.170800
     24 C24         6.4520   -0.2910    0.8720 c3        1 P55     -0.096100
     25 C25        -0.8930   -4.7450    0.1020 ch        1 P55      0.253500
     26 N26        -0.4040   -5.7920   -0.0390 n1        1 P55     -0.387800
     27 H02        -3.5530   -3.9490    1.0960 h4        1 P55      0.063800
     28 HN10       -3.5150    0.6900    0.8440 hn        1 P55      0.463800
     29 H12        -4.5130    2.4530   -0.5260 ha        1 P55      0.144500
     30 H13        -4.4650    4.8840   -0.9760 ha        1 P55      0.138000
     31 H14        -2.4620    6.2460   -0.3730 ha        1 P55      0.138000
     32 H15        -0.4960    5.1500    0.7050 ha        1 P55      0.138000
     33 H16        -0.5100    2.7230    1.1850 ha        1 P55      0.144500
     34 H181        2.6040    1.6580   -2.0310 h1        1 P55      0.081450
     35 H182        1.2890    2.0320   -0.8300 h1        1 P55      0.081450
     36 H191        3.6060    2.4570    0.0480 h1        1 P55      0.044200
     37 H192        2.6420    1.2900    1.0620 h1        1 P55      0.044200
     38 H211        4.7190   -1.4700   -0.7030 h1        1 P55      0.044200
     39 H212        3.4040   -1.3840    0.5570 h1        1 P55      0.044200
     40 H221        2.4290   -2.0130   -1.5920 h1        1 P55      0.081450
     41 H222        3.2520   -0.6440   -2.4640 h1        1 P55      0.081450
     42 H231        5.5080    1.6340    1.1310 h1        1 P55      0.030700
     43 H232        4.6970    0.2600    2.0070 h1        1 P55      0.030700
     44 H241        6.2170   -1.3800    0.9460 hc        1 P55      0.041367
     45 H242        6.9440   -0.0990   -0.1120 hc        1 P55      0.041367
     46 H243        7.1690   -0.0280    1.6870 hc        1 P55      0.041367
@<TRIPOS>BOND
     1    1    2 2   
     2    1    5 1   
     3    2    3 1   
     4    2   27 1   
     5    3    4 2   
     6    3   25 1   
     7    4    5 1   
     8    4    6 1   
     9    5    9 1   
    10    6    7 2   
    11    7    8 1   
    12    7   17 1   
    13    8    9 2   
    14    9   10 1   
    15   10   11 1   
    16   10   28 1   
    17   11   12 ar  
    18   11   16 ar  
    19   12   13 ar  
    20   12   29 1   
    21   13   14 ar  
    22   13   30 1   
    23   14   15 ar  
    24   14   31 1   
    25   15   16 ar  
    26   15   32 1   
    27   16   33 1   
    28   17   18 1   
    29   17   22 1   
    30   18   19 1   
    31   18   34 1   
    32   18   35 1   
    33   19   20 1   
    34   19   36 1   
    35   19   37 1   
    36   20   21 1   
    37   20   23 1   
    38   21   22 1   
    39   21   38 1   
    40   21   39 1   
    41   22   40 1   
    42   22   41 1   
    43   23   24 1   
    44   23   42 1   
    45   23   43 1   
    46   24   44 1   
    47   24   45 1   
    48   24   46 1   
    49   25   26 3   
@<TRIPOS>SUBSTRUCTURE
     1 P55         1 TEMP              0 ****  ****    0 ROOT
