@<TRIPOS>MOLECULE
P55
   46    47     1     0     0
SMALL
bcc


@<TRIPOS>ATOM
      1 N01        -0.0540   -1.4650    0.8880 n2        1 P55     -0.111000
      2 C02         1.2960   -1.4300    0.8520 c2        1 P55     -0.059000
      3 C03         1.8460   -0.6360    1.9300 c2        1 P55     -0.174000
      4 C04         0.7200   -0.1630    2.6610 c2        1 P55      0.142000
      5 N05        -0.4200   -0.7130    1.9520 na        1 P55     -0.178000
      6 N06         0.6000    0.6170    3.7710 n2        1 P55     -0.221000
      7 C07        -0.6850    0.8800    4.1780 c2        1 P55      0.217000
      8 N08        -1.8470    0.3610    3.5580 n2        1 P55     -0.311000
      9 C09        -1.7090   -0.4450    2.4820 c2        1 P55      0.309000
     10 N10        -2.8070   -1.0780    1.8930 nu        1 P55     -0.248000
     11 C11        -4.1440   -0.7670    2.2380 ca        1 P55      0.052000
     12 C12        -5.0680   -0.4720    1.2100 ca        1 P55     -0.136500
     13 C13        -6.4060   -0.2470    1.5170 ca        1 P55     -0.117500
     14 C14        -6.8470   -0.3020    2.8390 ca        1 P55     -0.132000
     15 C15        -5.9410   -0.5890    3.8570 ca        1 P55     -0.117500
     16 C16        -4.5970   -0.8240    3.5720 ca        1 P55     -0.136500
     17 N17        -0.8940    1.7980    5.2280 nh        1 P55     -0.194000
     18 C18        -2.2370    1.8700    5.7850 c3        1 P55     -0.113000
     19 C19        -2.8290    0.6330    6.2760 c1        1 P55     -0.071000
     20 N20        -1.0200   -1.2630    7.6260 n7        1 P55     -0.186000
     21 C21        -0.1250   -0.5690    8.2470 c1        1 P55     -0.238000
     22 C22         0.1790    2.0400    6.1700 c3        1 P55     -0.128000
     23 C23        -1.2530   -2.6990    7.6670 c3        1 P55     -0.119000
     24 C24        -0.3180   -3.4910    8.5590 c3        1 P55     -0.224000
     25 C25         3.1930   -0.3880    2.1890 c1        1 P55     -0.039000
     26 N26         4.3200   -0.1830    2.4010 n1        1 P55     -0.060000
     27 H02         1.8640   -1.9540    0.0780 h4        1 P55      0.193000
     28 HN10       -2.6790   -1.4480    0.9730 hn        1 P55      0.262000
     29 H12        -4.7400   -0.4230    0.1600 ha        1 P55      0.146500
     30 H13        -7.1170   -0.0210    0.7080 ha        1 P55      0.137500
     31 H14        -7.9060   -0.1210    3.0750 ha        1 P55      0.138000
     32 H15        -6.2860   -0.6400    4.9010 ha        1 P55      0.137500
     33 H16        -3.9020   -1.0540    4.3960 ha        1 P55      0.146500
     34 H181       -2.2100    2.5950    6.6620 h1        1 P55      0.144500
     35 H182       -2.8980    2.3460    4.9920 h1        1 P55      0.144500
     36 H191       -3.8960    0.6960    6.5330 ha        1 P55      0.059000
     37 H192       -1.6650   -0.7660    7.0070 hn        1 P55      0.277000
     38 H211       -0.0490    3.0040    6.7000 h1        1 P55      0.113667
     39 H212        0.5850   -1.0910    8.9180 ha        1 P55      0.049000
     40 H221        0.2660    1.2100    6.9330 h1        1 P55      0.113667
     41 H222        1.1550    2.1610    5.6330 h1        1 P55      0.113667
     42 H231       -1.1710   -3.0950    6.6130 h1        1 P55      0.083500
     43 H232       -2.3140   -2.8700    8.0090 h1        1 P55      0.083500
     44 H241       -0.3960   -3.1600    9.6230 hc        1 P55      0.084000
     45 H242        0.7440   -3.3820    8.2310 hc        1 P55      0.084000
     46 H243       -0.5960   -4.5710    8.5040 hc        1 P55      0.084000
@<TRIPOS>BOND
     1    1    2 1   
     2    1    5 1   
     3    2    3 1   
     4    2   27 1   
     5    3    4 1   
     6    3   25 1   
     7    4    5 1   
     8    4    6 1   
     9    5    9 1   
    10    6    7 1   
    11    7    8 1   
    12    7   17 1   
    13    8    9 1   
    14    9   10 1   
    15   10   11 1   
    16   10   28 1   
    17   11   12 1   
    18   11   16 1   
    19   12   13 1   
    20   12   29 1   
    21   13   14 1   
    22   13   30 1   
    23   14   15 1   
    24   14   31 1   
    25   15   16 1   
    26   15   32 1   
    27   16   33 1   
    28   17   18 1   
    29   17   22 1   
    30   18   19 1   
    31   18   34 1   
    32   18   35 1   
    33   19   36 1   
    34   20   21 1   
    35   20   23 1   
    36   20   37 1   
    37   21   39 1   
    38   22   38 1   
    39   22   40 1   
    40   22   41 1   
    41   23   24 1   
    42   23   42 1   
    43   23   43 1   
    44   24   44 1   
    45   24   45 1   
    46   24   46 1   
    47   25   26 1   
@<TRIPOS>SUBSTRUCTURE
     1 P55         1 TEMP              0 ****  ****    0 ROOT
