@<TRIPOS>MOLECULE
P58
   24    24     1     0     0
SMALL
bcc


@<TRIPOS>ATOM
      1 CAA         0.1670   -0.2550    0.1090 c3        1 P58      0.077100
      2 SAB         2.5820    0.2410   -2.6790 sh        1 P58     -0.112400
      3 SAC         1.6380    2.3030   -0.8250 s         1 P58     -0.037400
      4 CAD         2.5350   -4.1180    2.8480 ca        1 P58     -0.077000
      5 CAE         3.2360   -3.9580    1.6510 ca        1 P58     -0.117000
      6 CAF         1.8170   -3.0490    3.3870 ca        1 P58     -0.117000
      7 CAG         3.2210   -2.7310    0.9920 ca        1 P58     -0.103000
      8 CAH         1.7940   -1.8200    2.7290 ca        1 P58     -0.103000
      9 CAI         2.5280   -0.3340    0.8510 c3        1 P58      0.177100
     10 CAJ         1.9100    0.8550   -1.2380 c         1 P58      0.076000
     11 CAK         2.4980   -1.6580    1.5300 ca        1 P58     -0.187300
     12 NAL         1.5840   -0.3020   -0.3350 n4        1 P58     -0.524200
     13 HAA         0.0100   -1.0510    0.8870 hx        1 P58      0.110700
     14 HAAA       -0.5070   -0.4400   -0.7700 hx        1 P58      0.110700
     15 HAAB       -0.0580    0.7540    0.5520 hx        1 P58      0.110700
     16 HSAB        2.8000    1.3890   -3.3370 hs        1 P58      0.277800
     17 HAD         2.5530   -5.0880    3.3720 ha        1 P58      0.162000
     18 HAE         3.8090   -4.8010    1.2310 ha        1 P58      0.160500
     19 HAF         1.2710   -3.1730    4.3360 ha        1 P58      0.160500
     20 HAG         3.7950   -2.6040    0.0610 ha        1 P58      0.139500
     21 HAH         1.2380   -0.9760    3.1660 ha        1 P58      0.139500
     22 HAI         2.2240    0.4960    1.5520 hx        1 P58      0.110200
     23 HAIA        3.5650   -0.1220    0.4580 hx        1 P58      0.110200
     24 HAL1        1.7220   -1.1870   -0.8520 hn        1 P58      0.455800
@<TRIPOS>BOND
     1    1   12 1   
     2    1   13 1   
     3    1   14 1   
     4    1   15 1   
     5    2   10 1   
     6    2   16 1   
     7    3   10 2   
     8    4    5 ar  
     9    4    6 ar  
    10    4   17 1   
    11    5    7 ar  
    12    5   18 1   
    13    6    8 ar  
    14    6   19 1   
    15    7   11 ar  
    16    7   20 1   
    17    8   11 ar  
    18    8   21 1   
    19    9   11 1   
    20    9   12 1   
    21    9   22 1   
    22    9   23 1   
    23   10   12 1   
    24   12   24 1   
@<TRIPOS>SUBSTRUCTURE
     1 P58         1 TEMP              0 ****  ****    0 ROOT
