@<TRIPOS>MOLECULE
P58
   24    24     1     0     0
SMALL
bcc


@<TRIPOS>ATOM
      1 CAA         0.2410    1.0880    0.1110 c3        1 P58      0.081100
      2 SAB         1.1780   -1.4950   -2.1330 sh        1 P58     -0.097400
      3 SAC         3.0130    0.6970   -1.4960 s         1 P58     -0.054400
      4 CAD         3.2390   -4.1550    2.3200 ca        1 P58     -0.079000
      5 CAE         4.1610   -3.2400    1.8130 ca        1 P58     -0.116000
      6 CAF         1.9020   -3.7840    2.4840 ca        1 P58     -0.116000
      7 CAG         3.7520   -1.9540    1.4620 ca        1 P58     -0.103500
      8 CAH         1.4880   -2.4990    2.1410 ca        1 P58     -0.103500
      9 CAI         1.9780   -0.1930    1.3070 c3        1 P58      0.170100
     10 CAJ         1.8410   -0.2410   -1.1910 c         1 P58      0.086000
     11 CAK         2.4130   -1.5810    1.6240 ca        1 P58     -0.182300
     12 NAL         1.0690   -0.1470    0.0970 nx        1 P58     -0.524200
     13 HAA        -0.4300    1.1000   -0.7890 hx        1 P58      0.108367
     14 HAAA       -0.3850    1.1010    1.0440 hx        1 P58      0.108367
     15 HAAB        0.9110    1.9900    0.0960 hx        1 P58      0.108367
     16 HSAB        1.9840   -1.4270   -3.2020 hs        1 P58      0.273800
     17 HAD         3.5650   -5.1710    2.5990 ha        1 P58      0.161000
     18 HAE         5.2180   -3.5290    1.6940 ha        1 P58      0.159500
     19 HAF         1.1760   -4.5040    2.8940 ha        1 P58      0.159500
     20 HAG         4.4880   -1.2320    1.0750 ha        1 P58      0.136500
     21 HAH         0.4400   -2.2040    2.2990 ha        1 P58      0.136500
     22 HAI         2.8610    0.4810    1.0990 hx        1 P58      0.114200
     23 HAIA        1.3920    0.2340    2.1730 hx        1 P58      0.114200
     24 HAL1        0.4380   -0.9640    0.1630 hn        1 P58      0.455800
@<TRIPOS>BOND
     1    1   12 1   
     2    1   13 1   
     3    1   14 1   
     4    1   15 1   
     5    2   10 1   
     6    2   16 1   
     7    3   10 2   
     8    4    5 ar  
     9    4    6 ar  
    10    4   17 1   
    11    5    7 ar  
    12    5   18 1   
    13    6    8 ar  
    14    6   19 1   
    15    7   11 ar  
    16    7   20 1   
    17    8   11 ar  
    18    8   21 1   
    19    9   11 1   
    20    9   12 1   
    21    9   22 1   
    22    9   23 1   
    23   10   12 1   
    24   12   24 1   
@<TRIPOS>SUBSTRUCTURE
     1 P58         1 TEMP              0 ****  ****    0 ROOT
