@<TRIPOS>MOLECULE
P58
   24    24     1     0     0
SMALL
bcc


@<TRIPOS>ATOM
      1 CAA         0.1230   -0.4000    0.0250 c3        1 P58      0.077100
      2 SAB         2.5920    0.2030   -2.6940 sh        1 P58     -0.112400
      3 SAC         1.4460    2.2330   -0.9210 s         1 P58     -0.037400
      4 CAD         2.6560   -4.0300    2.9300 ca        1 P58     -0.077000
      5 CAE         3.3850   -3.8480    1.7520 ca        1 P58     -0.117000
      6 CAF         1.8500   -3.0010    3.4210 ca        1 P58     -0.117000
      7 CAG         3.3080   -2.6390    1.0640 ca        1 P58     -0.103000
      8 CAH         1.7660   -1.7910    2.7340 ca        1 P58     -0.103000
      9 CAI         2.4580   -0.2990    0.8450 c3        1 P58      0.177100
     10 CAJ         1.8300    0.7990   -1.2900 c         1 P58      0.076000
     11 CAK         2.4960   -1.6080    1.5540 ca        1 P58     -0.187300
     12 NAL         1.5550   -0.3580   -0.3710 n4        1 P58     -0.524200
     13 HAA        -0.5060   -0.6500   -0.8700 hx        1 P58      0.110700
     14 HAAA       -0.0050   -1.1890    0.8170 hx        1 P58      0.110700
     15 HAAB       -0.1850    0.6000    0.4380 hx        1 P58      0.110700
     16 HSAB        2.7520    1.3500   -3.3710 hs        1 P58      0.277800
     17 HAD         2.7240   -4.9850    3.4770 ha        1 P58      0.162000
     18 HAE         4.0270   -4.6580    1.3710 ha        1 P58      0.160500
     19 HAF         1.2830   -3.1420    4.3550 ha        1 P58      0.160500
     20 HAG         3.9020   -2.4930    0.1490 ha        1 P58      0.139500
     21 HAH         1.1390   -0.9780    3.1330 ha        1 P58      0.139500
     22 HAI         3.4910   -0.0250    0.4810 hx        1 P58      0.110200
     23 HAIA        2.0740    0.5220    1.5160 hx        1 P58      0.110200
     24 HAL1        1.7700   -1.2420   -0.8630 hn        1 P58      0.455800
@<TRIPOS>BOND
     1    1   12 1   
     2    1   13 1   
     3    1   14 1   
     4    1   15 1   
     5    2   10 1   
     6    2   16 1   
     7    3   10 2   
     8    4    5 ar  
     9    4    6 ar  
    10    4   17 1   
    11    5    7 ar  
    12    5   18 1   
    13    6    8 ar  
    14    6   19 1   
    15    7   11 ar  
    16    7   20 1   
    17    8   11 ar  
    18    8   21 1   
    19    9   11 1   
    20    9   12 1   
    21    9   22 1   
    22    9   23 1   
    23   10   12 1   
    24   12   24 1   
@<TRIPOS>SUBSTRUCTURE
     1 P58         1 TEMP              0 ****  ****    0 ROOT
