@<TRIPOS>MOLECULE
P58
   23    23     1     0     0
SMALL
bcc


@<TRIPOS>ATOM
      1 CAA        -1.0930    2.0920    0.0280 c3        1 P58      0.054300
      2 SAB        -3.2470    0.3750    0.7130 sh        1 P58     -0.288400
      3 SAC        -1.8620   -1.7120   -0.7130 s         1 P58     -0.515400
      4 CAD         3.7890   -0.2740    0.8850 ca        1 P58     -0.119000
      5 CAE         2.8280   -1.2770    0.7510 ca        1 P58     -0.133000
      6 CAF         3.5750    0.9770    0.3070 ca        1 P58     -0.133000
      7 CAG         1.6550   -1.0320    0.0400 ca        1 P58     -0.112500
      8 CAH         2.4010    1.2280   -0.4030 ca        1 P58     -0.112500
      9 CAI         0.1910    0.4710   -1.3350 c3        1 P58      0.120300
     10 CAJ        -1.9020   -0.1940   -0.2450 c         1 P58      0.441000
     11 CAK         1.4400    0.2230   -0.5410 ca        1 P58     -0.120300
     12 NAL        -0.9800    0.7690   -0.5290 n         1 P58     -0.371800
     13 HAA        -1.8400    2.6920   -0.5600 h1        1 P58      0.061033
     14 HAAA       -1.4310    2.0430    1.1010 h1        1 P58      0.061033
     15 HAAB       -0.0940    2.6030   -0.0110 h1        1 P58      0.061033
     16 HSAB       -3.9130   -0.7810    0.7870 hs        1 P58      0.254800
     17 HAD         4.7150   -0.4700    1.4450 ha        1 P58      0.133000
     18 HAE         2.9950   -2.2650    1.2060 ha        1 P58      0.135000
     19 HAF         4.3320    1.7680    0.4110 ha        1 P58      0.135000
     20 HAG         0.8880   -1.8190   -0.0710 ha        1 P58      0.143500
     21 HAH         2.2360    2.2150   -0.8590 ha        1 P58      0.143500
     22 HAI         0.3500    1.3470   -2.0290 h1        1 P58      0.082200
     23 HAIA       -0.0350   -0.4470   -1.9600 h1        1 P58      0.082200
@<TRIPOS>BOND
     1    1   12 1   
     2    1   13 1   
     3    1   14 1   
     4    1   15 1   
     5    2   10 1   
     6    2   16 1   
     7    3   10 2   
     8    4    5 ar  
     9    4    6 ar  
    10    4   17 1   
    11    5    7 ar  
    12    5   18 1   
    13    6    8 ar  
    14    6   19 1   
    15    7   11 ar  
    16    7   20 1   
    17    8   11 ar  
    18    8   21 1   
    19    9   11 1   
    20    9   12 1   
    21    9   22 1   
    22    9   23 1   
    23   10   12 1   
@<TRIPOS>SUBSTRUCTURE
     1 P58         1 TEMP              0 ****  ****    0 ROOT
