@<TRIPOS>MOLECULE
P58
   23    20     1     0     0
SMALL
bcc


@<TRIPOS>ATOM
      1 CAA        -2.7210   -1.0690   -0.6170 c3        1 P58      0.054300
      2 SAB        -0.0170   -2.7980   -2.4730 sh        1 P58     -0.310400
      3 SAC        -0.2720    0.1500   -2.8640 s         1 P58     -0.497400
      4 CAD         2.1400    2.3010    1.2630 c1        1 P58     -0.066000
      5 CAE         0.7650    2.5350    1.2500 c1        1 P58     -0.066000
      6 CAF         2.6320    1.0340    0.9770 c1        1 P58     -0.066000
      7 CAG        -0.1100    1.5040    0.9510 c1        1 P58     -0.066000
      8 CAH         1.7540    0.0010    0.6770 c1        1 P58     -0.051500
      9 CAI        -0.5520   -1.0200    0.6450 c3        1 P58      0.086100
     10 CAJ        -0.5290   -1.1950   -1.9060 c         1 P58      0.443000
     11 CAK         0.3800    0.2360    0.6630 c1        1 P58     -0.089100
     12 NAL        -1.2800   -1.0620   -0.6160 n         1 P58     -0.370800
     13 HAA        -3.0440   -2.0020   -0.5620 h1        1 P58      0.064367
     14 HAAA       -3.0560   -0.5560    0.1650 h1        1 P58      0.064367
     15 HAAB       -3.0500   -0.6560   -1.4450 h1        1 P58      0.064367
     16 HSAB        0.3520   -2.7210   -3.5820 hs        1 P58      0.258800
     17 HAD         2.7660    3.0400    1.4780 ha        1 P58      0.076750
     18 HAE         0.4140    3.4400    1.4530 ha        1 P58      0.076750
     19 HAF         3.6240    0.8650    0.9880 ha        1 P58      0.076750
     20 HAG        -1.0970    1.6730    0.9410 ha        1 P58      0.076750
     21 HAH         2.1010   -0.8940    0.4740 ha        1 P58      0.093500
     22 HAI        -0.0030   -1.8410    0.7380 h1        1 P58      0.074700
     23 HAIA       -1.1980   -0.9650    1.4020 h1        1 P58      0.074700
@<TRIPOS>BOND
     1    1   12 1   
     2    1   13 1   
     3    1   14 1   
     4    1   15 1   
     5    2   10 1   
     6    2   16 1   
     7    3   10 2   
     8    4    6 3   
     9    4   17 1   
    10    5    7 3   
    11    5   18 1   
    12    6   19 1   
    13    7   20 1   
    14    8   11 3   
    15    8   21 1   
    16    9   11 1   
    17    9   12 1   
    18    9   22 1   
    19    9   23 1   
    20   10   12 1   
@<TRIPOS>SUBSTRUCTURE
     1 P58         1 TEMP              0 ****  ****    0 ROOT
