@<TRIPOS>MOLECULE
P5A
   52    55     1     0     0
SMALL
bcc


@<TRIPOS>ATOM
      1 CB          1.2780   -2.0940    1.4000 c3        1 P5A     -0.089400
      2 CG          1.2770   -1.0200    0.3180 c3        1 P5A     -0.102400
      3 C          -0.0970   -1.6940    3.4830 c         1 P5A      0.556100
      4 O           0.8620   -1.8280    4.2310 o         1 P5A     -0.427100
      5 N          -0.9810   -1.1430    1.2590 n7        1 P5A     -0.881200
      6 CD         -0.1190   -0.3820    0.3470 c3        1 P5A      0.138800
      7 CA         -0.1470   -2.0890    2.0020 c3        1 P5A      0.096500
      8 N3S        -1.3420   -1.1350    4.0650 ny        1 P5A     -0.688700
      9 S          -1.9880    0.3910    3.3530 s6        1 P5A      1.665400
     10 O1S        -3.1320    0.0590    2.6740 o         1 P5A     -0.581300
     11 O2S        -0.9440    1.1830    2.9700 o         1 P5A     -0.581300
     12 O5'        -2.5160    1.0740    4.7540 os        1 P5A     -0.562500
     13 C5'        -3.8430    1.1150    5.2400 c3        1 P5A      0.185400
     14 C4'        -4.5010   -0.2630    5.2760 c3        1 P5A      0.037100
     15 O4'        -3.5730   -1.2520    5.7430 os        1 P5A     -0.459600
     16 C1'        -3.8870   -1.6890    7.0750 c3        1 P5A      0.268800
     17 N9         -2.9430   -1.1730    8.0390 na        1 P5A     -0.310000
     18 C4         -1.5790   -0.8830    7.8700 ca        1 P5A      0.505800
     19 N3         -0.7820   -0.8250    6.7620 nb        1 P5A     -0.857000
     20 C2          0.5140   -0.5050    7.0410 ca        1 P5A      0.726900
     21 N1          1.1020   -0.2330    8.2200 nb        1 P5A     -0.771000
     22 C6          0.3150   -0.2750    9.3610 ca        1 P5A      0.791200
     23 N6          0.8390   -0.0020   10.5830 nv        1 P5A     -0.922500
     24 C5         -1.0730   -0.6170    9.2120 ca        1 P5A     -0.238200
     25 N7         -2.1000   -0.7740   10.1540 nc        1 P5A     -0.506100
     26 C8         -3.1790   -1.1130    9.4460 cd        1 P5A      0.408700
     27 C2'        -5.3610   -1.2470    7.3510 c3        1 P5A      0.079100
     28 O2'        -6.1260   -2.4320    7.2820 oh        1 P5A     -0.589800
     29 C3'        -5.7330   -0.2850    6.1980 c3        1 P5A      0.103100
     30 O3'        -6.8920   -0.7080    5.5280 oh        1 P5A     -0.566800
     31 HB1         2.0520   -1.8870    2.1800 hc        1 P5A      0.084700
     32 HB2         1.4920   -3.1030    0.9680 hc        1 P5A      0.084700
     33 HG1         1.4860   -1.4670   -0.6850 hc        1 P5A      0.076700
     34 HG2         2.0610   -0.2480    0.5160 hc        1 P5A      0.076700
     35 HT1        -1.7090   -1.6210    0.7600 hn        1 P5A      0.400800
     36 HD1        -0.0590    0.6700    0.7480 h1        1 P5A      0.080200
     37 HD2        -0.5660   -0.3420   -0.6820 h1        1 P5A      0.080200
     38 HA         -0.5770   -3.1350    1.9890 h1        1 P5A      0.099700
     39 H3S        -1.1810   -0.9850    5.1480 hn        1 P5A      0.512300
     40 H1'1       -3.7280    1.5480    6.2740 h1        1 P5A      0.091700
     41 H1'2       -4.4490    1.8030    4.5910 h1        1 P5A      0.091700
     42 H4'        -4.7780   -0.5930    4.2310 h1        1 P5A      0.115700
     43 H1'        -3.8050   -2.8200    7.0340 h2        1 P5A      0.121700
     44 H2          1.1970   -0.4770    6.1610 h5        1 P5A      0.064100
     45 H61         0.2570   -0.0520   11.3850 hn        1 P5A      0.466300
     46 H62         1.7990    0.2290   10.6880 hn        1 P5A      0.466300
     47 H8         -4.1640   -1.3460    9.8730 h5        1 P5A      0.087800
     48 H2'        -5.5010   -0.7440    8.3440 h1        1 P5A      0.082700
     49 HO'2       -7.0430   -2.1940    7.4870 ho        1 P5A      0.441000
     50 H3'        -5.9860    0.7430    6.5810 h1        1 P5A      0.112700
     51 H3T        -6.7550   -1.6190    5.2270 ho        1 P5A      0.424000
     52 H3S2       -2.0600   -1.8630    4.0190 hn        1 P5A      0.512300
@<TRIPOS>BOND
     1    1    2 1   
     2    1    7 1   
     3    1   31 1   
     4    1   32 1   
     5    2    6 1   
     6    2   33 1   
     7    2   34 1   
     8    3    4 2   
     9    3    7 1   
    10    3    8 1   
    11    5    6 1   
    12    5    7 1   
    13    5   35 1   
    14    6   36 1   
    15    6   37 1   
    16    7   38 1   
    17    8    9 1   
    18    8   39 1   
    19    8   52 1   
    20    9   10 2   
    21    9   11 2   
    22    9   12 1   
    23   12   13 1   
    24   13   14 1   
    25   13   40 1   
    26   13   41 1   
    27   14   15 1   
    28   14   29 1   
    29   14   42 1   
    30   15   16 1   
    31   16   17 1   
    32   16   27 1   
    33   16   43 1   
    34   17   18 1   
    35   17   26 1   
    36   18   19 ar  
    37   18   24 ar  
    38   19   20 ar  
    39   20   21 ar  
    40   20   44 1   
    41   21   22 ar  
    42   22   23 1   
    43   22   24 ar  
    44   23   45 1   
    45   23   46 1   
    46   24   25 1   
    47   25   26 2   
    48   26   47 1   
    49   27   28 1   
    50   27   29 1   
    51   27   48 1   
    52   28   49 1   
    53   29   30 1   
    54   29   50 1   
    55   30   51 1   
@<TRIPOS>SUBSTRUCTURE
     1 P5A         1 TEMP              0 ****  ****    0 ROOT
