@<TRIPOS>MOLECULE
P5A
   53    56     1     0     0
SMALL
bcc


@<TRIPOS>ATOM
      1 CB         -1.7640   -0.3420   -1.7660 c3        1 P5A     -0.095400
      2 CG         -0.7510    0.1070   -2.8160 c3        1 P5A     -0.093400
      3 C          -0.9840   -0.3850    0.6320 c         1 P5A      0.507100
      4 O           0.1260   -0.4400    1.1340 o         1 P5A     -0.418100
      5 N          -0.5490    1.5610   -0.8820 n3        1 P5A     -0.802200
      6 CD          0.0390    1.2630   -2.1840 c3        1 P5A      0.150800
      7 CA         -1.4780    0.5240   -0.5120 c3        1 P5A      0.150500
      8 N3S        -2.0110   -1.3250    1.2280 n4        1 P5A     -0.649700
      9 S          -2.9000   -0.7170    2.7390 s6        1 P5A      1.634400
     10 O1S        -4.1980   -0.9950    2.4430 o         1 P5A     -0.554800
     11 O2S        -2.3260    0.4760    3.0610 o         1 P5A     -0.554800
     12 O5'        -2.3200   -1.8530    3.7570 os        1 P5A     -0.573500
     13 C5'        -1.6950   -1.6060    5.0130 c3        1 P5A      0.191400
     14 C4'        -2.7750   -1.4420    6.0810 c3        1 P5A      0.088100
     15 O4'        -2.2950   -2.0490    7.2870 os        1 P5A     -0.408600
     16 C1'        -2.9040   -1.3890    8.4230 c3        1 P5A      0.214800
     17 N9         -1.9720   -1.3990    9.5230 na        1 P5A     -0.261000
     18 C4         -2.1760   -2.0550   10.7520 ca        1 P5A      0.470800
     19 N3         -3.2320   -2.7410   11.2520 nb        1 P5A     -0.621000
     20 C2         -3.0410   -3.2090   12.5130 ca        1 P5A      0.688900
     21 N1         -1.9430   -3.0700   13.3140 nb        1 P5A     -0.667000
     22 C6         -0.8940   -2.3800   12.8030 ca        1 P5A      0.536200
     23 N6          0.3140   -2.1890   13.6270 n4        1 P5A     -0.818300
     24 C5         -0.9240   -1.8340   11.5070 ca        1 P5A     -0.138200
     25 N7         -0.0190   -1.1000   10.7310 nc        1 P5A     -0.566100
     26 C8         -0.6600   -0.8710    9.5720 cd        1 P5A      0.506700
     27 C2'        -3.3400    0.0400    7.9450 c3        1 P5A      0.084100
     28 O2'        -4.6710    0.3060    8.2900 oh        1 P5A     -0.553800
     29 C3'        -3.1220    0.0230    6.4170 c3        1 P5A      0.065100
     30 O3'        -4.3000    0.3320    5.7010 oh        1 P5A     -0.612800
     31 HB1        -1.6610   -1.4330   -1.5560 hc        1 P5A      0.066200
     32 HB2        -2.8100   -0.1490   -2.1160 hc        1 P5A      0.066200
     33 HG1        -0.0660   -0.7300   -3.0980 hc        1 P5A      0.081700
     34 HG2        -1.2710    0.4490   -3.7450 hc        1 P5A      0.081700
     35 HT1         0.1130    1.8110   -0.1770 hn        1 P5A      0.412800
     36 HD1         1.1300    1.0010   -2.1070 h1        1 P5A      0.076700
     37 HD2        -0.0520    2.1990   -2.8050 h1        1 P5A      0.076700
     38 HA         -2.4170    1.0270   -0.1310 h1        1 P5A      0.096700
     39 H3S        -2.6900   -1.5440    0.4920 hn        1 P5A      0.476300
     40 H1'1       -1.0300   -0.7060    4.9330 h1        1 P5A      0.104200
     41 H1'2       -1.0900   -2.5380    5.2040 h1        1 P5A      0.104200
     42 H4'        -3.7070   -1.9980    5.7670 h1        1 P5A      0.105700
     43 H1'        -3.8120   -1.9980    8.7220 h2        1 P5A      0.130700
     44 H2         -3.8880   -3.7830   12.9600 h5        1 P5A      0.111100
     45 H61         0.4070   -1.1890   13.8470 hn        1 P5A      0.483467
     46 H62         1.1340   -2.4950   13.0860 hn        1 P5A      0.483467
     47 H8         -0.2320   -0.3200    8.7200 h5        1 P5A      0.100800
     48 H2'        -2.7500    0.8600    8.4380 h1        1 P5A      0.117700
     49 HO'2       -5.2470   -0.3120    7.8120 ho        1 P5A      0.428000
     50 H3'        -2.3010    0.7320    6.1240 h1        1 P5A      0.079700
     51 H3T        -4.6530    1.1630    6.0560 ho        1 P5A      0.456000
     52 H3S2       -1.5330   -2.2030    1.4620 hn        1 P5A      0.476300
     53 H63         0.2570   -2.7290   14.5040 hn        1 P5A      0.483467
@<TRIPOS>BOND
     1    1    2 1   
     2    1    7 1   
     3    1   31 1   
     4    1   32 1   
     5    2    6 1   
     6    2   33 1   
     7    2   34 1   
     8    3    4 2   
     9    3    7 1   
    10    3    8 1   
    11    5    6 1   
    12    5    7 1   
    13    5   35 1   
    14    6   36 1   
    15    6   37 1   
    16    7   38 1   
    17    8    9 1   
    18    8   39 1   
    19    8   52 1   
    20    9   10 2   
    21    9   11 2   
    22    9   12 1   
    23   12   13 1   
    24   13   14 1   
    25   13   40 1   
    26   13   41 1   
    27   14   15 1   
    28   14   29 1   
    29   14   42 1   
    30   15   16 1   
    31   16   17 1   
    32   16   27 1   
    33   16   43 1   
    34   17   18 1   
    35   17   26 1   
    36   18   19 ar  
    37   18   24 ar  
    38   19   20 ar  
    39   20   21 ar  
    40   20   44 1   
    41   21   22 ar  
    42   22   23 1   
    43   22   24 ar  
    44   23   45 1   
    45   23   46 1   
    46   23   53 1   
    47   24   25 1   
    48   25   26 2   
    49   26   47 1   
    50   27   28 1   
    51   27   29 1   
    52   27   48 1   
    53   28   49 1   
    54   29   30 1   
    55   29   50 1   
    56   30   51 1   
@<TRIPOS>SUBSTRUCTURE
     1 P5A         1 TEMP              0 ****  ****    0 ROOT
