@<TRIPOS>MOLECULE
P5A
   51    47     1     0     0
SMALL
bcc


@<TRIPOS>ATOM
      1 CB         -3.9480    4.7190   -3.0250 c3        1 P5A     -0.172000
      2 CG         -5.0630    5.7450   -3.0660 c3        1 P5A     -0.173000
      3 C          -3.9980    2.4180   -1.9140 c1        1 P5A      0.316000
      4 O          -4.5840    2.1980   -0.8770 o         1 P5A     -0.324000
      5 N          -5.8980    3.6090   -2.7490 n3        1 P5A     -0.273000
      6 CD         -6.1230    5.0870   -3.3190 c3        1 P5A     -0.089000
      7 CA         -4.6550    3.2880   -2.9960 c2        1 P5A     -0.039000
      8 N3S        -2.7370    1.7430   -2.1950 n3        1 P5A     -0.869000
      9 S          -1.7100    1.3830   -0.9680 s4        1 P5A      2.041800
     10 O1S        -2.4500    0.8970    0.2320 o         1 P5A     -0.543400
     11 O2S        -1.0500    2.6350   -0.4180 o         1 P5A     -0.543400
     12 O5'        -0.6660    0.3580   -1.4300 o         1 P5A     -0.720000
     13 C5'         0.5290    0.2890   -0.6510 c3        1 P5A      0.018000
     14 C4'         0.5770   -1.0580    0.1060 c3        1 P5A     -0.050000
     15 O4'         1.7660   -1.5740    0.0310 os        1 P5A     -0.259000
     16 C1'         2.0110   -2.3300    1.4170 c3        1 P5A      0.116000
     17 N9          3.4120   -2.4520    1.6710 n3        1 P5A     -0.199000
     18 C4          3.9750   -3.6260    2.0560 c1        1 P5A      0.085000
     19 N3          3.4280   -4.8190    2.4540 n1        1 P5A     -0.206000
     20 C2          4.2380   -5.8960    2.7100 c1        1 P5A      0.027000
     21 N1          5.6030   -5.7810    2.5680 n1        1 P5A     -0.269000
     22 C6          6.1490   -4.6040    2.1750 c1        1 P5A      0.242000
     23 N6          7.5710   -4.8240    2.2820 n2        1 P5A     -0.357000
     24 C5          5.3280   -3.5100    1.9150 c1        1 P5A     -0.248000
     25 N7          5.5930   -2.2670    1.4430 n1        1 P5A     -0.108000
     26 C8          4.4100   -1.6120    1.2920 c1        1 P5A     -0.060000
     27 C2'         1.4440   -1.5820    2.3520 c3        1 P5A      0.013000
     28 O2'         0.8830   -2.4280    3.4080 oh        1 P5A     -0.294000
     29 C3'         0.3250   -0.8310    1.6340 c3        1 P5A     -0.021000
     30 O3'        -0.8780   -1.3320    1.9900 oh        1 P5A     -0.328000
     31 HB1        -3.4030    4.8430   -2.2180 hc        1 P5A      0.097500
     32 HB2        -3.3860    4.8000   -3.8280 hc        1 P5A      0.097500
     33 HG1        -4.8940    6.4020   -3.7710 hc        1 P5A      0.096500
     34 HG2        -5.1420    6.1920   -2.1970 hc        1 P5A      0.096500
     35 HT1        -6.0430    3.6020   -1.8460 hn        1 P5A      0.182000
     36 HD1        -6.2740    5.0530   -4.2970 h1        1 P5A      0.092000
     37 HD2        -6.9060    5.5120   -2.8680 h1        1 P5A      0.092000
     38 HA         -4.5820    2.7270   -3.7660 h4        1 P5A      0.130000
     39 H3S        -2.5740    1.4220   -3.0280 hn        1 P5A      0.269000
     40 H1'1        0.5390    1.0250   -0.0050 h1        1 P5A      0.112000
     41 H1'2        1.3060    0.3600   -1.2390 h1        1 P5A      0.112000
     42 H4'        -0.0880   -1.6820   -0.2620 h1        1 P5A      0.142000
     43 H1'         1.5860   -3.2350    1.3960 h2        1 P5A      0.176000
     44 H2          3.8420   -6.7530    2.9960 ha        1 P5A      0.190000
     45 H61         7.8940   -5.4990    2.8250 hn        1 P5A      0.243500
     46 H62         8.1620   -4.2630    1.8360 hn        1 P5A      0.243500
     47 H8          4.2950   -0.7140    0.9150 DU        1 P5A      0.197000
     48 H2'         2.0880   -0.9590    2.7230 h1        1 P5A      0.138000
     49 HO'2        1.0590   -2.0690    4.1970 ho        1 P5A      0.228000
     50 H3'         0.3700    0.1140    1.8430 h1        1 P5A      0.100000
     51 H3T        -1.3300   -0.7200    2.4670 ho        1 P5A      0.249000
@<TRIPOS>BOND
     1    1    2 1   
     2    1    7 1   
     3    1   31 1   
     4    1   32 1   
     5    2    6 1   
     6    2   33 1   
     7    2   34 1   
     8    3    4 1   
     9    3    8 1   
    10    5    6 1   
    11    5    7 1   
    12    5   35 1   
    13    6   36 1   
    14    6   37 1   
    15    7   38 1   
    16    8    9 1   
    17    8   39 1   
    18    9   10 1   
    19    9   11 1   
    20   12   13 1   
    21   13   14 1   
    22   13   40 1   
    23   13   41 1   
    24   14   15 1   
    25   14   29 1   
    26   14   42 1   
    27   15   16 1   
    28   16   17 1   
    29   16   27 1   
    30   16   43 1   
    31   17   18 1   
    32   17   26 1   
    33   18   24 1   
    34   19   20 1   
    35   20   44 1   
    36   21   22 1   
    37   22   24 1   
    38   23   45 1   
    39   23   46 1   
    40   25   26 1   
    41   27   28 1   
    42   27   29 1   
    43   27   48 1   
    44   28   49 1   
    45   29   30 1   
    46   29   50 1   
    47   30   51 1   
@<TRIPOS>SUBSTRUCTURE
     1 P5A         1 TEMP              0 ****  ****    0 ROOT
