@<TRIPOS>MOLECULE
P5A
   51    54     1     0     0
SMALL
bcc


@<TRIPOS>ATOM
      1 CB          3.4610    0.0710   -2.5240 c3        1 P5A     -0.095400
      2 CG          4.0490    1.4100   -2.1010 c3        1 P5A     -0.104400
      3 C           1.0980   -0.0460   -3.3750 c         1 P5A      0.692100
      4 O           0.8720   -1.1750   -2.9130 o         1 P5A     -0.564100
      5 N           2.6770    1.7820   -4.0930 n3        1 P5A     -0.823200
      6 CD          3.4620    2.4550   -3.0640 c3        1 P5A      0.148800
      7 CA          2.5350    0.3720   -3.7280 c3        1 P5A      0.102500
      8 N3S         0.0260    0.8210   -3.6000 n         1 P5A     -0.694300
      9 S          -1.5640    0.4860   -3.4720 s6        1 P5A      1.703100
     10 O1S        -1.9710   -0.5940   -4.2260 o         1 P5A     -0.638300
     11 O2S        -2.2700    1.6860   -3.5240 o         1 P5A     -0.638300
     12 O5'        -1.7600   -0.0320   -1.8890 os        1 P5A     -0.556500
     13 C5'        -2.1080    0.8300   -0.8350 c3        1 P5A      0.161400
     14 C4'        -3.0310    0.0660    0.1170 c3        1 P5A      0.087100
     15 O4'        -2.4180   -1.1530    0.5540 os        1 P5A     -0.378600
     16 C1'        -1.8350   -0.9890    1.8460 c3        1 P5A      0.218800
     17 N9         -0.3960   -0.8850    1.7450 na        1 P5A     -0.295000
     18 C4          0.4750   -0.7320    2.8340 ca        1 P5A      0.443800
     19 N3          0.2210   -0.5590    4.1670 nb        1 P5A     -0.753000
     20 C2          1.3530   -0.4570    4.9010 ca        1 P5A      0.684900
     21 N1          2.6560   -0.4990    4.5130 nb        1 P5A     -0.789000
     22 C6          2.9170   -0.6560    3.1720 ca        1 P5A      0.747200
     23 N6          4.2080   -0.6380    2.6960 nh        1 P5A     -0.945500
     24 C5          1.8150   -0.7890    2.2630 ca        1 P5A     -0.221200
     25 N7          1.7350   -0.9810    0.8750 nc        1 P5A     -0.565100
     26 C8          0.4240   -1.0420    0.6000 cd        1 P5A      0.434700
     27 C2'        -2.5100    0.2630    2.5040 c3        1 P5A      0.080100
     28 O2'        -3.3960   -0.1700    3.5120 oh        1 P5A     -0.590800
     29 C3'        -3.3390    0.9140    1.3720 c3        1 P5A      0.128100
     30 O3'        -4.7170    0.9690    1.6350 oh        1 P5A     -0.571800
     31 HB1         2.8940   -0.4120   -1.6890 hc        1 P5A      0.076200
     32 HB2         4.2630   -0.6390   -2.8420 hc        1 P5A      0.076200
     33 HG1         3.7750    1.6540   -1.0460 hc        1 P5A      0.056700
     34 HG2         5.1650    1.3960   -2.1680 hc        1 P5A      0.056700
     35 HT1         3.1100    1.8650   -4.9930 hn        1 P5A      0.370800
     36 HD1         2.7670    3.1440   -2.5090 h1        1 P5A      0.051700
     37 HD2         4.2750    3.0830   -3.5180 h1        1 P5A      0.051700
     38 HA          2.8060   -0.2980   -4.5970 h1        1 P5A      0.080700
     39 H3S         0.3000    1.7520   -3.8480 hn        1 P5A      0.363500
     40 H1'1       -2.6410    1.7420   -1.2210 h1        1 P5A      0.055700
     41 H1'2       -1.1600    1.1250   -0.3070 h1        1 P5A      0.055700
     42 H4'        -3.9650   -0.2600   -0.4160 h1        1 P5A      0.109700
     43 H1'        -2.0920   -1.9320    2.4180 h2        1 P5A      0.106700
     44 H2          1.2020   -0.3220    5.9940 h5        1 P5A      0.052100
     45 H61         4.9620   -0.7000    3.3380 hn        1 P5A      0.438300
     46 H62         4.3560   -0.9620    1.7700 hn        1 P5A      0.438300
     47 H8         -0.0280   -1.2000   -0.3970 h5        1 P5A      0.113800
     48 H2'        -1.7610    0.9890    2.9160 h1        1 P5A      0.082700
     49 HO'2       -2.8590   -0.3600    4.2930 ho        1 P5A      0.433000
     50 H3'        -3.0370    1.9880    1.2250 h1        1 P5A      0.092700
     51 H3T        -4.9890    0.1170    2.0040 ho        1 P5A      0.426000
@<TRIPOS>BOND
     1    1    2 1   
     2    1    7 1   
     3    1   31 1   
     4    1   32 1   
     5    2    6 1   
     6    2   33 1   
     7    2   34 1   
     8    3    4 2   
     9    3    7 1   
    10    3    8 1   
    11    5    6 1   
    12    5    7 1   
    13    5   35 1   
    14    6   36 1   
    15    6   37 1   
    16    7   38 1   
    17    8    9 1   
    18    8   39 1   
    19    9   10 2   
    20    9   11 2   
    21    9   12 1   
    22   12   13 1   
    23   13   14 1   
    24   13   40 1   
    25   13   41 1   
    26   14   15 1   
    27   14   29 1   
    28   14   42 1   
    29   15   16 1   
    30   16   17 1   
    31   16   27 1   
    32   16   43 1   
    33   17   18 1   
    34   17   26 1   
    35   18   19 ar  
    36   18   24 ar  
    37   19   20 ar  
    38   20   21 ar  
    39   20   44 1   
    40   21   22 ar  
    41   22   23 1   
    42   22   24 ar  
    43   23   45 1   
    44   23   46 1   
    45   24   25 1   
    46   25   26 2   
    47   26   47 1   
    48   27   28 1   
    49   27   29 1   
    50   27   48 1   
    51   28   49 1   
    52   29   30 1   
    53   29   50 1   
    54   30   51 1   
@<TRIPOS>SUBSTRUCTURE
     1 P5A         1 TEMP              0 ****  ****    0 ROOT
