@<TRIPOS>MOLECULE
P5A
   52    55     1     0     0
SMALL
bcc


@<TRIPOS>ATOM
      1 CB          1.2260   -2.1160    1.3490 c3        1 P5A     -0.089400
      2 CG          1.2490   -1.0110    0.3010 c3        1 P5A     -0.102400
      3 C          -0.1380   -1.7420    3.4450 c         1 P5A      0.557100
      4 O           0.8200   -1.9140    4.1850 o         1 P5A     -0.428100
      5 N          -1.0110   -1.1140    1.2380 n3        1 P5A     -0.881200
      6 CD         -0.1340   -0.3450    0.3470 c3        1 P5A      0.138800
      7 CA         -0.1980   -2.0970    1.9540 c3        1 P5A      0.096500
      8 N3S        -1.3700   -1.1730    4.0460 n4        1 P5A     -0.692700
      9 S          -2.0030    0.3700    3.3660 s6        1 P5A      1.664400
     10 O1S        -3.1480    0.0660    2.6760 o         1 P5A     -0.580300
     11 O2S        -0.9520    1.1660    3.0100 o         1 P5A     -0.580300
     12 O5'        -2.5370    1.0230    4.7810 os        1 P5A     -0.560500
     13 C5'        -3.8690    1.0540    5.2530 c3        1 P5A      0.182400
     14 C4'        -4.5120   -0.3330    5.2820 c3        1 P5A      0.070100
     15 O4'        -3.5780   -1.3150    5.7520 os        1 P5A     -0.459600
     16 C1'        -3.8740   -1.7290    7.0950 c3        1 P5A      0.232800
     17 N9         -2.9140   -1.2040    8.0360 na        1 P5A     -0.307000
     18 C4         -1.5500   -0.9270    7.8470 ca        1 P5A      0.504800
     19 N3         -0.7680   -0.8800    6.7280 nb        1 P5A     -0.858000
     20 C2          0.5340   -0.5700    6.9880 ca        1 P5A      0.726900
     21 N1          1.1410   -0.2950    8.1560 nb        1 P5A     -0.771000
     22 C6          0.3680   -0.3240    9.3090 ca        1 P5A      0.791200
     23 N6          0.9110   -0.0460   10.5220 nh        1 P5A     -0.922500
     24 C5         -1.0240   -0.6570    9.1810 ca        1 P5A     -0.238200
     25 N7         -2.0390   -0.8000   10.1370 nc        1 P5A     -0.507100
     26 C8         -3.1310   -1.1360    9.4470 cd        1 P5A      0.409700
     27 C2'        -5.3490   -1.2850    7.3880 c3        1 P5A      0.085100
     28 O2'        -6.1810   -2.4090    7.4920 oh        1 P5A     -0.567800
     29 C3'        -5.7410   -0.3680    6.2050 c3        1 P5A      0.098100
     30 O3'        -6.7930   -0.9510    5.4640 oh        1 P5A     -0.586800
     31 HB1         1.4150   -3.1170    0.8870 hc        1 P5A      0.084700
     32 HB2         2.0060   -1.9510    2.1340 hc        1 P5A      0.084700
     33 HG1         1.4500   -1.4320   -0.7160 hc        1 P5A      0.076700
     34 HG2         2.0490   -0.2620    0.5220 hc        1 P5A      0.076700
     35 HT1        -1.7500   -1.5620    0.7260 hn        1 P5A      0.400800
     36 HD1        -0.5790   -0.2680   -0.6810 h1        1 P5A      0.080200
     37 HD2        -0.0520    0.6930    0.7760 h1        1 P5A      0.080200
     38 HA         -0.6500   -3.1320    1.9140 h1        1 P5A      0.099700
     39 H3S        -1.1930   -1.0400    5.1330 hn        1 P5A      0.513300
     40 H1'1       -3.7700    1.4900    6.2870 h1        1 P5A      0.090700
     41 H1'2       -4.4760    1.7330    4.5950 h1        1 P5A      0.090700
     42 H4'        -4.7900   -0.6680    4.2390 h1        1 P5A      0.127700
     43 H1'        -3.7910   -2.8600    7.0710 h2        1 P5A      0.107700
     44 H2          1.2060   -0.5520    6.0980 h5        1 P5A      0.064100
     45 H61         0.3390   -0.0890   11.3320 hn        1 P5A      0.465800
     46 H62         1.8740    0.1770   10.6130 hn        1 P5A      0.465800
     47 H8         -4.1120   -1.3600    9.8860 h5        1 P5A      0.090800
     48 H2'        -5.4640   -0.7500    8.3690 h1        1 P5A      0.113700
     49 HO'2       -6.2790   -2.8030    6.6100 ho        1 P5A      0.429000
     50 H3'        -6.0250    0.6560    6.5640 h1        1 P5A      0.080700
     51 H3T        -7.5960   -0.8820    6.0010 ho        1 P5A      0.437000
     52 H3S2       -2.0960   -1.8920    3.9990 hn        1 P5A      0.513300
@<TRIPOS>BOND
     1    1    2 1   
     2    1    7 1   
     3    1   31 1   
     4    1   32 1   
     5    2    6 1   
     6    2   33 1   
     7    2   34 1   
     8    3    4 2   
     9    3    7 1   
    10    3    8 1   
    11    5    6 1   
    12    5    7 1   
    13    5   35 1   
    14    6   36 1   
    15    6   37 1   
    16    7   38 1   
    17    8    9 1   
    18    8   39 1   
    19    8   52 1   
    20    9   10 2   
    21    9   11 2   
    22    9   12 1   
    23   12   13 1   
    24   13   14 1   
    25   13   40 1   
    26   13   41 1   
    27   14   15 1   
    28   14   29 1   
    29   14   42 1   
    30   15   16 1   
    31   16   17 1   
    32   16   27 1   
    33   16   43 1   
    34   17   18 1   
    35   17   26 1   
    36   18   19 ar  
    37   18   24 ar  
    38   19   20 ar  
    39   20   21 ar  
    40   20   44 1   
    41   21   22 ar  
    42   22   23 1   
    43   22   24 ar  
    44   23   45 1   
    45   23   46 1   
    46   24   25 1   
    47   25   26 2   
    48   26   47 1   
    49   27   28 1   
    50   27   29 1   
    51   27   48 1   
    52   28   49 1   
    53   29   30 1   
    54   29   50 1   
    55   30   51 1   
@<TRIPOS>SUBSTRUCTURE
     1 P5A         1 TEMP              0 ****  ****    0 ROOT
