@<TRIPOS>MOLECULE
P5B
   72    74     1     0     0
SMALL
bcc


@<TRIPOS>ATOM
      1 C14        -1.2110   -0.2980    1.0200 c         1 P5B      0.641100
      2 O1         -0.9890   -0.8510    2.1170 o         1 P5B     -0.623100
      3 N5         -0.2100   -0.0580    0.1100 n         1 P5B     -0.553900
      4 C15         1.1780   -0.3030    0.4210 c3        1 P5B      0.036700
      5 C18         1.6970   -1.6730   -0.0480 c3        1 P5B     -0.085400
      6 C19         1.0050   -2.8000    0.6850 c3        1 P5B     -0.151400
      7 C20         2.0820    0.7600   -0.2550 c         1 P5B      0.644100
      8 O5          1.7650    1.2820   -1.3430 o         1 P5B     -0.608100
      9 N6          3.2360    1.1000    0.4120 n         1 P5B     -0.555900
     10 C21         4.2360    1.9550   -0.1720 c3        1 P5B      0.128300
     11 C16         5.8810    0.0570   -0.4870 ca        1 P5B     -0.128500
     12 C17         7.1860   -0.4350   -0.4860 ca        1 P5B     -0.097000
     13 C22         8.2490    0.4120   -0.1600 ca        1 P5B     -0.138900
     14 C23         8.0020    1.7460    0.1820 ca        1 P5B     -0.097000
     15 C24         6.6950    2.2290    0.1890 ca        1 P5B     -0.128500
     16 C25         5.6280    1.3900   -0.1490 ca        1 P5B     -0.103300
     17 N1          9.9050   -1.1950    0.5150 n2        1 P5B     -0.823100
     18 C2          1.7400   -4.1100    0.4800 c         1 P5B      0.656100
     19 O2          2.8080   -4.1900   -0.1620 o         1 P5B     -0.619100
     20 N3          1.1880   -5.2420    1.0310 n         1 P5B     -0.678000
     21 C1         -3.3300   -1.2430    0.1940 c3        1 P5B     -0.018200
     22 N4         -3.3120    0.7850    1.6720 n3        1 P5B     -0.907100
     23 C5         -2.6590    0.0860    0.6050 c3        1 P5B      0.188500
     24 O4         -3.8780    2.8680    2.8640 o         1 P5B     -0.650800
     25 O3         -3.2230    3.0010    0.5490 o         1 P5B     -0.650800
     26 C9         -5.5270    2.0640    1.1140 c3        1 P5B     -0.321600
     27 C8         -6.1820    3.3760    0.7730 c3        1 P5B     -0.072100
     28 N2         10.5700    0.6900   -0.8700 nh        1 P5B     -0.957800
     29 C10        -6.2970    0.6040   -3.8920 ca        1 P5B     -0.109000
     30 C7         -7.0750   -0.0280   -2.9350 ca        1 P5B     -0.143000
     31 C3         -6.4230   -0.5460   -1.8040 ca        1 P5B     -0.049200
     32 C4         -4.9910   -0.4220   -1.6430 ca        1 P5B     -0.098800
     33 C11        -4.2470    0.2200   -2.6350 ca        1 P5B     -0.085000
     34 C6         -4.9030    0.7260   -3.7470 ca        1 P5B     -0.147000
     35 N7         -6.9280   -1.2220   -0.6900 na        1 P5B     -0.191400
     36 C13        -5.8630   -1.5410    0.1520 cc        1 P5B     -0.095100
     37 C12        -4.6640   -1.0630   -0.3850 cd        1 P5B     -0.159400
     38 HN5        -0.3990    0.4370   -0.7330 hn        1 P5B      0.340500
     39 H15         1.2900   -0.2500    1.5480 h1        1 P5B      0.089700
     40 H181        1.5530   -1.7900   -1.1540 hc        1 P5B      0.071700
     41 H182        2.8020   -1.7220    0.1480 hc        1 P5B      0.071700
     42 H191        0.9530   -2.5710    1.7840 hc        1 P5B      0.075700
     43 H192       -0.0520   -2.9020    0.3210 hc        1 P5B      0.075700
     44 HN6         3.4950    0.5890    1.2230 hn        1 P5B      0.317500
     45 H211        3.9530    2.1750   -1.2450 h1        1 P5B      0.073200
     46 H212        4.2240    2.9350    0.3920 h1        1 P5B      0.073200
     47 H16         5.0520   -0.6160   -0.7590 ha        1 P5B      0.139500
     48 H17         7.3750   -1.4910   -0.7340 ha        1 P5B      0.150000
     49 H23         8.8340    2.4110    0.4580 ha        1 P5B      0.150000
     50 H24         6.5050    3.2770    0.4660 ha        1 P5B      0.139500
     51 HN1        10.8480   -1.5230    0.4920 hn        1 P5B      0.383400
     52 HN31        0.3690   -5.1940    1.5780 hn        1 P5B      0.312000
     53 HN32        1.6550   -6.1090    0.9380 hn        1 P5B      0.312000
     54 H11A       -2.6600   -1.7310   -0.5660 hc        1 P5B      0.063200
     55 H12        -3.3810   -1.9210    1.0880 hc        1 P5B      0.063200
     56 HN4        -3.3000    0.2840    2.5310 hn        1 P5B      0.461800
     57 H5         -2.6450    0.7700   -0.2990 h1        1 P5B      0.090700
     58 H91        -6.1130    1.5750    1.9350 h1        1 P5B      0.114200
     59 H92        -5.6210    1.3750    0.2280 h1        1 P5B      0.114200
     60 H81        -7.2380    3.2120    0.4510 hc        1 P5B      0.052033
     61 H82        -6.1890    4.0540    1.6630 hc        1 P5B      0.052033
     62 H83        -5.6350    3.8810   -0.0620 hc        1 P5B      0.052033
     63 HN21       10.1700    1.3070   -1.5370 hn        1 P5B      0.398300
     64 HN22       11.4070    0.2490   -1.1740 hn        1 P5B      0.398300
     65 H10        -6.7780    1.0210   -4.7910 ha        1 P5B      0.134000
     66 H7         -8.1620   -0.1220   -3.0560 ha        1 P5B      0.135000
     67 H11        -3.1560    0.3200   -2.5320 ha        1 P5B      0.134000
     68 H6         -4.3280    1.2370   -4.5340 ha        1 P5B      0.137000
     69 HN7        -7.8670   -1.4930   -0.5630 hn        1 P5B      0.302700
     70 H13        -6.0310   -2.0880    1.0820 h4        1 P5B      0.168000
     71 C26         9.6500   -0.1170   -0.1630 ce        1 P5B      0.648800
     72 S1         -3.8880    2.2980    1.5740 s6        1 P5B      1.455900
@<TRIPOS>BOND
     1    1    2 2   
     2    1    3 1   
     3    1   23 1   
     4    3    4 1   
     5    3   38 1   
     6    4    5 1   
     7    4    7 1   
     8    4   39 1   
     9    5    6 1   
    10    5   40 1   
    11    5   41 1   
    12    6   18 1   
    13    6   42 1   
    14    6   43 1   
    15    7    8 2   
    16    7    9 1   
    17    9   10 1   
    18    9   44 1   
    19   10   16 1   
    20   10   45 1   
    21   10   46 1   
    22   11   12 ar  
    23   11   16 ar  
    24   11   47 1   
    25   12   13 ar  
    26   12   48 1   
    27   13   14 ar  
    28   13   71 1   
    29   14   15 ar  
    30   14   49 1   
    31   15   16 ar  
    32   15   50 1   
    33   17   51 1   
    34   17   71 2   
    35   18   19 2   
    36   18   20 1   
    37   20   52 1   
    38   20   53 1   
    39   21   23 1   
    40   21   37 1   
    41   21   54 1   
    42   21   55 1   
    43   22   23 1   
    44   22   56 1   
    45   22   72 1   
    46   23   57 1   
    47   24   72 2   
    48   25   72 2   
    49   26   27 1   
    50   26   58 1   
    51   26   59 1   
    52   26   72 1   
    53   27   60 1   
    54   27   61 1   
    55   27   62 1   
    56   28   63 1   
    57   28   64 1   
    58   28   71 1   
    59   29   30 ar  
    60   29   34 ar  
    61   29   65 1   
    62   30   31 ar  
    63   30   66 1   
    64   31   32 ar  
    65   31   35 1   
    66   32   33 ar  
    67   32   37 1   
    68   33   34 ar  
    69   33   67 1   
    70   34   68 1   
    71   35   36 1   
    72   35   69 1   
    73   36   37 2   
    74   36   70 1   
@<TRIPOS>SUBSTRUCTURE
     1 P5B         1 TEMP              0 ****  ****    0 ROOT
