@<TRIPOS>MOLECULE
P5B
   72    65     1     0     0
SMALL
bcc


@<TRIPOS>ATOM
      1 C14        -0.1110   -0.1540   -0.3260 c         1 P5B      0.654300
      2 O1          0.0770    0.9390    0.2580 o         1 P5B     -0.651100
      3 N5          0.1320   -1.3420    0.2860 n         1 P5B     -0.649000
      4 C15         1.2150    0.6880    3.3360 ce        1 P5B     -0.235200
      5 C18         1.8300    1.7620    3.8390 c2        1 P5B     -0.101200
      6 C19         1.8150    3.0700    3.1380 c3        1 P5B     -0.136200
      7 C20         1.2090   -0.6630    3.9420 c         1 P5B      0.670300
      8 O5          0.8920   -1.6690    3.2580 o         1 P5B     -0.671100
      9 N6          1.5340   -0.8290    5.2610 n         1 P5B     -0.664000
     10 C21         0.1360   -3.7970    5.4750 c1        1 P5B     -0.104000
     11 C16         1.6250    2.2310    8.1390 c3        1 P5B     -0.051000
     12 C17         1.9810    0.8510    8.2150 c1        1 P5B     -0.111100
     13 C22         2.2810   -0.3070    8.2800 c1        1 P5B     -0.217500
     14 C23        -0.3910   -4.8860    9.0300 c1        1 P5B     -0.104000
     15 C24        -0.2210   -4.5350    7.8960 cg        1 P5B     -0.086000
     16 C25        -0.0310   -4.1420    6.6120 cg        1 P5B     -0.086000
     17 N1         -2.4210   -0.4140   10.6110 n1        1 P5B     -0.403800
     18 C2          1.7780    4.2240    4.1250 c         1 P5B      0.664100
     19 O2          2.0630    4.0840    5.3330 o         1 P5B     -0.633100
     20 N3          1.4400    5.4630    3.6430 n         1 P5B     -0.672000
     21 C1         -1.7910    0.4280   -2.0810 ce        1 P5B     -0.078000
     22 N4          0.1960   -0.8140   -2.7030 nh        1 P5B     -0.805900
     23 C5         -0.6240   -0.1780   -1.7530 cf        1 P5B      0.045800
     24 O4          1.1750   -2.6650   -3.9940 o         1 P5B     -0.647800
     25 O3         -0.1900   -3.1950   -2.0840 o         1 P5B     -0.647800
     26 C9         -1.3490   -2.3270   -4.1730 c3        1 P5B     -0.317600
     27 C8         -1.6300   -3.6970   -4.7360 c3        1 P5B     -0.078100
     28 N2         -0.2920   -1.6430   10.0170 n3        1 P5B     -0.729400
     29 C10        -6.5930   -1.2440   -5.4220 c1        1 P5B     -0.100500
     30 C7         -5.6150   -0.5860   -5.2210 c1        1 P5B     -0.182100
     31 C3         -4.4290    0.1940   -4.9490 c3        1 P5B      0.360200
     32 C4         -3.8500    1.5220   -1.4270 c1        1 P5B     -0.039900
     33 C11        -5.0190    1.9270   -1.6820 c1        1 P5B     -0.061900
     34 C6         -6.2250    2.3510   -1.9340 c2        1 P5B     -0.182100
     35 N7         -4.1040    1.1420   -5.9370 n1        1 P5B     -0.856300
     36 C13        -3.8360    1.9400   -6.7660 c1        1 P5B      0.458800
     37 C12        -2.6390    1.1130   -1.1290 ce        1 P5B     -0.133100
     38 HN5        -0.0530   -2.2090   -0.1610 hn        1 P5B      0.345000
     39 H15         0.4510   -1.3540    1.2320 hn        1 P5B      0.345000
     40 H181        2.3920    1.7580    4.7900 ha        1 P5B      0.146000
     41 H182        0.6630    0.7330    2.3740 ha        1 P5B      0.184000
     42 H191        0.9440    3.1260    2.4270 hc        1 P5B      0.088700
     43 H192        2.7570    3.1660    2.5280 hc        1 P5B      0.088700
     44 HN6         1.7520   -0.0610    5.8460 hn        1 P5B      0.319500
     45 H211        0.2830   -3.4760    4.4670 ha        1 P5B      0.192000
     46 H212        1.4990   -1.7350    5.6620 hn        1 P5B      0.319500
     47 H16         1.8830    2.6560    7.1300 hc        1 P5B      0.073033
     48 H17         2.1760    2.8200    8.9180 hc        1 P5B      0.073033
     49 H23        -0.5410   -5.1990   10.0330 ha        1 P5B      0.192000
     50 H24         0.5250    2.3650    8.3070 hc        1 P5B      0.073033
     51 HN1         2.5760   -1.3240    8.3440 ha        1 P5B      0.167500
     52 HN31        1.1880    5.5940    2.6990 hn        1 P5B      0.315000
     53 HN32        1.4090    6.2360    4.2600 hn        1 P5B      0.315000
     54 H11A       -1.1790    2.7420    1.4210 ha        1 P5B      0.002000
     55 H12        -1.1360    2.2370    1.8710 ha        1 P5B      0.002000
     56 HN4         0.9370   -0.2310   -3.0270 hn        1 P5B      0.469800
     57 H5         -2.1520    0.4160   -3.1270 ha        1 P5B      0.131000
     58 H91        -1.2460   -1.6070   -5.0270 h1        1 P5B      0.107200
     59 H92        -2.2490   -1.9890   -3.5940 h1        1 P5B      0.107200
     60 H81        -1.7930   -4.4330   -3.9100 hc        1 P5B      0.057033
     61 H82        -0.7730   -4.0430   -5.3660 hc        1 P5B      0.057033
     62 H83        -2.5460   -3.6760   -5.3730 hc        1 P5B      0.057033
     63 HN21        0.4220   -1.0430    9.6450 hn        1 P5B      0.410800
     64 HN22       -0.4470   -2.4580    9.4510 hn        1 P5B      0.410800
     65 H10        -6.7040    2.2040   -2.9140 ha        1 P5B      0.139000
     66 H7         -3.5490   -0.5160   -4.8330 h1        1 P5B      0.072700
     67 H11        -6.8270    2.8780   -1.1790 ha        1 P5B      0.139000
     68 H6         -7.4590   -1.8330   -5.5940 ha        1 P5B      0.172500
     69 HN7        -4.5680    0.7380   -3.9590 h1        1 P5B      0.072700
     70 H13        -2.2170    1.3080   -0.1210 ha        1 P5B      0.178000
     71 C26        -1.4450   -0.9700   10.2860 c1        1 P5B      0.302600
     72 S1          0.0620   -2.3570   -3.1900 s6        1 P5B      1.456900
@<TRIPOS>BOND
     1    1    2 2   
     2    1    3 1   
     3    1   23 1   
     4    3   38 1   
     5    3   39 1   
     6    4    5 2   
     7    4    7 1   
     8    4   41 1   
     9    5    6 1   
    10    5   40 1   
    11    6   18 1   
    12    6   42 1   
    13    6   43 1   
    14    7    8 2   
    15    7    9 1   
    16    9   44 1   
    17    9   46 1   
    18   10   16 3   
    19   10   45 1   
    20   11   12 1   
    21   11   47 1   
    22   11   48 1   
    23   11   50 1   
    24   12   13 3   
    25   13   51 1   
    26   14   15 3   
    27   14   49 1   
    28   15   16 1   
    29   17   71 3   
    30   18   19 2   
    31   18   20 1   
    32   20   52 1   
    33   20   53 1   
    34   21   23 2   
    35   21   37 1   
    36   21   57 1   
    37   22   23 1   
    38   22   56 1   
    39   22   72 1   
    40   24   72 2   
    41   25   72 2   
    42   26   27 1   
    43   26   58 1   
    44   26   59 1   
    45   26   72 1   
    46   27   60 1   
    47   27   61 1   
    48   27   62 1   
    49   28   63 1   
    50   28   64 1   
    51   28   71 1   
    52   29   30 3   
    53   29   68 1   
    54   30   31 1   
    55   31   35 1   
    56   31   66 1   
    57   31   69 1   
    58   32   33 2   
    59   32   37 2   
    60   33   34 2   
    61   34   65 1   
    62   34   67 1   
    63   35   36 3   
    64   37   70 1   
    65   54   55 1   
@<TRIPOS>SUBSTRUCTURE
     1 P5B         1 TEMP              0 ****  ****    0 ROOT
