@<TRIPOS>MOLECULE
P5B
   72    61     1     0     0
SMALL
bcc


@<TRIPOS>ATOM
      1 C14        -0.1410    1.1300   -1.2470 c1        1 P5B      0.283000
      2 O1          1.0700    1.2710   -1.2460 o         1 P5B     -0.380000
      3 N5         -0.8680    1.1110    0.0100 n2        1 P5B     -0.364000
      4 C15        -0.1590    0.9920    1.2420 c3        1 P5B      0.009000
      5 C18        -0.6460    2.0510    2.2090 c3        1 P5B     -0.165000
      6 C19         0.4940    3.0400    2.5040 c3        1 P5B     -0.182000
      7 C20        -0.4010   -0.3830    1.8330 c2        1 P5B      0.286000
      8 O5         -1.4250   -0.9840    1.5750 o         1 P5B     -0.372000
      9 N6          0.5640   -0.9580    2.7480 n         1 P5B     -0.361000
     10 C21         0.2760   -2.2120    3.4090 c3        1 P5B      0.007000
     11 C16         1.5120   -2.6460    5.4740 c1        1 P5B     -0.124000
     12 C17         2.4560   -3.3230    6.2410 c1        1 P5B     -0.118000
     13 C22         3.4320   -4.0890    5.6210 c1        1 P5B     -0.109000
     14 C23         3.4680   -4.1790    4.2340 c1        1 P5B     -0.117000
     15 C24         2.5250   -3.5030    3.4680 c1        1 P5B     -0.117000
     16 C25         1.5480   -2.7370    4.0880 c1        1 P5B     -0.106000
     17 C26         4.5260   -4.7740    6.4660 c2        1 P5B      0.117000
     18 N1          5.6090   -4.1130    6.7980 n1        1 P5B     -0.304000
     19 C2          0.0830    3.9650    3.6510 c2        1 P5B      0.302000
     20 O2         -1.0800    4.0430    3.9780 o         1 P5B     -0.381000
     21 N3          1.0800    4.6800    4.3850 n         1 P5B     -0.438000
     22 C1         -1.3250    2.4740   -2.9700 c3        1 P5B     -0.100000
     23 N4         -0.0530    0.5180   -3.5690 n3        1 P5B     -0.881000
     24 C5         -0.8970    1.0690   -2.5630 c3        1 P5B      0.041000
     25 S1          0.3180   -1.1220   -3.5500 s4        1 P5B      2.027800
     26 O4          1.0140   -1.4850   -2.3460 o         1 P5B     -0.537900
     27 O3         -0.8740   -1.9270   -3.4370 o         1 P5B     -0.537900
     28 C9          1.2680   -1.5650   -5.0140 c2        1 P5B     -0.862000
     29 C8          2.0550   -2.8550   -4.7430 c3        1 P5B     -0.190000
     30 N2          4.3610   -6.1310    6.8870 n3        1 P5B     -0.333000
     31 C10        -6.1450    2.7590   -5.5530 c1        1 P5B     -0.117000
     32 C7         -5.0280    3.0000   -6.3460 c1        1 P5B     -0.114500
     33 C3         -3.7370    2.8500   -5.8050 c1        1 P5B     -0.046000
     34 C4         -3.5810    2.4660   -4.4930 c1        1 P5B     -0.046000
     35 C11        -4.7130    2.2230   -3.6930 c1        1 P5B     -0.114500
     36 C6         -5.9870    2.3710   -4.2260 c1        1 P5B     -0.117000
     37 N7         -2.4740    3.0210   -6.3550 n1        1 P5B     -0.213000
     38 C13        -1.5460    2.7420   -5.3820 c1        1 P5B     -0.067000
     39 C12        -2.2250    2.3970   -4.2270 c1        1 P5B     -0.168000
     40 HN5        -1.7740    1.2240    0.0140 hn        1 P5B      0.253000
     41 H15         0.7950    1.1140    1.0800 h1        1 P5B      0.130000
     42 H181       -1.3980    2.5310    1.8150 hc        1 P5B      0.115000
     43 H182       -0.9330    1.6240    3.0440 hc        1 P5B      0.115000
     44 H191        1.2960    2.5460    2.7560 hc        1 P5B      0.114000
     45 H192        0.6780    3.5770    1.7000 hc        1 P5B      0.114000
     46 HN6         1.3320   -0.5080    2.9410 hn        1 P5B      0.229000
     47 H211       -0.0360   -2.8670    2.7460 h1        1 P5B      0.112500
     48 H212       -0.4220   -2.0730    4.0850 h1        1 P5B      0.112500
     49 H16         0.8240   -2.1070    5.9100 ha        1 P5B      0.134000
     50 H17         2.4300   -3.2590    7.2110 ha        1 P5B      0.139000
     51 H23         4.1580   -4.7200    3.7950 ha        1 P5B      0.145750
     52 H24         2.5510   -3.5670    2.4900 ha        1 P5B      0.145750
     53 HN1         5.7160   -3.2400    6.5270 DU        1 P5B      0.190667
     54 HN31        1.9480    4.6730    4.1020 hn        1 P5B      0.225000
     55 HN32        0.8480    5.1450    5.1420 hn        1 P5B      0.225000
     56 H11A       -0.5340    3.0100   -3.1690 hc        1 P5B      0.102500
     57 H12        -1.8250    2.8910   -2.2340 hc        1 P5B      0.102500
     58 HN4         0.2670    1.0520   -4.2420 hn        1 P5B      0.258000
     59 H5         -1.6880    0.5050   -2.4580 h1        1 P5B      0.129000
     60 H91         0.6610   -1.7060   -5.7640 ha        1 P5B      0.154000
     61 H92         1.8910   -0.8420   -5.2300 ha        1 P5B      0.154000
     62 H81         2.7290   -2.6870   -4.0500 hc        1 P5B      0.092000
     63 H82         1.4400   -3.5560   -4.4390 hc        1 P5B      0.092000
     64 H83         2.5030   -3.1470   -5.5740 hc        1 P5B      0.092000
     65 HN21        5.0970   -6.6430    7.0850 hn        1 P5B      0.194500
     66 HN22        3.5210   -6.4810    6.9870 hn        1 P5B      0.194500
     67 H10        -7.0390    2.8620   -5.9270 ha        1 P5B      0.145750
     68 H7         -5.1380    3.2710   -7.2730 ha        1 P5B      0.134500
     69 H11        -4.6030    1.9500   -2.7590 ha        1 P5B      0.134500
     70 H6         -6.7770    2.2010   -3.6660 ha        1 P5B      0.145750
     71 HN7        -2.2930    3.2730   -7.2110 DU        1 P5B      0.190667
     72 H13        -0.5810    2.7680   -5.4910 DU        1 P5B      0.190667
@<TRIPOS>BOND
     1    1    2 1   
     2    1   24 1   
     3    3    4 1   
     4    3   40 1   
     5    4    5 1   
     6    4    7 1   
     7    4   41 1   
     8    5    6 1   
     9    5   42 1   
    10    5   43 1   
    11    6   19 1   
    12    6   44 1   
    13    6   45 1   
    14    7    8 1   
    15    7    9 1   
    16    9   10 1   
    17    9   46 1   
    18   10   16 1   
    19   10   47 1   
    20   10   48 1   
    21   11   16 1   
    22   11   49 1   
    23   12   13 1   
    24   12   50 1   
    25   13   17 1   
    26   14   15 1   
    27   14   51 1   
    28   15   52 1   
    29   17   18 1   
    30   17   30 1   
    31   19   20 1   
    32   19   21 1   
    33   21   54 1   
    34   21   55 1   
    35   22   24 1   
    36   22   39 1   
    37   22   56 1   
    38   22   57 1   
    39   23   24 1   
    40   23   25 1   
    41   23   58 1   
    42   24   59 1   
    43   25   26 1   
    44   25   27 1   
    45   28   29 1   
    46   28   60 1   
    47   28   61 1   
    48   29   62 1   
    49   29   63 1   
    50   29   64 1   
    51   30   65 1   
    52   30   66 1   
    53   31   36 1   
    54   31   67 1   
    55   32   33 1   
    56   32   68 1   
    57   34   35 1   
    58   35   69 1   
    59   36   70 1   
    60   37   38 1   
    61   38   39 1   
@<TRIPOS>SUBSTRUCTURE
     1 P5B         1 TEMP              0 ****  ****    0 ROOT
