@<TRIPOS>MOLECULE
P5C
   51    53     1     0     0
SMALL
bcc


@<TRIPOS>ATOM
      1 C2         -0.0410    0.2890    0.0720 ca        1 P5C      0.930900
      2 C3         -0.0620    0.4700    2.3850 ca        1 P5C      0.543200
      3 N1          1.3120    0.2560   -0.0080 nb        1 P5C     -0.784000
      4 C4          1.3640    0.4370    2.4530 ca        1 P5C     -0.567200
      5 C6          2.0560    0.3470    1.1650 ca        1 P5C      0.811200
      6 C8          2.0930    0.4750    3.6790 c         1 P5C      0.596700
      7 C12         4.1530    0.2570   -0.1360 ca        1 P5C      0.071600
      8 C13         3.9760    1.1900   -1.1730 ca        1 P5C     -0.111000
      9 C14         5.7370    0.1050   -2.4310 ca        1 P5C     -0.099000
     10 C15         5.9210   -0.8290   -1.4010 ca        1 P5C     -0.043300
     11 C16         4.7740    1.1020   -2.3120 ca        1 P5C     -0.114000
     12 C17         5.1280   -0.7550   -0.2540 ca        1 P5C     -0.127000
     13 C18         6.9610   -1.8760   -1.5260 c3        1 P5C     -0.069800
     14 O10         3.3040    0.4510    3.8960 o         1 P5C     -0.475100
     15 N9          1.3000    0.5530    4.9800 nz        1 P5C     -0.757400
     16 N11         3.4050    0.3460    1.0760 nu        1 P5C     -0.655300
     17 N5         -0.7740    0.4050    1.2790 nb        1 P5C     -0.760000
     18 N7         -0.7550    0.2950   -1.1500 nu        1 P5C     -0.834900
     19 C19        -2.0520   -0.3580   -1.2300 c3        1 P5C      0.182500
     20 C24        -2.9460    0.3370   -2.3070 c3        1 P5C      0.115500
     21 N25        -3.1070    1.8040   -2.0200 nz        1 P5C     -0.835600
     22 C23        -2.4250    0.1090   -3.7270 c3        1 P5C     -0.105400
     23 C22        -2.3610   -1.3790   -4.0130 c3        1 P5C     -0.084400
     24 C21        -1.5160   -2.1090   -2.9930 c3        1 P5C     -0.097400
     25 C20        -2.0030   -1.8540   -1.5850 c3        1 P5C     -0.108400
     26 H3         -0.6810    0.5580    3.3020 h4        1 P5C      0.019100
     27 H13         3.2280    1.9930   -1.0930 ha        1 P5C      0.139000
     28 H14         6.3660    0.0480   -3.3350 ha        1 P5C      0.161000
     29 H16         4.6440    1.8390   -3.1210 ha        1 P5C      0.153000
     30 H17         5.2800   -1.4900    0.5530 ha        1 P5C      0.147000
     31 H18         6.9720   -2.2990   -2.5620 hc        1 P5C      0.063700
     32 H18A        6.7890   -2.7120   -0.8050 hc        1 P5C      0.063700
     33 H18B        7.9700   -1.4350   -1.3190 hc        1 P5C      0.063700
     34 HN9         1.9620    0.5650    5.7700 hn        1 P5C      0.468800
     35 HN9A        0.7380    1.4070    5.0050 hn        1 P5C      0.468800
     36 HN11        3.9570    0.3250    1.9150 hn        1 P5C      0.486800
     37 HN7        -0.1710    0.0840   -1.9450 hn        1 P5C      0.444800
     38 H19        -2.5850   -0.2640   -0.2350 h1        1 P5C      0.102700
     39 H24        -3.9790   -0.1240   -2.2160 hx        1 P5C      0.122700
     40 HN25       -2.2210    2.2940   -2.1860 hn        1 P5C      0.463133
     41 HN2A       -3.8240    2.2000   -2.6370 hn        1 P5C      0.463133
     42 H23        -1.4080    0.5640   -3.8560 hc        1 P5C      0.073200
     43 H23A       -3.1120    0.5930   -4.4730 hc        1 P5C      0.073200
     44 H22        -1.9280   -1.5290   -5.0390 hc        1 P5C      0.081700
     45 H22A       -3.3990   -1.8070   -4.0250 hc        1 P5C      0.081700
     46 H21        -0.4410   -1.8070   -3.0980 hc        1 P5C      0.073700
     47 H21A       -1.5630   -3.2130   -3.2000 hc        1 P5C      0.073700
     48 H20        -1.3400   -2.3840   -0.8510 hc        1 P5C      0.079700
     49 H20A       -3.0380   -2.2720   -1.4600 hc        1 P5C      0.079700
     50 H93         0.6860   -0.2600    5.0730 hn        1 P5C      0.468800
     51 H253       -3.3830    1.9410   -1.0430 hn        1 P5C      0.463133
@<TRIPOS>BOND
     1    1    3 ar  
     2    1   17 ar  
     3    1   18 1   
     4    2    4 ar  
     5    2   17 ar  
     6    2   26 1   
     7    3    5 ar  
     8    4    5 ar  
     9    4    6 1   
    10    5   16 1   
    11    6   14 2   
    12    6   15 1   
    13    7    8 ar  
    14    7   12 ar  
    15    7   16 1   
    16    8   11 ar  
    17    8   27 1   
    18    9   10 ar  
    19    9   11 ar  
    20    9   28 1   
    21   10   12 ar  
    22   10   13 1   
    23   11   29 1   
    24   12   30 1   
    25   13   31 1   
    26   13   32 1   
    27   13   33 1   
    28   15   34 1   
    29   15   35 1   
    30   15   50 1   
    31   16   36 1   
    32   18   19 1   
    33   18   37 1   
    34   19   20 1   
    35   19   25 1   
    36   19   38 1   
    37   20   21 1   
    38   20   22 1   
    39   20   39 1   
    40   21   40 1   
    41   21   41 1   
    42   21   51 1   
    43   22   23 1   
    44   22   42 1   
    45   22   43 1   
    46   23   24 1   
    47   23   44 1   
    48   23   45 1   
    49   24   25 1   
    50   24   46 1   
    51   24   47 1   
    52   25   48 1   
    53   25   49 1   
@<TRIPOS>SUBSTRUCTURE
     1 P5C         1 TEMP              0 ****  ****    0 ROOT
