@<TRIPOS>MOLECULE
P5C
   53    55     1     0     0
SMALL
bcc


@<TRIPOS>ATOM
      1 C2         -0.0460    0.3440   -0.4390 ca        1 P5C      0.818900
      2 C3          0.3230    1.3230    1.6210 ca        1 P5C      0.536200
      3 N1          1.0750   -0.4420   -0.3740 nb        1 P5C     -0.665000
      4 C4          1.5060    0.5580    1.8100 ca        1 P5C     -0.347200
      5 C6          1.8520   -0.3390    0.7460 ca        1 P5C      0.663200
      6 C8          2.2840    0.6080    3.0670 c         1 P5C      0.564700
      7 C12         4.3060   -0.5100    0.4390 ca        1 P5C     -0.119400
      8 C13         5.3080   -0.3980    1.4220 ca        1 P5C     -0.119000
      9 C14         6.7920    0.5180   -0.2620 ca        1 P5C     -0.031000
     10 C15         5.7850    0.4130   -1.2410 ca        1 P5C     -0.008300
     11 C16         6.5490    0.1180    1.0520 ca        1 P5C     -0.080000
     12 C17         4.5340   -0.1010   -0.8900 ca        1 P5C     -0.123000
     13 C18         6.0730    0.8160   -2.6360 c3        1 P5C     -0.091800
     14 O10         2.9970   -0.3010    3.4740 o         1 P5C     -0.365100
     15 N9          2.2250    1.8210    3.9380 n4        1 P5C     -0.741400
     16 N11         3.0560   -1.2120    0.7820 n4        1 P5C     -0.628100
     17 N5         -0.4530    1.2350    0.5260 nb        1 P5C     -0.624000
     18 N7         -0.8790    0.2470   -1.6870 n4        1 P5C     -0.765700
     19 C19        -2.3050   -0.2260   -1.4200 c3        1 P5C      0.121500
     20 C24        -3.2310   -0.1860   -2.6710 c3        1 P5C      0.085500
     21 N25        -3.6550    1.1710   -3.1440 n4        1 P5C     -0.854600
     22 C23        -2.6750   -1.0560   -3.8060 c3        1 P5C     -0.116400
     23 C22        -2.5930   -2.4940   -3.3270 c3        1 P5C     -0.104400
     24 C21        -1.8210   -2.6450   -2.0360 c3        1 P5C     -0.113400
     25 C20        -2.2920   -1.6960   -0.9550 c3        1 P5C     -0.110400
     26 H3         -0.0620    2.0470    2.3780 h4        1 P5C      0.103100
     27 H13         5.1580   -0.7510    2.4570 ha        1 P5C      0.164000
     28 H14         7.7900    0.9090   -0.5470 ha        1 P5C      0.211000
     29 H16         7.3580    0.1840    1.8070 ha        1 P5C      0.207000
     30 H17         3.7620   -0.2120   -1.6670 ha        1 P5C      0.146000
     31 H18         5.1540    0.8140   -3.2700 hc        1 P5C      0.089367
     32 H18A        6.8160    0.1070   -3.0920 hc        1 P5C      0.089367
     33 H18B        6.5260    1.8420   -2.6640 hc        1 P5C      0.089367
     34 HN9         1.3010    1.9130    4.3880 hn        1 P5C      0.509467
     35 HN9A        2.4350    2.6790    3.4080 hn        1 P5C      0.509467
     36 HN11        3.1430   -1.6210    1.7340 hn        1 P5C      0.508300
     37 HN7        -0.8790    1.1790   -2.1230 hn        1 P5C      0.493300
     38 H19        -2.7260    0.4360   -0.6030 hx        1 P5C      0.138700
     39 H24        -4.2000   -0.6840   -2.3090 hx        1 P5C      0.177700
     40 HN25       -4.4360    1.0480   -3.8180 hn        1 P5C      0.483800
     41 HN2A       -2.9050    1.6650   -3.6380 hn        1 P5C      0.483800
     42 H23        -1.6770   -0.6840   -4.1530 hc        1 P5C      0.093200
     43 H23A       -3.3630   -1.0270   -4.7000 hc        1 P5C      0.093200
     44 H22        -3.6310   -2.9100   -3.2010 hc        1 P5C      0.121200
     45 H22A       -2.1040   -3.1140   -4.1330 hc        1 P5C      0.121200
     46 H21        -0.7220   -2.5230   -2.2230 hc        1 P5C      0.088200
     47 H21A       -1.9590   -3.7030   -1.6630 hc        1 P5C      0.088200
     48 H20        -3.3440   -1.9620   -0.6430 hc        1 P5C      0.107200
     49 H20A       -1.6550   -1.7990   -0.0370 hc        1 P5C      0.107200
     50 H93         2.9330    1.7260    4.7000 hn        1 P5C      0.509467
     51 H112        2.9470   -1.9920    0.1010 hn        1 P5C      0.508300
     52 H72        -0.4350   -0.4330   -2.3380 hn        1 P5C      0.493300
     53 H253       -4.0000    1.7510   -2.3680 hn        1 P5C      0.483800
@<TRIPOS>BOND
     1    1    3 ar  
     2    1   17 ar  
     3    1   18 1   
     4    2    4 ar  
     5    2   17 ar  
     6    2   26 1   
     7    3    5 ar  
     8    4    5 ar  
     9    4    6 1   
    10    5   16 1   
    11    6   14 2   
    12    6   15 1   
    13    7    8 ar  
    14    7   12 ar  
    15    7   16 1   
    16    8   11 ar  
    17    8   27 1   
    18    9   10 ar  
    19    9   11 ar  
    20    9   28 1   
    21   10   12 ar  
    22   10   13 1   
    23   11   29 1   
    24   12   30 1   
    25   13   31 1   
    26   13   32 1   
    27   13   33 1   
    28   15   34 1   
    29   15   35 1   
    30   15   50 1   
    31   16   36 1   
    32   16   51 1   
    33   18   19 1   
    34   18   37 1   
    35   18   52 1   
    36   19   20 1   
    37   19   25 1   
    38   19   38 1   
    39   20   21 1   
    40   20   22 1   
    41   20   39 1   
    42   21   40 1   
    43   21   41 1   
    44   21   53 1   
    45   22   23 1   
    46   22   42 1   
    47   22   43 1   
    48   23   24 1   
    49   23   44 1   
    50   23   45 1   
    51   24   25 1   
    52   24   46 1   
    53   24   47 1   
    54   25   48 1   
    55   25   49 1   
@<TRIPOS>SUBSTRUCTURE
     1 P5C         1 TEMP              0 ****  ****    0 ROOT
