@<TRIPOS>MOLECULE
P5C
   49    45     1     0     0
SMALL
bcc


@<TRIPOS>ATOM
      1 C2         -1.0640    0.3610    0.3850 c1        1 P5C      0.601600
      2 C3         -1.0830    0.3730    2.7260 c1        1 P5C      0.431300
      3 N1          0.2990    0.3490    0.3880 n1        1 P5C     -0.615800
      4 C4          0.2820    0.3610    2.7300 cg        1 P5C     -0.321200
      5 C6          0.9680    0.3490    1.5500 c1        1 P5C      0.306800
      6 C8          1.0350    0.3800    4.0430 c         1 P5C      0.653300
      7 C12         3.1630   -0.5880    0.9560 c1        1 P5C      0.117800
      8 C13         2.6230   -1.8520    0.7810 c1        1 P5C     -0.062000
      9 C14         4.7110   -2.6190   -0.1210 c1        1 P5C     -0.086500
     10 C15         5.2510   -1.3550    0.0540 c1        1 P5C     -0.028100
     11 C16         3.3970   -2.8680    0.2420 c1        1 P5C     -0.062000
     12 C17         4.4770   -0.3390    0.5930 c1        1 P5C     -0.104500
     13 C18         6.6890   -1.0850   -0.3360 c3        1 P5C     -0.089000
     14 O10         2.2500    0.3700    4.0470 o         1 P5C     -0.647100
     15 N9          0.3230    0.4330    5.2690 n         1 P5C     -0.671000
     16 N11         2.3850    0.4390    1.5530 n3        1 P5C     -0.568400
     17 N5         -1.7490    0.3730    1.5620 n1        1 P5C     -0.578800
     18 N7         -1.7700    0.3680   -0.8460 n3        1 P5C     -0.659800
     19 C19        -3.2030    0.3280   -0.8500 c3        1 P5C      0.209500
     20 C24        -3.7300    1.6530   -1.3740 c3        1 P5C      0.146500
     21 N25        -3.1160    2.7210   -0.6360 n3        1 P5C     -0.920800
     22 C23        -3.4410    1.8490   -2.8490 c3        1 P5C     -0.081400
     23 C22        -3.8950    0.6710   -3.6890 c3        1 P5C     -0.080400
     24 C21        -3.3690   -0.6530   -3.1660 c3        1 P5C     -0.082400
     25 C20        -3.6580   -0.8490   -1.6910 c3        1 P5C     -0.081400
     26 H3         -1.5730    0.3820    3.5690 ha        1 P5C      0.100500
     27 H13         1.6970   -2.0280    1.0370 ha        1 P5C      0.083000
     28 H14         5.2570   -3.3350   -0.5000 ha        1 P5C      0.073500
     29 H16         3.0170   -3.7590    0.1190 ha        1 P5C      0.083000
     30 H17         4.8580    0.5510    0.7160 ha        1 P5C      0.081500
     31 H18         7.0530   -1.8680   -0.8000 hc        1 P5C      0.045033
     32 H18A        6.7250   -0.3070   -0.9300 hc        1 P5C      0.045033
     33 H18B        7.2180   -0.9070    0.4700 hc        1 P5C      0.045033
     34 HN9         0.7740    0.5520    6.0550 hn        1 P5C      0.311500
     35 HN9A       -0.5850    0.3280    5.2750 hn        1 P5C      0.311500
     36 HN11        2.7960    1.1450    1.9580 hn        1 P5C      0.470800
     37 HN7        -1.3130    0.4050   -1.6340 hn        1 P5C      0.424800
     38 H19        -3.5190    0.2030    0.0670 h1        1 P5C      0.084700
     39 H24        -4.6970    1.6870   -1.2340 h1        1 P5C      0.016700
     40 HN25       -3.6660    2.9710    0.0520 hn        1 P5C      0.358800
     41 HN2A       -2.9770    3.4350   -1.1910 hn        1 P5C      0.358800
     42 H23        -3.9020    2.6540   -3.1570 hc        1 P5C      0.049200
     43 H23A       -2.4780    1.9700   -2.9690 hc        1 P5C      0.049200
     44 H22        -3.5790    0.7970   -4.6060 hc        1 P5C      0.043200
     45 H22A       -4.8730    0.6440   -3.6920 hc        1 P5C      0.043200
     46 H21        -3.7870   -1.3800   -3.6690 hc        1 P5C      0.044200
     47 H21A       -2.4020   -0.6860   -3.3050 hc        1 P5C      0.044200
     48 H20        -4.6210   -0.9700   -1.5710 hc        1 P5C      0.053700
     49 H20A       -3.1970   -1.6550   -1.3830 hc        1 P5C      0.053700
@<TRIPOS>BOND
     1    1    3 3   
     2    1   18 1   
     3    2   17 3   
     4    2   26 1   
     5    4    5 3   
     6    4    6 1   
     7    5   16 1   
     8    6   14 2   
     9    6   15 1   
    10    7   12 3   
    11    7   16 1   
    12    8   11 3   
    13    8   27 1   
    14    9   10 3   
    15    9   28 1   
    16   10   13 1   
    17   11   29 1   
    18   12   30 1   
    19   13   31 1   
    20   13   32 1   
    21   13   33 1   
    22   15   34 1   
    23   15   35 1   
    24   16   36 1   
    25   18   19 1   
    26   18   37 1   
    27   19   20 1   
    28   19   25 1   
    29   19   38 1   
    30   20   21 1   
    31   20   22 1   
    32   20   39 1   
    33   21   40 1   
    34   21   41 1   
    35   22   23 1   
    36   22   42 1   
    37   22   43 1   
    38   23   24 1   
    39   23   44 1   
    40   23   45 1   
    41   24   25 1   
    42   24   46 1   
    43   24   47 1   
    44   25   48 1   
    45   25   49 1   
@<TRIPOS>SUBSTRUCTURE
     1 P5C         1 TEMP              0 ****  ****    0 ROOT
