@<TRIPOS>MOLECULE
P5C
   49    51     1     0     0
SMALL
bcc


@<TRIPOS>ATOM
      1 C2          1.1270    0.7340    0.0730 ca        1 P5C      0.941900
      2 C3          0.3290    2.8890   -0.2100 ca        1 P5C      0.519200
      3 N1         -0.1440    0.1900    0.1940 nb        1 P5C     -0.828000
      4 C4         -1.0070    2.4580   -0.1030 ca        1 P5C     -0.515200
      5 C6         -1.2080    1.0420    0.1030 ca        1 P5C      0.776200
      6 C8         -2.1270    3.4060   -0.2370 c         1 P5C      0.705700
      7 C12        -2.8280   -0.8150    0.3640 ca        1 P5C      0.143600
      8 C13        -2.2130   -1.6630    1.3070 ca        1 P5C     -0.120000
      9 C14        -3.6350   -3.4940    0.6020 ca        1 P5C     -0.143000
     10 C15        -4.2620   -2.6620   -0.3310 ca        1 P5C     -0.062300
     11 C16        -2.6190   -2.9910    1.4110 ca        1 P5C     -0.118000
     12 C17        -3.8580   -1.3310   -0.4540 ca        1 P5C     -0.163000
     13 C18        -5.3570   -3.1830   -1.1830 c3        1 P5C     -0.053800
     14 O10        -3.2090    3.1170   -0.8010 o         1 P5C     -0.649100
     15 N9         -1.9660    4.6770    0.2660 n         1 P5C     -0.672000
     16 N11        -2.4990    0.5560    0.2690 nh        1 P5C     -0.731300
     17 N5          1.3950    2.0950   -0.1290 nb        1 P5C     -0.794000
     18 N7          2.1790   -0.1620    0.1270 nh        1 P5C     -0.836900
     19 C19         3.5660    0.2430    0.1470 c3        1 P5C      0.245500
     20 C24         4.4800   -0.8260    0.8370 c3        1 P5C      0.157500
     21 N25         4.0180   -1.1330    2.1790 n3        1 P5C     -0.922800
     22 C23         4.5910   -2.0900   -0.0280 c3        1 P5C     -0.076400
     23 C22         5.1290   -1.7550   -1.4020 c3        1 P5C     -0.079400
     24 C21         4.2740   -0.7150   -2.0940 c3        1 P5C     -0.079400
     25 C20         4.1400    0.5320   -1.2500 c3        1 P5C     -0.090400
     26 H3          0.5650    3.9560   -0.3940 h4        1 P5C      0.021100
     27 H13        -1.4140   -1.2900    1.9640 ha        1 P5C      0.150000
     28 H14        -3.9460   -4.5450    0.6960 ha        1 P5C      0.131000
     29 H16        -2.1300   -3.6480    2.1460 ha        1 P5C      0.131000
     30 H17        -4.3560   -0.6870   -1.1950 ha        1 P5C      0.139000
     31 H18        -6.3460   -2.9720   -0.7030 hc        1 P5C      0.044700
     32 H18A       -5.3460   -2.6960   -2.1900 hc        1 P5C      0.044700
     33 H18B       -5.2640   -4.2880   -1.3240 hc        1 P5C      0.044700
     34 HN9        -1.1800    4.9140    0.8120 hn        1 P5C      0.311000
     35 HN9A       -2.7180    5.3170    0.2050 hn        1 P5C      0.311000
     36 HN11       -3.2250    1.1410   -0.1040 hn        1 P5C      0.470800
     37 HN7         1.9750   -1.1120    0.3520 hn        1 P5C      0.463800
     38 H19         3.6590    1.1990    0.7490 h1        1 P5C      0.063700
     39 H24         5.5100   -0.3470    0.8550 h1        1 P5C      0.020700
     40 HN25        4.6100   -1.8180    2.6040 hn        1 P5C      0.356800
     41 HN2A        3.9980   -0.3070    2.7410 hn        1 P5C      0.356800
     42 H23         5.2790   -2.8230    0.4690 hc        1 P5C      0.047700
     43 H23A        3.5900   -2.5860   -0.1220 hc        1 P5C      0.047700
     44 H22         6.1810   -1.3750   -1.3120 hc        1 P5C      0.041700
     45 H22A        5.1620   -2.6880   -2.0220 hc        1 P5C      0.041700
     46 H21         4.7350   -0.4480   -3.0810 hc        1 P5C      0.047200
     47 H21A        3.2580   -1.1420   -2.3040 hc        1 P5C      0.047200
     48 H20         3.4910    1.2780   -1.7780 hc        1 P5C      0.056200
     49 H20A        5.1490    1.0030   -1.1090 hc        1 P5C      0.056200
@<TRIPOS>BOND
     1    1    3 ar  
     2    1   17 ar  
     3    1   18 1   
     4    2    4 ar  
     5    2   17 ar  
     6    2   26 1   
     7    3    5 ar  
     8    4    5 ar  
     9    4    6 1   
    10    5   16 1   
    11    6   14 2   
    12    6   15 1   
    13    7    8 ar  
    14    7   12 ar  
    15    7   16 1   
    16    8   11 ar  
    17    8   27 1   
    18    9   10 ar  
    19    9   11 ar  
    20    9   28 1   
    21   10   12 ar  
    22   10   13 1   
    23   11   29 1   
    24   12   30 1   
    25   13   31 1   
    26   13   32 1   
    27   13   33 1   
    28   15   34 1   
    29   15   35 1   
    30   16   36 1   
    31   18   19 1   
    32   18   37 1   
    33   19   20 1   
    34   19   25 1   
    35   19   38 1   
    36   20   21 1   
    37   20   22 1   
    38   20   39 1   
    39   21   40 1   
    40   21   41 1   
    41   22   23 1   
    42   22   42 1   
    43   22   43 1   
    44   23   24 1   
    45   23   44 1   
    46   23   45 1   
    47   24   25 1   
    48   24   46 1   
    49   24   47 1   
    50   25   48 1   
    51   25   49 1   
@<TRIPOS>SUBSTRUCTURE
     1 P5C         1 TEMP              0 ****  ****    0 ROOT
