@<TRIPOS>MOLECULE
P5C
   51    53     1     0     0
SMALL
bcc


@<TRIPOS>ATOM
      1 C2         -0.0460    0.2830    0.0710 ca        1 P5C      0.930900
      2 C3         -0.0780    0.4430    2.3860 ca        1 P5C      0.543200
      3 N1          1.3080    0.2560   -0.0040 nb        1 P5C     -0.784000
      4 C4          1.3480    0.4140    2.4590 ca        1 P5C     -0.567200
      5 C6          2.0460    0.3380    1.1740 ca        1 P5C      0.811200
      6 C8          2.0710    0.4430    3.6890 c         1 P5C      0.596700
      7 C12         4.1490    0.2680   -0.1190 ca        1 P5C      0.071600
      8 C13         3.9730    1.2110   -1.1470 ca        1 P5C     -0.111000
      9 C14         5.7440    0.1440   -2.4080 ca        1 P5C     -0.099000
     10 C15         5.9270   -0.7990   -1.3860 ca        1 P5C     -0.043300
     11 C16         4.7760    1.1360   -2.2840 ca        1 P5C     -0.114000
     12 C17         5.1280   -0.7390   -0.2410 ca        1 P5C     -0.127000
     13 C18         6.9710   -1.8410   -1.5160 c3        1 P5C     -0.069800
     14 O10         3.2810    0.4220    3.9110 o         1 P5C     -0.475100
     15 N9          1.2720    0.5060    4.9870 n4        1 P5C     -0.757400
     16 N11         3.3960    0.3430    1.0910 nh        1 P5C     -0.655300
     17 N5         -0.7850    0.3860    1.2760 nb        1 P5C     -0.760000
     18 N7         -0.7540    0.2970   -1.1540 nh        1 P5C     -0.834900
     19 C19        -2.0500   -0.3580   -1.2450 c3        1 P5C      0.182500
     20 C24        -2.9400    0.3410   -2.3220 c3        1 P5C      0.115500
     21 N25        -3.1050    1.8070   -2.0270 n4        1 P5C     -0.835600
     22 C23        -2.4100    0.1230   -3.7420 c3        1 P5C     -0.105400
     23 C22        -2.3410   -1.3630   -4.0360 c3        1 P5C     -0.084400
     24 C21        -1.5000   -2.0980   -3.0160 c3        1 P5C     -0.097400
     25 C20        -1.9950   -1.8520   -1.6090 c3        1 P5C     -0.108400
     26 H3         -0.7010    0.5200    3.3000 h4        1 P5C      0.019100
     27 H13         3.2220    2.0090   -1.0640 ha        1 P5C      0.139000
     28 H14         6.3770    0.0980   -3.3090 ha        1 P5C      0.161000
     29 H16         4.6470    1.8800   -3.0870 ha        1 P5C      0.153000
     30 H17         5.2800   -1.4810    0.5590 ha        1 P5C      0.147000
     31 H18         6.7960   -2.6880   -0.8080 hc        1 P5C      0.063700
     32 H18A        7.9770   -1.4000   -1.2940 hc        1 P5C      0.063700
     33 H18B        6.9940   -2.2490   -2.5570 hc        1 P5C      0.063700
     34 HN9         0.7080    1.3590    5.0170 hn        1 P5C      0.468800
     35 HN9A        0.6600   -0.3090    5.0690 hn        1 P5C      0.468800
     36 HN11        3.9430    0.3170    1.9320 hn        1 P5C      0.486800
     37 HN7        -0.1670    0.0940   -1.9480 hn        1 P5C      0.444800
     38 H19        -2.5880   -0.2720   -0.2530 h1        1 P5C      0.102700
     39 H24        -3.9710   -0.1230   -2.2400 hx        1 P5C      0.122700
     40 HN25       -3.3860    1.9360   -1.0510 hn        1 P5C      0.463133
     41 HN2A       -2.2190    2.2990   -2.1860 hn        1 P5C      0.463133
     42 H23        -1.3930    0.5820   -3.8620 hc        1 P5C      0.073200
     43 H23A       -3.0940    0.6110   -4.4880 hc        1 P5C      0.073200
     44 H22        -3.3780   -1.7930   -4.0560 hc        1 P5C      0.081700
     45 H22A       -1.9030   -1.5060   -5.0610 hc        1 P5C      0.081700
     46 H21        -0.4250   -1.7920   -3.1140 hc        1 P5C      0.073700
     47 H21A       -1.5440   -3.2000   -3.2300 hc        1 P5C      0.073700
     48 H20        -1.3350   -2.3860   -0.8750 hc        1 P5C      0.079700
     49 H20A       -3.0300   -2.2730   -1.4930 hc        1 P5C      0.079700
     50 H93         1.9310    0.5120    5.7800 hn        1 P5C      0.468800
     51 H253       -3.8190    2.2050   -2.6460 hn        1 P5C      0.463133
@<TRIPOS>BOND
     1    1    3 ar  
     2    1   17 ar  
     3    1   18 1   
     4    2    4 ar  
     5    2   17 ar  
     6    2   26 1   
     7    3    5 ar  
     8    4    5 ar  
     9    4    6 1   
    10    5   16 1   
    11    6   14 2   
    12    6   15 1   
    13    7    8 ar  
    14    7   12 ar  
    15    7   16 1   
    16    8   11 ar  
    17    8   27 1   
    18    9   10 ar  
    19    9   11 ar  
    20    9   28 1   
    21   10   12 ar  
    22   10   13 1   
    23   11   29 1   
    24   12   30 1   
    25   13   31 1   
    26   13   32 1   
    27   13   33 1   
    28   15   34 1   
    29   15   35 1   
    30   15   50 1   
    31   16   36 1   
    32   18   19 1   
    33   18   37 1   
    34   19   20 1   
    35   19   25 1   
    36   19   38 1   
    37   20   21 1   
    38   20   22 1   
    39   20   39 1   
    40   21   40 1   
    41   21   41 1   
    42   21   51 1   
    43   22   23 1   
    44   22   42 1   
    45   22   43 1   
    46   23   24 1   
    47   23   44 1   
    48   23   45 1   
    49   24   25 1   
    50   24   46 1   
    51   24   47 1   
    52   25   48 1   
    53   25   49 1   
@<TRIPOS>SUBSTRUCTURE
     1 P5C         1 TEMP              0 ****  ****    0 ROOT
