@<TRIPOS>MOLECULE
P5D
   37    37     1     0     0
SMALL
bcc


@<TRIPOS>ATOM
      1 C1         -2.6820    0.8550   -0.3200 c3        1 P5D     -0.055100
      2 N1         -1.4390    2.1160    1.4760 n3        1 P5D     -0.871800
      3 C2         -1.4610    0.9730    0.6020 c3        1 P5D     -0.101700
      4 P3         -0.0520    0.9550   -0.3790 p5        1 P5D      1.527100
      5 C4          1.2230    1.0000    0.6060 c3        1 P5D     -0.503600
      6 C5          2.5420    0.7590   -0.1140 c3        1 P5D     -0.127700
      7 C6          3.2390    2.0740   -0.5590 c         1 P5D      0.899600
      8 C7          3.5040   -0.0380    0.7530 c3        1 P5D     -0.162400
      9 C8          3.0380   -1.4350    1.1730 c         1 P5D      0.900600
     10 CG         -3.4650   -0.3920   -0.0920 ca        1 P5D     -0.057300
     11 CZ         -4.9430   -2.7400    0.2980 ca        1 P5D     -0.154000
     12 O31        -0.1320    2.4220   -1.0590 oh        1 P5D     -0.840400
     13 O32        -0.2440   -0.0480   -1.4330 o         1 P5D     -0.892300
     14 O61         4.4040    2.0160   -1.0400 o         1 P5D     -0.867800
     15 O62         2.6150    3.1840   -0.4660 o         1 P5D     -0.867800
     16 O81         1.9920   -1.5700    1.8890 o         1 P5D     -0.877800
     17 O82         3.7480   -2.4350    0.8510 o         1 P5D     -0.877800
     18 CD1        -2.9970   -1.6140   -0.5990 ca        1 P5D     -0.123500
     19 CD2        -4.6770   -0.3600    0.6070 ca        1 P5D     -0.123500
     20 CE1        -3.7340   -2.7790   -0.4000 ca        1 P5D     -0.143500
     21 CE2        -5.4130   -1.5280    0.8000 ca        1 P5D     -0.143500
     22 H1         -3.3690    1.7380   -0.1940 hc        1 P5D      0.057200
     23 H1A        -2.3270    0.8630   -1.3910 hc        1 P5D      0.057200
     24 HN1        -1.3110    2.9470    0.9260 hn        1 P5D      0.336800
     25 HN1A       -2.2950    2.1980    1.9900 hn        1 P5D      0.336800
     26 H2         -1.4380    0.0600    1.2680 h1        1 P5D      0.105700
     27 H4          1.3300    1.9850    1.1410 hc        1 P5D      0.148200
     28 H4A         1.1600    0.2290    1.4370 hc        1 P5D      0.148200
     29 H5          2.3290    0.1660   -1.0480 hc        1 P5D      0.047700
     30 H7          4.4710   -0.1360    0.1930 hc        1 P5D      0.036200
     31 H7A         3.7050    0.5430    1.6900 hc        1 P5D      0.036200
     32 HZ         -5.5180   -3.6620    0.4560 ha        1 P5D      0.106000
     33 HO31        0.6980    2.9200   -1.0690 ho        1 P5D      0.505000
     34 HD1        -2.0350   -1.6400   -1.1500 ha        1 P5D      0.158000
     35 HD2        -5.0490    0.5930    1.0100 ha        1 P5D      0.158000
     36 HE1        -3.3540   -3.7350   -0.7880 ha        1 P5D      0.114500
     37 HE2        -6.3610   -1.4930    1.3540 ha        1 P5D      0.114500
@<TRIPOS>BOND
     1    1    3 1   
     2    1   10 1   
     3    1   22 1   
     4    1   23 1   
     5    2    3 1   
     6    2   24 1   
     7    2   25 1   
     8    3    4 1   
     9    3   26 1   
    10    4    5 1   
    11    4   12 1   
    12    4   13 2   
    13    5    6 1   
    14    5   27 1   
    15    5   28 1   
    16    6    7 1   
    17    6    8 1   
    18    6   29 1   
    19    7   14 1   
    20    7   15 1   
    21    8    9 1   
    22    8   30 1   
    23    8   31 1   
    24    9   16 1   
    25    9   17 1   
    26   10   18 ar  
    27   10   19 ar  
    28   11   20 ar  
    29   11   21 ar  
    30   11   32 1   
    31   12   33 1   
    32   18   20 ar  
    33   18   34 1   
    34   19   21 ar  
    35   19   35 1   
    36   20   36 1   
    37   21   37 1   
@<TRIPOS>SUBSTRUCTURE
     1 P5D         1 TEMP              0 ****  ****    0 ROOT
