@<TRIPOS>MOLECULE
P5D
   37    35     1     0     0
SMALL
bcc


@<TRIPOS>ATOM
      1 C1         -2.0010   -0.4100   -0.7880 c3        1 P5D     -0.142000
      2 N1         -0.0080   -1.6210   -1.4460 n3        1 P5D     -0.342000
      3 C2         -0.4870   -0.4340   -0.7650 c3        1 P5D     -0.699000
      4 P3          0.0690   -0.4510    0.9280 p5        1 P5D      2.833000
      5 C4          1.9380   -0.6880    0.9690 c3        1 P5D     -0.985000
      6 C5          2.4700   -0.4370    2.4090 c3        1 P5D     -0.111000
      7 C6          2.5690   -1.7290    3.1440 c2        1 P5D      0.318000
      8 C7          3.8470    0.2100    2.3280 c3        1 P5D     -0.192000
      9 C8          4.4480    0.3250    3.7290 c2        1 P5D      0.316000
     10 CG         -2.4950    0.5640   -1.8800 c2        1 P5D     -0.042000
     11 CZ         -3.6890    2.1750   -3.8670 c1        1 P5D     -0.154500
     12 O31        -0.6370   -1.6360    1.7010 oh        1 P5D     -0.860000
     13 O32        -0.2820    0.8540    1.5830 o         1 P5D     -1.168000
     14 O61         1.9610   -1.8760    4.2400 o         1 P5D     -0.598000
     15 O62         3.1780   -2.6950    2.6330 o         1 P5D     -0.598000
     16 O81         4.2780    1.3780    4.3980 o         1 P5D     -0.608500
     17 O82         5.1870   -0.6030    4.1830 o         1 P5D     -0.608500
     18 CD1        -3.2690    1.6950   -1.5130 c2        1 P5D     -0.116000
     19 CD2        -2.3210    0.2430   -3.2280 c1        1 P5D     -0.141000
     20 CE1        -3.8620    2.4950   -2.5020 c1        1 P5D     -0.142000
     21 CE2        -2.9200    1.0520   -4.2340 c1        1 P5D     -0.154500
     22 H1         -2.3530   -1.3370   -0.9830 hc        1 P5D      0.100000
     23 H1A        -2.3430   -0.1000    0.1240 hc        1 P5D      0.100000
     24 HN1        -0.7240   -2.1580   -1.6710 hn        1 P5D      0.161500
     25 HN1A        0.4420   -1.3740   -2.2120 hn        1 P5D      0.161500
     26 H2         -0.1390    0.3610   -1.2120 h1        1 P5D      0.115000
     27 H4          2.1650   -1.6360    0.6820 hc        1 P5D      0.189000
     28 H4A         2.3730   -0.0340    0.3370 hc        1 P5D      0.189000
     29 H5          1.8680    0.1480    2.8740 hc        1 P5D      0.074000
     30 H7          4.4330   -0.3420    1.7620 hc        1 P5D      0.075000
     31 H7A         3.7630    1.1150    1.9320 hc        1 P5D      0.075000
     32 HZ         -4.1060    2.7390   -4.5630 ha        1 P5D      0.105500
     33 HO31       -1.0810   -1.3110    2.4010 ho        1 P5D      0.306000
     34 HD1        -3.3920    1.9180   -0.5610 ha        1 P5D      0.197000
     35 HD2        -1.7670   -0.5680   -3.4880 ha        1 P5D      0.121000
     36 HE1        -4.3250    3.3370   -2.2430 ha        1 P5D      0.118000
     37 HE2        -2.7890    0.8320   -5.1990 ha        1 P5D      0.105500
@<TRIPOS>BOND
     1    1    3 1   
     2    1   10 1   
     3    1   22 1   
     4    1   23 1   
     5    2    3 1   
     6    2   24 1   
     7    2   25 1   
     8    3    4 1   
     9    3   26 1   
    10    4    5 1   
    11    4   12 1   
    12    4   13 1   
    13    5    6 1   
    14    5   27 1   
    15    5   28 1   
    16    6    7 1   
    17    6    8 1   
    18    6   29 1   
    19    7   14 1   
    20    7   15 1   
    21    8    9 1   
    22    8   30 1   
    23    8   31 1   
    24    9   16 1   
    25    9   17 1   
    26   10   18 1   
    27   10   19 1   
    28   11   21 1   
    29   11   32 1   
    30   12   33 1   
    31   18   20 1   
    32   18   34 1   
    33   19   35 1   
    34   20   36 1   
    35   21   37 1   
@<TRIPOS>SUBSTRUCTURE
     1 P5D         1 TEMP              0 ****  ****    0 ROOT
