@<TRIPOS>MOLECULE
P5K
   60    63     1     0     0
SMALL
bcc


@<TRIPOS>ATOM
      1 C1         -2.3800    1.4940    0.1630 cc        1 P5K     -0.109000
      2 C2         -1.4510    0.4240    0.3240 cc        1 P5K     -0.256600
      3 C3         -0.1230    0.8760    0.1950 cd        1 P5K      0.081500
      4 S4         -0.0870    2.5290   -0.1600 ss        1 P5K      0.166200
      5 C5         -1.7540    2.6910   -0.1090 cd        1 P5K     -0.164400
      6 C6         -2.4330    3.9970   -0.3300 c3        1 P5K      0.024300
      7 C7         -3.2320    4.3810    0.9120 c3        1 P5K     -0.088767
      8 C8         -1.3980    5.0820   -0.6090 c3        1 P5K     -0.088767
      9 C9         -3.3800    3.8950   -1.5220 c3        1 P5K     -0.088767
     10 N10         0.9850    0.0540    0.3130 n         1 P5K     -0.435100
     11 C11        -1.7870   -0.9630    0.6790 c         1 P5K      0.720700
     12 O12        -1.0930   -1.5970    1.5090 o         1 P5K     -0.635100
     13 N13        -2.8500   -1.6200    0.0650 n         1 P5K     -0.481800
     14 C14         2.2930    0.5930    0.3060 c         1 P5K      0.767100
     15 N15         3.3480   -0.2630    0.6510 n         1 P5K     -0.457100
     16 O16         2.4620    1.7980    0.0000 o         1 P5K     -0.620100
     17 C17         4.7010    0.0640    0.4200 ca        1 P5K      0.060600
     18 C18         5.1760    1.3490    0.6540 ca        1 P5K     -0.130000
     19 C19         6.5450    1.6510    0.4990 ca        1 P5K     -0.109000
     20 C20         7.4390    0.6820    0.1270 ca        1 P5K     -0.132000
     21 C21         6.9930   -0.6420   -0.1310 ca        1 P5K     -0.023000
     22 C22         5.6170   -0.9690   -0.0070 ca        1 P5K     -0.050000
     23 C23        -3.3370   -2.8730    0.5970 c3        1 P5K      0.121500
     24 C24        -3.6190   -1.0910   -1.0300 c3        1 P5K      0.121500
     25 C25         7.9210   -1.6470   -0.5260 ca        1 P5K     -0.114000
     26 C26         7.5010   -2.9230   -0.8010 ca        1 P5K     -0.126000
     27 C27         6.1280   -3.2480   -0.7010 ca        1 P5K     -0.122000
     28 C28         5.2130   -2.2980   -0.3160 ca        1 P5K     -0.128000
     29 C29        -4.7900   -2.7980    1.0700 c3        1 P5K     -0.348100
     30 C30        -5.0890   -0.8540   -0.6800 c3        1 P5K     -0.348100
     31 S31        -5.9050   -2.2350   -0.0900 s6        1 P5K      1.328000
     32 O32        -7.0700   -1.8180    0.5670 o         1 P5K     -0.649800
     33 O33        -6.0430   -3.1750   -1.1180 o         1 P5K     -0.649800
     34 H1         -3.4610    1.3670    0.2700 ha        1 P5K      0.151000
     35 H7         -2.5550    4.4870    1.7930 hc        1 P5K      0.039922
     36 H7A        -3.7560    5.3520    0.7430 hc        1 P5K      0.039922
     37 H7B        -3.9930    3.5960    1.1390 hc        1 P5K      0.039922
     38 H8         -0.8080    4.8340   -1.5250 hc        1 P5K      0.039922
     39 H8A        -1.9080    6.0620   -0.7710 hc        1 P5K      0.039922
     40 H8B        -0.6970    5.1860    0.2550 hc        1 P5K      0.039922
     41 H9         -4.1430    3.1010   -1.3410 hc        1 P5K      0.039922
     42 H9A        -3.9030    4.8690   -1.6760 hc        1 P5K      0.039922
     43 H9B        -2.8120    3.6420   -2.4490 hc        1 P5K      0.039922
     44 HN10        0.8130   -0.8440    0.7240 hn        1 P5K      0.349500
     45 HN15        3.1510   -1.2290    0.7930 hn        1 P5K      0.323500
     46 H18         4.4880    2.1590    0.9520 ha        1 P5K      0.166000
     47 H19         6.8800    2.6830    0.6900 ha        1 P5K      0.138000
     48 H20         8.5100    0.9090    0.0160 ha        1 P5K      0.136000
     49 H23        -3.2670   -3.6570   -0.2140 h1        1 P5K      0.077700
     50 H23A       -2.6840   -3.1980    1.4560 h1        1 P5K      0.077700
     51 H24        -3.1610   -0.1360   -1.4090 h1        1 P5K      0.077700
     52 H24A       -3.5830   -1.8430   -1.8760 h1        1 P5K      0.077700
     53 H25         8.9840   -1.3730   -0.6060 ha        1 P5K      0.136000
     54 H26         8.2170   -3.7000   -1.1050 ha        1 P5K      0.136000
     55 H27         5.8020   -4.2710   -0.9390 ha        1 P5K      0.134000
     56 H28         4.1530   -2.5880   -0.2690 ha        1 P5K      0.121000
     57 H29        -5.0700   -3.8370    1.3980 h1        1 P5K      0.125450
     58 H29A       -4.8340   -2.1750    2.0040 h1        1 P5K      0.125450
     59 H30        -5.1650   -0.0040    0.0490 h1        1 P5K      0.125450
     60 H30A       -5.5880   -0.4860   -1.6170 h1        1 P5K      0.125450
@<TRIPOS>BOND
     1    1    2 1   
     2    1    5 2   
     3    1   34 1   
     4    2    3 2   
     5    2   11 1   
     6    3    4 1   
     7    3   10 1   
     8    4    5 1   
     9    5    6 1   
    10    6    7 1   
    11    6    8 1   
    12    6    9 1   
    13    7   35 1   
    14    7   36 1   
    15    7   37 1   
    16    8   38 1   
    17    8   39 1   
    18    8   40 1   
    19    9   41 1   
    20    9   42 1   
    21    9   43 1   
    22   10   14 1   
    23   10   44 1   
    24   11   12 2   
    25   11   13 1   
    26   13   23 1   
    27   13   24 1   
    28   14   15 1   
    29   14   16 2   
    30   15   17 1   
    31   15   45 1   
    32   17   18 ar  
    33   17   22 ar  
    34   18   19 ar  
    35   18   46 1   
    36   19   20 ar  
    37   19   47 1   
    38   20   21 ar  
    39   20   48 1   
    40   21   22 ar  
    41   21   25 ar  
    42   22   28 ar  
    43   23   29 1   
    44   23   49 1   
    45   23   50 1   
    46   24   30 1   
    47   24   51 1   
    48   24   52 1   
    49   25   26 ar  
    50   25   53 1   
    51   26   27 ar  
    52   26   54 1   
    53   27   28 ar  
    54   27   55 1   
    55   28   56 1   
    56   29   31 1   
    57   29   57 1   
    58   29   58 1   
    59   30   31 1   
    60   30   59 1   
    61   30   60 1   
    62   31   32 2   
    63   31   33 2   
@<TRIPOS>SUBSTRUCTURE
     1 P5K         1 TEMP              0 ****  ****    0 ROOT
