@<TRIPOS>MOLECULE
P5K
   60    63     1     0     0
SMALL
bcc


@<TRIPOS>ATOM
      1 C1         -0.0240    0.2120   -0.0010 cc        1 P5K     -0.109000
      2 C2          1.4000    0.2540    0.0690 cc        1 P5K     -0.256600
      3 C3          1.8500    0.1300    1.3980 cd        1 P5K      0.081500
      4 S4          0.5420    0.0270    2.4650 ss        1 P5K      0.166200
      5 C5         -0.6030    0.0950    1.2440 cd        1 P5K     -0.164400
      6 C6         -2.0640    0.0240    1.5190 c3        1 P5K      0.024300
      7 C7         -2.6640   -1.1920    0.8210 c3        1 P5K     -0.088767
      8 C8         -2.3060   -0.0960    3.0210 c3        1 P5K     -0.088767
      9 C9         -2.7510    1.2860    1.0060 c3        1 P5K     -0.088767
     10 N10         3.1870    0.1290    1.7610 ns        1 P5K     -0.435100
     11 C11         2.3180    0.3150   -1.0780 c         1 P5K      0.720700
     12 O12         3.3610   -0.3800   -1.1000 o         1 P5K     -0.635100
     13 N13         2.0750    1.1800   -2.1420 n         1 P5K     -0.481800
     14 C14         3.5770   -0.1340    3.0960 c         1 P5K      0.767100
     15 N15         4.9410   -0.3380    3.3440 ns        1 P5K     -0.457100
     16 O16         2.7030   -0.1770    3.9950 o         1 P5K     -0.620100
     17 C17         5.4880   -0.3330    4.6440 ca        1 P5K      0.060600
     18 C18         4.8240   -0.9440    5.7020 ca        1 P5K     -0.130000
     19 C19         5.4120   -1.0070    6.9820 ca        1 P5K     -0.109000
     20 C20         6.6550   -0.4780    7.2100 ca        1 P5K     -0.132000
     21 C21         7.3630    0.1640    6.1580 ca        1 P5K     -0.023000
     22 C22         6.7860    0.2640    4.8650 ca        1 P5K     -0.050000
     23 C23         2.8240    1.0510   -3.3730 c3        1 P5K      0.121500
     24 C24         1.0250    2.1640   -2.1760 c3        1 P5K      0.121500
     25 C25         8.6510    0.7200    6.3970 ca        1 P5K     -0.114000
     26 C26         9.3350    1.3640    5.3980 ca        1 P5K     -0.126000
     27 C27         8.7550    1.4850    4.1140 ca        1 P5K     -0.122000
     28 C28         7.5150    0.9520    3.8560 ca        1 P5K     -0.128000
     29 C29         1.9420    0.7170   -4.5760 c3        1 P5K     -0.348100
     30 C30        -0.0100    1.9060   -3.2710 c3        1 P5K     -0.348100
     31 S31         0.6420    1.7860   -4.8460 s6        1 P5K      1.328000
     32 O32        -0.2990    1.1580   -5.6720 o         1 P5K     -0.649800
     33 O33         1.1270    3.0360   -5.2510 o         1 P5K     -0.649800
     34 H1         -0.5760    0.2480   -0.9440 ha        1 P5K      0.151000
     35 H7         -3.7630   -1.2380    1.0120 hc        1 P5K      0.039922
     36 H7A        -2.4930   -1.1280   -0.2800 hc        1 P5K      0.039922
     37 H7B        -2.1940   -2.1300    1.2010 hc        1 P5K      0.039922
     38 H8         -3.4020   -0.1530    3.2260 hc        1 P5K      0.039922
     39 H8A        -1.8220   -1.0200    3.4220 hc        1 P5K      0.039922
     40 H8B        -1.8910    0.7920    3.5560 hc        1 P5K      0.039922
     41 H9         -2.5820    1.3970   -0.0920 hc        1 P5K      0.039922
     42 H9A        -2.3470    2.1880    1.5240 hc        1 P5K      0.039922
     43 H9B        -3.8500    1.2240    1.1950 hc        1 P5K      0.039922
     44 HN10        3.8370   -0.0110    1.0110 hn        1 P5K      0.349500
     45 HN15        5.5860   -0.1980    2.5990 hn        1 P5K      0.323500
     46 H18         3.8200   -1.3800    5.5610 ha        1 P5K      0.166000
     47 H19         4.8510   -1.4970    7.7930 ha        1 P5K      0.138000
     48 H20         7.1230   -0.5350    8.2040 ha        1 P5K      0.136000
     49 H23         3.6080    0.2500   -3.2540 h1        1 P5K      0.077700
     50 H23A        3.3490    2.0300   -3.5760 h1        1 P5K      0.077700
     51 H24         1.5000    3.1720   -2.3800 h1        1 P5K      0.077700
     52 H24A        0.5130    2.2290   -1.1770 h1        1 P5K      0.077700
     53 H25         9.0830    0.6230    7.4050 ha        1 P5K      0.136000
     54 H26        10.3310    1.7940    5.5810 ha        1 P5K      0.136000
     55 H27         9.3080    2.0170    3.3260 ha        1 P5K      0.134000
     56 H28         7.0930    1.0850    2.8490 ha        1 P5K      0.121000
     57 H29         2.6200    0.7050   -5.4730 h1        1 P5K      0.125450
     58 H29A        1.5760   -0.3410   -4.4740 h1        1 P5K      0.125450
     59 H30        -0.6030    0.9890   -3.0140 h1        1 P5K      0.125450
     60 H30A       -0.7450    2.7560   -3.2250 h1        1 P5K      0.125450
@<TRIPOS>BOND
     1    1    2 1   
     2    1    5 2   
     3    1   34 1   
     4    2    3 2   
     5    2   11 1   
     6    3    4 1   
     7    3   10 1   
     8    4    5 1   
     9    5    6 1   
    10    6    7 1   
    11    6    8 1   
    12    6    9 1   
    13    7   35 1   
    14    7   36 1   
    15    7   37 1   
    16    8   38 1   
    17    8   39 1   
    18    8   40 1   
    19    9   41 1   
    20    9   42 1   
    21    9   43 1   
    22   10   14 1   
    23   10   44 1   
    24   11   12 2   
    25   11   13 1   
    26   13   23 1   
    27   13   24 1   
    28   14   15 1   
    29   14   16 2   
    30   15   17 1   
    31   15   45 1   
    32   17   18 ar  
    33   17   22 ar  
    34   18   19 ar  
    35   18   46 1   
    36   19   20 ar  
    37   19   47 1   
    38   20   21 ar  
    39   20   48 1   
    40   21   22 ar  
    41   21   25 ar  
    42   22   28 ar  
    43   23   29 1   
    44   23   49 1   
    45   23   50 1   
    46   24   30 1   
    47   24   51 1   
    48   24   52 1   
    49   25   26 ar  
    50   25   53 1   
    51   26   27 ar  
    52   26   54 1   
    53   27   28 ar  
    54   27   55 1   
    55   28   56 1   
    56   29   31 1   
    57   29   57 1   
    58   29   58 1   
    59   30   31 1   
    60   30   59 1   
    61   30   60 1   
    62   31   32 2   
    63   31   33 2   
@<TRIPOS>SUBSTRUCTURE
     1 P5K         1 TEMP              0 ****  ****    0 ROOT
