@<TRIPOS>MOLECULE
P5K
   60    55     1     0     0
SMALL
bcc


@<TRIPOS>ATOM
      1 C1         -2.3040    0.4840   -1.4310 c1        1 P5K     -0.171500
      2 C2         -0.7150    0.5770   -1.3900 c1        1 P5K     -0.171500
      3 C3         -0.2840    0.4150   -0.0140 c1        1 P5K     -0.298000
      4 S4         -1.5500    0.2170    0.8620 ss        1 P5K      0.698000
      5 C5         -2.7840    0.2690   -0.0780 c1        1 P5K     -0.298000
      6 C6         -4.2330    0.2090    0.3520 c2        1 P5K      0.018000
      7 C7         -4.8620   -1.0660   -0.1690 c3        1 P5K     -0.207000
      8 C8         -4.3120    0.2290    1.8620 c3        1 P5K     -0.207000
      9 C9         -4.9740    1.4000   -0.2070 c3        1 P5K     -0.207000
     10 N10         1.0550    0.5020    0.4590 n2        1 P5K     -0.301000
     11 C11         0.1960    0.7860   -2.5890 c1        1 P5K      0.381000
     12 O12         1.4010    0.8400   -2.4350 o         1 P5K     -0.392000
     13 N13        -0.3590    0.8830   -3.8970 n3        1 P5K     -0.317000
     14 C14         1.4660   -0.2740    1.5790 c2        1 P5K      0.403000
     15 N15         2.7890   -0.1460    2.0850 n         1 P5K     -0.319000
     16 O16         0.6730   -1.0110    2.1310 o         1 P5K     -0.382000
     17 C17         3.1830   -0.8810    3.2370 c2        1 P5K      0.074000
     18 C18         2.8010   -2.2140    3.3060 c2        1 P5K     -0.135000
     19 C19         3.2910   -3.0270    4.3230 c1        1 P5K     -0.108000
     20 C20         4.1630   -2.5060    5.2710 c1        1 P5K     -0.124500
     21 C21         4.5520   -1.1550    5.2020 c1        1 P5K     -0.022000
     22 C22         4.0680   -0.3510    4.1970 c1        1 P5K     -0.051000
     23 C23         0.5070    1.0560   -5.1260 c3        1 P5K     -0.006000
     24 C24        -1.8490    0.8210   -4.1420 c3        1 P5K     -0.006000
     25 C25         5.4490   -0.6300    6.1520 c1        1 P5K     -0.124500
     26 C26         5.8450    0.6990    6.0730 c1        1 P5K     -0.124000
     27 C27         5.3550    1.5130    5.0560 c1        1 P5K     -0.124000
     28 C28         4.4700    0.9960    4.1190 c1        1 P5K     -0.128000
     29 C29         0.2470    0.0360   -6.2250 c3        1 P5K     -0.897000
     30 C30        -2.2710   -0.2100   -5.1700 c3        1 P5K     -0.897000
     31 S31        -1.3980    0.0080   -6.5890 s6        1 P5K      2.812000
     32 O32        -1.6880   -1.0430   -7.5250 o         1 P5K     -0.929500
     33 O33        -1.7640    1.2710   -7.1680 o         1 P5K     -0.929500
     34 H1         -2.8590    0.5590   -2.2270 DU        1 P5K      0.160000
     35 H7         -5.7130   -1.2220    0.2910 hc        1 P5K      0.079222
     36 H7A        -5.0210   -0.9820   -1.1330 hc        1 P5K      0.079222
     37 H7B        -4.2580   -1.8200   -0.0020 hc        1 P5K      0.079222
     38 H8         -3.9780    1.0890    2.1950 hc        1 P5K      0.079222
     39 H8A        -5.2430    0.1100    2.1430 hc        1 P5K      0.079222
     40 H8B        -3.7650   -0.4970    2.2280 hc        1 P5K      0.079222
     41 H9         -5.1030    1.2810   -1.1720 hc        1 P5K      0.079222
     42 H9A        -4.4530    2.2140   -0.0450 hc        1 P5K      0.079222
     43 H9B        -5.8460    1.4770    0.2320 hc        1 P5K      0.079222
     44 HN10        1.6410    1.0780    0.0630 hn        1 P5K      0.268000
     45 HN15        3.3860    0.4030    1.6680 hn        1 P5K      0.240000
     46 H18         2.1880   -2.5800    2.6400 ha        1 P5K      0.166000
     47 H19         3.0220   -3.9650    4.3710 ha        1 P5K      0.138000
     48 H20         4.5070   -3.0780    5.9850 ha        1 P5K      0.136000
     49 H23         0.3520    1.9500   -5.4900 h1        1 P5K      0.118250
     50 H23A        1.4440    0.9880   -4.8560 h1        1 P5K      0.118250
     51 H24        -2.2900    0.6150   -3.3020 h1        1 P5K      0.118250
     52 H24A       -2.1500    1.7020   -4.4440 h1        1 P5K      0.118250
     53 H25         5.7930   -1.2010    6.8650 ha        1 P5K      0.136000
     54 H26         6.4680    1.0630    6.7320 ha        1 P5K      0.135500
     55 H27         5.6340    2.4460    5.0020 ha        1 P5K      0.135500
     56 H28         4.1260    1.5670    3.4050 ha        1 P5K      0.122000
     57 H29         0.5360   -0.8910   -6.1050 h1        1 P5K      0.166250
     58 H29A        0.8050    0.3040   -6.9830 h1        1 P5K      0.166250
     59 H30        -2.1510   -1.1310   -4.8630 h1        1 P5K      0.166250
     60 H30A       -3.2390   -0.1780   -5.3100 h1        1 P5K      0.166250
@<TRIPOS>BOND
     1    1    2 1   
     2    1    5 1   
     3    2    3 1   
     4    3    4 1   
     5    4    5 1   
     6    6    7 1   
     7    6    8 1   
     8    6    9 1   
     9    7   35 1   
    10    7   36 1   
    11    7   37 1   
    12    8   38 1   
    13    8   39 1   
    14    8   40 1   
    15    9   41 1   
    16    9   42 1   
    17    9   43 1   
    18   10   14 1   
    19   10   44 1   
    20   11   12 1   
    21   11   13 1   
    22   13   23 1   
    23   13   24 1   
    24   14   15 1   
    25   14   16 1   
    26   15   17 1   
    27   15   45 1   
    28   17   18 1   
    29   17   22 1   
    30   18   19 1   
    31   18   46 1   
    32   19   47 1   
    33   20   21 1   
    34   20   48 1   
    35   21   25 1   
    36   22   28 1   
    37   23   29 1   
    38   23   49 1   
    39   23   50 1   
    40   24   30 1   
    41   24   51 1   
    42   24   52 1   
    43   25   53 1   
    44   26   27 1   
    45   26   54 1   
    46   27   55 1   
    47   28   56 1   
    48   29   31 1   
    49   29   57 1   
    50   29   58 1   
    51   30   31 1   
    52   30   59 1   
    53   30   60 1   
    54   31   32 1   
    55   31   33 1   
@<TRIPOS>SUBSTRUCTURE
     1 P5K         1 TEMP              0 ****  ****    0 ROOT
