@<TRIPOS>MOLECULE
P5K
   60    63     1     0     0
SMALL
bcc


@<TRIPOS>ATOM
      1 C1         -0.0250    0.2160    0.0000 cc        1 P5K     -0.109000
      2 C2          1.3990    0.2540    0.0700 cc        1 P5K     -0.256600
      3 C3          1.8490    0.1300    1.3990 cd        1 P5K      0.081500
      4 S4          0.5410    0.0310    2.4670 ss        1 P5K      0.166200
      5 C5         -0.6050    0.1020    1.2460 cd        1 P5K     -0.164400
      6 C6         -2.0660    0.0350    1.5220 c3        1 P5K      0.024300
      7 C7         -2.6690   -1.1810    0.8270 c3        1 P5K     -0.088767
      8 C8         -2.3070   -0.0810    3.0240 c3        1 P5K     -0.088767
      9 C9         -2.7500    1.2980    1.0060 c3        1 P5K     -0.088767
     10 N10         3.1860    0.1240    1.7610 n         1 P5K     -0.436100
     11 C11         2.3160    0.3100   -1.0780 c         1 P5K      0.720700
     12 O12         3.3570   -0.3870   -1.1000 o         1 P5K     -0.635100
     13 N13         2.0760    1.1760   -2.1420 n         1 P5K     -0.481800
     14 C14         3.5760   -0.1360    3.0960 c         1 P5K      0.767100
     15 N15         4.9390   -0.3440    3.3430 n         1 P5K     -0.457100
     16 O16         2.7030   -0.1760    3.9960 o         1 P5K     -0.620100
     17 C17         5.4880   -0.3370    4.6440 ca        1 P5K      0.060600
     18 C18         4.8230   -0.9450    5.7020 ca        1 P5K     -0.130000
     19 C19         5.4110   -1.0070    6.9830 ca        1 P5K     -0.109000
     20 C20         6.6560   -0.4800    7.2090 ca        1 P5K     -0.132000
     21 C21         7.3640    0.1580    6.1550 ca        1 P5K     -0.023000
     22 C22         6.7870    0.2570    4.8630 ca        1 P5K     -0.050000
     23 C23         2.8230    1.0430   -3.3730 c3        1 P5K      0.121500
     24 C24         1.0290    2.1630   -2.1760 c3        1 P5K      0.121500
     25 C25         8.6530    0.7130    6.3930 ca        1 P5K     -0.114000
     26 C26         9.3380    1.3530    5.3920 ca        1 P5K     -0.126000
     27 C27         8.7570    1.4730    4.1080 ca        1 P5K     -0.122000
     28 C28         7.5170    0.9420    3.8510 ca        1 P5K     -0.128000
     29 C29         1.9400    0.7110   -4.5760 c3        1 P5K     -0.348100
     30 C30        -0.0080    1.9080   -3.2710 c3        1 P5K     -0.348100
     31 S31         0.6430    1.7840   -4.8460 s6        1 P5K      1.328000
     32 O32        -0.3000    1.1580   -5.6710 o         1 P5K     -0.649800
     33 O33         1.1310    3.0320   -5.2520 o         1 P5K     -0.649800
     34 H1         -0.5780    0.2520   -0.9420 ha        1 P5K      0.151000
     35 H7         -2.2020   -2.1190    1.2090 hc        1 P5K      0.039922
     36 H7A        -3.7680   -1.2230    1.0180 hc        1 P5K      0.039922
     37 H7B        -2.4980   -1.1200   -0.2750 hc        1 P5K      0.039922
     38 H8         -3.4030   -0.1350    3.2300 hc        1 P5K      0.039922
     39 H8A        -1.8250   -1.0050    3.4270 hc        1 P5K      0.039922
     40 H8B        -1.8890    0.8070    3.5580 hc        1 P5K      0.039922
     41 H9         -2.5810    1.4060   -0.0920 hc        1 P5K      0.039922
     42 H9A        -3.8480    1.2400    1.1970 hc        1 P5K      0.039922
     43 H9B        -2.3430    2.2000    1.5220 hc        1 P5K      0.039922
     44 HN10        3.8350   -0.0170    1.0110 hn        1 P5K      0.349500
     45 HN15        5.5850   -0.2070    2.5980 hn        1 P5K      0.323500
     46 H18         3.8180   -1.3790    5.5630 ha        1 P5K      0.166000
     47 H19         4.8500   -1.4940    7.7950 ha        1 P5K      0.138000
     48 H20         7.1250   -0.5360    8.2030 ha        1 P5K      0.136000
     49 H23         3.6060    0.2400   -3.2540 h1        1 P5K      0.077700
     50 H23A        3.3520    2.0210   -3.5770 h1        1 P5K      0.077700
     51 H24         1.5060    3.1690   -2.3810 h1        1 P5K      0.077700
     52 H24A        0.5170    2.2300   -1.1770 h1        1 P5K      0.077700
     53 H25         9.0860    0.6160    7.4000 ha        1 P5K      0.136000
     54 H26        10.3350    1.7810    5.5730 ha        1 P5K      0.136000
     55 H27         9.3110    2.0020    3.3180 ha        1 P5K      0.134000
     56 H28         7.0940    1.0740    2.8450 ha        1 P5K      0.121000
     57 H29         2.6180    0.6970   -5.4730 h1        1 P5K      0.125450
     58 H29A        1.5710   -0.3450   -4.4730 h1        1 P5K      0.125450
     59 H30        -0.6040    0.9920   -3.0130 h1        1 P5K      0.125450
     60 H30A       -0.7400    2.7590   -3.2250 h1        1 P5K      0.125450
@<TRIPOS>BOND
     1    1    2 1   
     2    1    5 2   
     3    1   34 1   
     4    2    3 2   
     5    2   11 1   
     6    3    4 1   
     7    3   10 1   
     8    4    5 1   
     9    5    6 1   
    10    6    7 1   
    11    6    8 1   
    12    6    9 1   
    13    7   35 1   
    14    7   36 1   
    15    7   37 1   
    16    8   38 1   
    17    8   39 1   
    18    8   40 1   
    19    9   41 1   
    20    9   42 1   
    21    9   43 1   
    22   10   14 1   
    23   10   44 1   
    24   11   12 2   
    25   11   13 1   
    26   13   23 1   
    27   13   24 1   
    28   14   15 1   
    29   14   16 2   
    30   15   17 1   
    31   15   45 1   
    32   17   18 ar  
    33   17   22 ar  
    34   18   19 ar  
    35   18   46 1   
    36   19   20 ar  
    37   19   47 1   
    38   20   21 ar  
    39   20   48 1   
    40   21   22 ar  
    41   21   25 ar  
    42   22   28 ar  
    43   23   29 1   
    44   23   49 1   
    45   23   50 1   
    46   24   30 1   
    47   24   51 1   
    48   24   52 1   
    49   25   26 ar  
    50   25   53 1   
    51   26   27 ar  
    52   26   54 1   
    53   27   28 ar  
    54   27   55 1   
    55   28   56 1   
    56   29   31 1   
    57   29   57 1   
    58   29   58 1   
    59   30   31 1   
    60   30   59 1   
    61   30   60 1   
    62   31   32 2   
    63   31   33 2   
@<TRIPOS>SUBSTRUCTURE
     1 P5K         1 TEMP              0 ****  ****    0 ROOT
