@<TRIPOS>MOLECULE
P5K
   62    65     1     0     0
SMALL
bcc


@<TRIPOS>ATOM
      1 C1          0.1240    0.5600    0.5880 cc        1 P5K     -0.128000
      2 C2          1.3490    1.2390    0.6980 cc        1 P5K     -0.097600
      3 C3          1.4930    1.8240    1.9880 cd        1 P5K     -0.257500
      4 S4          0.1120    1.5720    2.9150 ss        1 P5K      0.306200
      5 C5         -0.6440    0.6830    1.7540 cd        1 P5K     -0.032400
      6 C6         -2.0030    0.1050    1.9710 c3        1 P5K     -0.008700
      7 C7         -1.9470   -1.4120    1.8220 c3        1 P5K     -0.100767
      8 C8         -2.4800    0.4640    3.3750 c3        1 P5K     -0.100767
      9 C9         -2.9720    0.6810    0.9420 c3        1 P5K     -0.100767
     10 N10         2.6400    2.5890    2.3810 n4        1 P5K     -0.448200
     11 C11         2.4360    1.3090   -0.3140 c         1 P5K      0.689700
     12 O12         3.6230    1.2890    0.1500 o         1 P5K     -0.771100
     13 N13         2.2130    1.4510   -1.6430 n         1 P5K     -0.393800
     14 C14         3.5840    1.8020    3.2710 c         1 P5K      0.469100
     15 N15         4.3570    0.6900    2.6350 n4        1 P5K     -0.458200
     16 O16         3.6620    2.1140    4.4460 o         1 P5K     -0.305100
     17 C17         5.0270   -0.1720    3.6060 ca        1 P5K     -0.106400
     18 C18         4.3560   -1.3050    4.0710 ca        1 P5K     -0.042000
     19 C19         5.0060   -2.1870    4.9430 ca        1 P5K     -0.145000
     20 C20         6.3000   -1.9310    5.3600 ca        1 P5K      0.008000
     21 C21         6.9930   -0.7790    4.9150 ca        1 P5K     -0.051000
     22 C22         6.3610    0.1410    4.0280 ca        1 P5K      0.015000
     23 C23         3.3120    1.3230   -2.6000 c3        1 P5K      0.105500
     24 C24         0.9100    1.6500   -2.2580 c3        1 P5K      0.105500
     25 C25         8.3260   -0.5260    5.3470 ca        1 P5K     -0.067000
     26 C26         9.0020    0.5910    4.9210 ca        1 P5K     -0.110000
     27 C27         8.3730    1.5060    4.0450 ca        1 P5K     -0.028000
     28 C28         7.0840    1.2880    3.6090 ca        1 P5K     -0.200000
     29 C29         3.0800    0.2120   -3.6100 c3        1 P5K     -0.345600
     30 C30         0.5270    0.5270   -3.2040 c3        1 P5K     -0.345600
     31 S31         1.6270    0.3220   -4.5220 s6        1 P5K      1.340000
     32 O32         1.3740   -0.9040   -5.1170 o         1 P5K     -0.610800
     33 O33         1.6450    1.5010   -5.2590 o         1 P5K     -0.610800
     34 H1         -0.1980   -0.0080   -0.2950 ha        1 P5K      0.206000
     35 H7         -2.9720   -1.8350    1.9680 hc        1 P5K      0.060478
     36 H7A        -1.2680   -1.8600    2.5850 hc        1 P5K      0.060478
     37 H7B        -1.5900   -1.6920    0.8030 hc        1 P5K      0.060478
     38 H8         -2.5250    1.5730    3.5090 hc        1 P5K      0.060478
     39 H8A        -1.8070    0.0200    4.1490 hc        1 P5K      0.060478
     40 H8B        -3.5090    0.0560    3.5370 hc        1 P5K      0.060478
     41 H9         -2.6270    0.4470   -0.0930 hc        1 P5K      0.060478
     42 H9A        -3.0610    1.7880    1.0570 hc        1 P5K      0.060478
     43 H9B        -3.9830    0.2270    1.0920 hc        1 P5K      0.060478
     44 HN10        3.1530    2.8810    1.5210 hn        1 P5K      0.500300
     45 HN15        5.0640    1.1100    1.9960 hn        1 P5K      0.507300
     46 H18         3.3250   -1.5400    3.7570 ha        1 P5K      0.148000
     47 H19         4.4730   -3.0880    5.2930 ha        1 P5K      0.184000
     48 H20         6.8090   -2.6270    6.0520 ha        1 P5K      0.183000
     49 H23         3.4020    2.3100   -3.1450 h1        1 P5K      0.093450
     50 H23A        4.2750    1.1370   -2.0450 h1        1 P5K      0.093450
     51 H24         0.1180    1.7910   -1.4740 h1        1 P5K      0.093450
     52 H24A        0.9710    2.6150   -2.8530 h1        1 P5K      0.093450
     53 H25         8.8050   -1.2490    6.0310 ha        1 P5K      0.174000
     54 H26        10.0370    0.7870    5.2540 ha        1 P5K      0.180000
     55 H27         8.9300    2.4000    3.7140 ha        1 P5K      0.169000
     56 H28         6.6340    2.0310    2.9360 ha        1 P5K      0.106000
     57 H29         3.1580   -0.7880   -3.1050 h1        1 P5K      0.135700
     58 H29A        3.9630    0.2410   -4.3140 h1        1 P5K      0.135700
     59 H30        -0.4930    0.7780   -3.6120 h1        1 P5K      0.135700
     60 H30A        0.3890   -0.4350   -2.6460 h1        1 P5K      0.135700
     61 H102        2.3440    3.4300    2.9100 hn        1 P5K      0.500300
     62 H152        3.7140    0.1340    2.0350 hn        1 P5K      0.507300
@<TRIPOS>BOND
     1    1    2 1   
     2    1    5 2   
     3    1   34 1   
     4    2    3 2   
     5    2   11 1   
     6    3    4 1   
     7    3   10 1   
     8    4    5 1   
     9    5    6 1   
    10    6    7 1   
    11    6    8 1   
    12    6    9 1   
    13    7   35 1   
    14    7   36 1   
    15    7   37 1   
    16    8   38 1   
    17    8   39 1   
    18    8   40 1   
    19    9   41 1   
    20    9   42 1   
    21    9   43 1   
    22   10   14 1   
    23   10   44 1   
    24   10   61 1   
    25   11   12 2   
    26   11   13 1   
    27   13   23 1   
    28   13   24 1   
    29   14   15 1   
    30   14   16 2   
    31   15   17 1   
    32   15   45 1   
    33   15   62 1   
    34   17   18 ar  
    35   17   22 ar  
    36   18   19 ar  
    37   18   46 1   
    38   19   20 ar  
    39   19   47 1   
    40   20   21 ar  
    41   20   48 1   
    42   21   22 ar  
    43   21   25 ar  
    44   22   28 ar  
    45   23   29 1   
    46   23   49 1   
    47   23   50 1   
    48   24   30 1   
    49   24   51 1   
    50   24   52 1   
    51   25   26 ar  
    52   25   53 1   
    53   26   27 ar  
    54   26   54 1   
    55   27   28 ar  
    56   27   55 1   
    57   28   56 1   
    58   29   31 1   
    59   29   57 1   
    60   29   58 1   
    61   30   31 1   
    62   30   59 1   
    63   30   60 1   
    64   31   32 2   
    65   31   33 2   
@<TRIPOS>SUBSTRUCTURE
     1 P5K         1 TEMP              0 ****  ****    0 ROOT
