@<TRIPOS>MOLECULE
P5M
   36    38     1     0     0
SMALL
bcc


@<TRIPOS>ATOM
      1 O30         0.0880    0.7530   -0.2030 oh        1 P5M     -0.222000
      2 C2          1.3030    0.1440   -0.2180 ca        1 P5M      0.211000
      3 C3          2.0330    0.2000    1.0180 ca        1 P5M     -0.189000
      4 C9          1.5480    0.8140    2.1800 c2        1 P5M      0.102000
      5 C10         2.3560    0.8110    3.3260 c2        1 P5M     -0.066000
      6 O27         1.8740    1.4800    4.4270 oh        1 P5M     -0.225000
      7 C1          1.8250   -0.4970   -1.3310 ca        1 P5M     -0.270000
      8 C6          3.1020   -1.1060   -1.2480 ca        1 P5M      0.240000
      9 O29         3.5380   -1.7100   -2.3810 oh        1 P5M     -0.199000
     10 C5          3.8590   -1.0790   -0.0630 ca        1 P5M     -0.285000
     11 C4          3.3110   -0.4250    1.0400 ca        1 P5M      0.166000
     12 O12         4.0890   -0.4120    2.1800 os        1 P5M     -0.058000
     13 C11         3.6300    0.2170    3.3050 c2        1 P5M      0.213000
     14 C14         4.5660    0.1430    4.4060 ca        1 P5M     -0.116000
     15 C15         5.4350   -0.9560    4.5030 ca        1 P5M     -0.088000
     16 C16         6.3350   -1.0380    5.5710 ca        1 P5M      0.078000
     17 O22         7.1430   -2.1420    5.6190 oh        1 P5M     -0.228000
     18 C19         4.6100    1.1820    5.3580 ca        1 P5M     -0.154000
     19 C18         5.5140    1.1030    6.4130 ca        1 P5M      0.036000
     20 O21         5.6530    2.0410    7.4140 os        1 P5M     -0.218000
     21 C23         4.9310    3.2610    7.2500 c3        1 P5M     -0.074000
     22 C17         6.3830   -0.0090    6.5370 ca        1 P5M      0.061000
     23 O24         7.2850   -0.1590    7.5510 oh        1 P5M     -0.238000
     24 H1         -0.3300    0.6640   -1.0790 ho        1 P5M      0.264000
     25 H2          0.5500    1.2940    2.1990 ha        1 P5M      0.211000
     26 H3          2.0090    0.9090    5.2040 ho        1 P5M      0.243000
     27 H4          1.2730   -0.5450   -2.2840 ha        1 P5M      0.192000
     28 H5          4.4180   -2.0970   -2.2290 ho        1 P5M      0.257000
     29 H6          4.8510   -1.5500   -0.0020 ha        1 P5M      0.188000
     30 H7          5.4180   -1.7650    3.7550 ha        1 P5M      0.173000
     31 H8          7.7160   -2.0740    6.4020 ho        1 P5M      0.256000
     32 H9          3.9610    2.0650    5.2470 ha        1 P5M      0.168000
     33 H10         3.8320    3.0700    7.2900 h1        1 P5M      0.099667
     34 H11         5.2160    3.7610    6.2930 h1        1 P5M      0.099667
     35 H12         5.2610    3.8690    8.1320 h1        1 P5M      0.099667
     36 H13         7.2410    0.6210    8.1320 ho        1 P5M      0.269000
@<TRIPOS>BOND
     1    1    2 1   
     2    1   24 1   
     3    2    3 1   
     4    2    7 1   
     5    3    4 1   
     6    3   11 1   
     7    4    5 1   
     8    4   25 1   
     9    5    6 1   
    10    5   13 1   
    11    6   26 1   
    12    7    8 1   
    13    7   27 1   
    14    8    9 1   
    15    8   10 1   
    16    9   28 1   
    17   10   11 1   
    18   10   29 1   
    19   11   12 1   
    20   12   13 1   
    21   13   14 1   
    22   14   15 1   
    23   14   18 1   
    24   15   16 1   
    25   15   30 1   
    26   16   17 1   
    27   16   22 1   
    28   17   31 1   
    29   18   19 1   
    30   18   32 1   
    31   19   20 1   
    32   19   22 1   
    33   20   21 1   
    34   21   33 1   
    35   21   34 1   
    36   21   35 1   
    37   22   23 1   
    38   23   36 1   
@<TRIPOS>SUBSTRUCTURE
     1 P5M         1 TEMP              0 ****  ****    0 ROOT
