@<TRIPOS>MOLECULE
P5P
   33    28     1     0     0
SMALL
bcc


@<TRIPOS>ATOM
      1 N1         -2.8930   -0.6820   -4.3220 n1        1 P5P     -0.202000
      2 C2         -1.5200   -0.7170   -4.2630 c1        1 P5P     -0.115000
      3 N3         -0.8650   -0.2360   -3.1560 n1        1 P5P     -0.202000
      4 C4         -1.5780    0.2810   -2.1040 c1        1 P5P     -0.050000
      5 C5         -2.9300    0.3180   -2.1540 c1        1 P5P     -0.050000
      6 C6         -3.6010   -0.1750   -3.2900 c1        1 P5P     -0.115000
      7 N7         -3.3780    0.8790   -0.9820 n1        1 P5P     -0.271500
      8 C8         -2.2940    1.1820   -0.2170 c1        1 P5P     -0.125000
      9 N9         -1.1830    0.8170   -0.9000 n1        1 P5P     -0.271500
     10 C1'         0.2040    0.7320   -0.6110 c2        1 P5P      0.182000
     11 C2'         0.5890    1.7760    0.0980 c3        1 P5P     -0.037000
     12 O2'         1.1280    2.8250   -0.7900 oh        1 P5P     -0.344000
     13 C3'         1.7000    1.2380    1.0300 c3        1 P5P     -0.045000
     14 O3'         2.8690    1.6650    0.6320 oh        1 P5P     -0.335000
     15 C4'         1.6210   -0.3460    0.9190 c3        1 P5P     -0.018000
     16 O4'         0.5110   -0.5860    0.3080 os        1 P5P     -0.296000
     17 C5'         1.6090   -0.9840    2.3130 c3        1 P5P      0.034000
     18 O5'         1.5400   -2.3850    2.1860 os        1 P5P     -0.743000
     19 P           1.2350   -3.2510    3.4910 p5        1 P5P      1.579500
     20 OP1         0.8960   -4.6620    3.0900 o         1 P5P     -0.729167
     21 OP2         0.1170   -2.6670    4.2040 o         1 P5P     -0.729167
     22 OP3         2.4270   -3.2640    4.3670 o         1 P5P     -0.729167
     23 H2         -1.0160   -1.0800   -5.0010 ha        1 P5P      0.136000
     24 H6         -4.6110   -0.1490   -3.3330 ha        1 P5P      0.136000
     25 H8         -2.3170    1.5560    0.7090 DU        1 P5P      0.224000
     26 H1'         0.7310    0.6860   -1.4650 h4        1 P5P      0.107000
     27 H2'        -0.1330    2.1130    0.6060 h1        1 P5P      0.151000
     28 HO2'        0.7040    3.5950   -0.6320 ho        1 P5P      0.201000
     29 H3'         1.5310    1.5250    1.9650 h1        1 P5P      0.195000
     30 HO3'        3.2710    2.0810    1.2970 ho        1 P5P      0.190000
     31 H4'         2.3930   -0.6930    0.3840 h1        1 P5P      0.109000
     32 H5'1        0.8080   -0.6540    2.8290 h1        1 P5P      0.081000
     33 H5'2        2.4370   -0.7370    2.7930 h1        1 P5P      0.081000
@<TRIPOS>BOND
     1    1    6 1   
     2    2    3 1   
     3    2   23 1   
     4    4    5 1   
     5    6   24 1   
     6    7    8 1   
     7    8    9 1   
     8   10   11 1   
     9   10   16 1   
    10   10   26 1   
    11   11   12 1   
    12   11   13 1   
    13   11   27 1   
    14   12   28 1   
    15   13   14 1   
    16   13   15 1   
    17   13   29 1   
    18   14   30 1   
    19   15   16 1   
    20   15   17 1   
    21   15   31 1   
    22   17   18 1   
    23   17   32 1   
    24   17   33 1   
    25   18   19 1   
    26   19   20 1   
    27   19   21 1   
    28   19   22 1   
@<TRIPOS>SUBSTRUCTURE
     1 P5P         1 TEMP              0 ****  ****    0 ROOT
