@<TRIPOS>MOLECULE
P5P
   33    35     1     0     0
SMALL
bcc


@<TRIPOS>ATOM
      1 N1         -1.1460   -0.2980    5.9730 nb        1 P5P     -0.742000
      2 C2          0.0260    0.3220    5.6320 ca        1 P5P      0.601900
      3 N3          0.5520    0.5400    4.4050 nb        1 P5P     -0.676000
      4 C4         -0.2240    0.0600    3.3910 ca        1 P5P      0.409800
      5 C5         -1.5140   -0.6250    3.6280 ca        1 P5P     -0.148200
      6 C6         -1.9080   -0.7680    4.9720 ca        1 P5P      0.458200
      7 N7         -2.0800   -0.9900    2.4020 nc        1 P5P     -0.587100
      8 C8         -1.2030   -0.5670    1.4700 cd        1 P5P      0.472700
      9 N9         -0.0560    0.0600    2.0020 na        1 P5P     -0.258000
     10 C1'         1.0380    0.6820    1.2590 c3        1 P5P      0.216800
     11 C2'         2.0730   -0.3500    0.6950 c3        1 P5P      0.102100
     12 O2'         3.3660    0.1030    1.0310 oh        1 P5P     -0.615800
     13 C3'         1.7680   -0.4040   -0.8180 c3        1 P5P      0.128100
     14 O3'         2.9750   -0.2810   -1.5310 oh        1 P5P     -0.682800
     15 C4'         0.8380    0.7910   -1.0990 c3        1 P5P      0.049100
     16 O4'         0.5120    1.4170    0.1700 os        1 P5P     -0.432600
     17 C5'        -0.4600    0.4060   -1.8520 c3        1 P5P      0.227400
     18 O5'        -0.3020    0.5790   -3.1970 os        1 P5P     -0.552200
     19 P          -0.0280   -0.9130   -4.0670 p5        1 P5P      1.333900
     20 OP1        -1.1950   -1.7350   -3.6050 o         1 P5P     -0.928833
     21 OP2         0.0330   -0.4850   -5.4980 o         1 P5P     -0.928833
     22 OP3         1.2840   -1.2900   -3.4020 o         1 P5P     -0.928833
     23 H2          0.6300    0.7000    6.4800 h5        1 P5P      0.031100
     24 H6         -2.8520   -1.2680    5.2450 h4        1 P5P      0.020100
     25 H8         -1.3250   -0.6680    0.3720 h5        1 P5P      0.127800
     26 H1'         1.5370    1.4210    1.9510 h2        1 P5P      0.091700
     27 H2'         1.9730   -1.3580    1.1740 h1        1 P5P      0.067700
     28 HO2'        3.7440    0.5280    0.2480 ho        1 P5P      0.431000
     29 H3'         1.2660   -1.3760   -1.0880 h1        1 P5P      0.118700
     30 HO3'        2.7650   -0.5840   -2.4500 ho        1 P5P      0.516000
     31 H4'         1.3810    1.5830   -1.6820 h1        1 P5P      0.081700
     32 H5'1       -0.7370   -0.6620   -1.6130 h1        1 P5P     -0.002800
     33 H5'2       -1.2740    1.0910   -1.4680 h1        1 P5P     -0.002800
@<TRIPOS>BOND
     1    1    2 ar  
     2    1    6 ar  
     3    2    3 ar  
     4    2   23 1   
     5    3    4 ar  
     6    4    5 ar  
     7    4    9 1   
     8    5    6 ar  
     9    5    7 1   
    10    6   24 1   
    11    7    8 2   
    12    8    9 1   
    13    8   25 1   
    14    9   10 1   
    15   10   11 1   
    16   10   16 1   
    17   10   26 1   
    18   11   12 1   
    19   11   13 1   
    20   11   27 1   
    21   12   28 1   
    22   13   14 1   
    23   13   15 1   
    24   13   29 1   
    25   14   30 1   
    26   15   16 1   
    27   15   17 1   
    28   15   31 1   
    29   17   18 1   
    30   17   32 1   
    31   17   33 1   
    32   18   19 1   
    33   19   20 1   
    34   19   21 1   
    35   19   22 1   
@<TRIPOS>SUBSTRUCTURE
     1 P5P         1 TEMP              0 ****  ****    0 ROOT
