@<TRIPOS>MOLECULE
P5S
  134   131     1     0     0
SMALL
bcc


@<TRIPOS>ATOM
      1 C          -4.6280    7.7380   -9.6470 c1        1 P5S      0.339000
      2 N          -2.5120    8.0750   -8.5900 n3        1 P5S     -0.325000
      3 O          -5.2690    8.5680   -8.9470 o         1 P5S     -0.595500
      4 C1         -2.0720   -0.3940   -5.3710 c3        1 P5S     -0.033000
      5 C2         -1.4600    0.5320   -6.4140 c3        1 P5S     -0.015000
      6 C3         -2.5580    1.2530   -7.1480 c3        1 P5S      0.054000
      7 CA         -3.3870    7.0810   -9.0890 c2        1 P5S     -0.119000
      8 CB         -3.7740    6.1390   -7.9680 c3        1 P5S      0.014000
      9 OG         -2.9510    4.9900   -8.0130 os        1 P5S     -0.759000
     10 P12        -3.5140    3.6330   -7.4170 p5        1 P5S      1.916000
     11 O13        -4.4530    2.9930   -8.4170 o         1 P5S     -0.850500
     12 O15        -4.2610    3.9180   -6.1360 o         1 P5S     -0.850500
     13 O16        -2.3100    2.6490   -7.1180 os        1 P5S     -0.732000
     14 C17        -2.3890   -0.3310   -2.9940 c1        1 P5S      0.326000
     15 O18        -1.3010   -0.6350   -2.5550 o         1 P5S     -0.370000
     16 O19        -2.4870    0.3720   -4.2380 os        1 P5S     -0.302000
     17 C20        -3.6600   -0.7080   -2.2230 c2        1 P5S     -0.203000
     18 C21        -3.4080   -0.5600   -0.7190 c3        1 P5S     -0.146000
     19 C22        -4.4760   -1.3260    0.0550 c3        1 P5S     -0.163000
     20 C23        -4.8200   -0.5710    1.3190 c3        1 P5S     -0.156000
     21 C24        -5.6370   -1.4660    2.2400 c3        1 P5S     -0.158000
     22 C25        -6.6890   -0.6310    2.9550 c3        1 P5S     -0.158000
     23 C26        -6.7520   -1.0400    4.4250 c3        1 P5S     -0.157000
     24 C27        -8.0100   -0.4470    5.0660 c3        1 P5S     -0.155000
     25 C28        -7.6340    0.2600    6.3740 c3        1 P5S     -0.160000
     26 C29        -8.9020    0.5180    7.1970 c3        1 P5S     -0.156000
     27 C30        -8.8620    1.9260    7.7600 c3        1 P5S     -0.156000
     28 C31        -8.9510    1.8700    9.2750 c3        1 P5S     -0.158000
     29 C32        -8.7640    3.2480    9.8380 c3        1 P5S     -0.158000
     30 C33        -8.2520    3.1480   11.2430 c3        1 P5S     -0.158000
     31 C34        -7.6190    4.4450   11.6350 c3        1 P5S     -0.158000
     32 C35        -6.8910    4.2730   12.9210 c3        1 P5S     -0.159000
     33 C36        -5.9390    5.4200   13.1150 c3        1 P5S     -0.210000
     34 O37        -0.7030   -0.2280   -7.3300 os        1 P5S     -0.274000
     35 C38         0.7040   -0.1720   -7.1040 c2        1 P5S      0.320000
     36 C39         1.6200   -1.2200   -7.7410 c3        1 P5S     -0.201000
     37 C40         3.0610   -0.9690   -7.3070 c3        1 P5S     -0.146000
     38 C41         3.8550   -2.2770   -7.3930 c3        1 P5S     -0.163000
     39 C42         5.3030   -2.0200   -6.9950 c3        1 P5S     -0.156000
     40 C43         5.9390   -3.3200   -6.5390 c3        1 P5S     -0.152000
     41 C44         6.6390   -3.1010   -5.2110 c3        1 P5S     -0.162000
     42 C45         7.7040   -4.1660   -5.0180 c3        1 P5S     -0.155000
     43 C46         7.7260   -4.6010   -3.5570 c3        1 P5S     -0.156000
     44 O47         1.1840    0.7680   -6.5050 o         1 P5S     -0.389000
     45 C48         9.1440   -4.4810   -3.0100 c3        1 P5S     -0.158000
     46 C49         9.1540   -4.8660   -1.5340 c3        1 P5S     -0.158000
     47 C50        10.3880   -4.2840   -0.8670 c3        1 P5S     -0.157000
     48 C51        10.2700   -4.4420    0.6400 c3        1 P5S     -0.157000
     49 C52        11.4040   -3.6990    1.3170 c3        1 P5S     -0.158000
     50 C53        11.1020   -3.5540    2.7990 c3        1 P5S     -0.158000
     51 C54        12.1510   -2.6660    3.4450 c3        1 P5S     -0.158000
     52 C55        11.7720   -2.4050    4.8820 c3        1 P5S     -0.159000
     53 C56        12.6440   -1.3060    5.4410 c3        1 P5S     -0.209000
     54 OXT        -4.9700    7.5250  -10.8390 o         1 P5S     -0.595500
     55 HN         -1.8050    8.1760   -9.1630 hn        1 P5S      0.127500
     56 HNA        -2.9630    8.8730   -8.5160 hn        1 P5S      0.127500
     57 H1         -1.4070   -1.0540   -5.0920 h1        1 P5S      0.101500
     58 H1A        -2.8450   -0.8520   -5.7560 h1        1 P5S      0.101500
     59 H2         -0.8800    1.1840   -5.9720 h1        1 P5S      0.130000
     60 H3         -2.5840    0.9470   -8.0770 h1        1 P5S      0.076000
     61 H3A        -3.4170    1.0650   -6.7180 h1        1 P5S      0.076000
     62 HA         -2.9380    6.5780   -9.7980 h4        1 P5S      0.082000
     63 HB         -3.6560    6.5890   -7.1110 h1        1 P5S      0.073500
     64 HBA        -4.7070    5.8760   -8.0710 h1        1 P5S      0.073500
     65 H20        -4.3930   -0.1140   -2.4910 ha        1 P5S      0.168000
     66 H20A       -3.9010   -1.6340   -2.4240 ha        1 P5S      0.168000
     67 H21        -2.5220   -0.9220   -0.4990 hc        1 P5S      0.091000
     68 H21A       -3.4430    0.3820   -0.4750 hc        1 P5S      0.091000
     69 H22        -5.2770   -1.4170   -0.4990 hc        1 P5S      0.078000
     70 H22A       -4.1380   -2.2130    0.2870 hc        1 P5S      0.078000
     71 H23        -3.9950   -0.3020    1.7740 hc        1 P5S      0.077500
     72 H23A       -5.3420    0.2250    1.0920 hc        1 P5S      0.077500
     73 H24        -6.0760   -2.1630    1.7130 hc        1 P5S      0.076000
     74 H24A       -5.0480   -1.8790    2.8990 hc        1 P5S      0.076000
     75 H25        -6.4540    0.3130    2.8910 hc        1 P5S      0.077500
     76 H25A       -7.5610   -0.7790    2.5380 hc        1 P5S      0.077500
     77 H26        -6.7820   -2.0220    4.4920 hc        1 P5S      0.076500
     78 H26A       -5.9580   -0.7050    4.8920 hc        1 P5S      0.076500
     79 H27        -8.4170    0.1980    4.4510 hc        1 P5S      0.072000
     80 H27A       -8.6460   -1.1610    5.2540 hc        1 P5S      0.072000
     81 H28        -7.1980    1.1130    6.1700 hc        1 P5S      0.083500
     82 H28A       -7.0230   -0.3050    6.8850 hc        1 P5S      0.083500
     83 H29        -9.6890    0.4190    6.6250 hc        1 P5S      0.074500
     84 H29A       -8.9510   -0.1260    7.9330 hc        1 P5S      0.074500
     85 H30        -9.6180    2.4400    7.4090 hc        1 P5S      0.078000
     86 H30A       -8.0260    2.3570    7.4990 hc        1 P5S      0.078000
     87 H31        -8.2520    1.2770    9.6210 hc        1 P5S      0.079000
     88 H31A       -9.8290    1.5260    9.5380 hc        1 P5S      0.079000
     89 H32        -9.6220    3.7210    9.8350 hc        1 P5S      0.078500
     90 H32A       -8.1190    3.7380    9.2910 hc        1 P5S      0.078500
     91 H33        -8.9920    2.9530   11.8460 hc        1 P5S      0.078000
     92 H33A       -7.5860    2.4300   11.2990 hc        1 P5S      0.078000
     93 H34        -6.9910    4.7240   10.9390 hc        1 P5S      0.078500
     94 H34A       -8.3100    5.1240   11.7410 hc        1 P5S      0.078500
     95 H35        -6.3920    3.4340   12.9030 hc        1 P5S      0.077500
     96 H35A       -7.5330    4.2540   13.6590 hc        1 P5S      0.077500
     97 H36        -5.5270    5.6530   12.2550 hc        1 P5S      0.070000
     98 H36A       -6.4250    6.1930   13.4620 hc        1 P5S      0.070000
     99 H36B       -5.2430    5.1620   13.7490 hc        1 P5S      0.070000
    100 H39         1.5580   -1.1580   -8.7130 hc        1 P5S      0.168000
    101 H39A        1.3440   -2.1130   -7.4520 hc        1 P5S      0.168000
    102 H40         3.0720   -0.6430   -6.3890 hc        1 P5S      0.094500
    103 H40A        3.4700   -0.2990   -7.8980 hc        1 P5S      0.094500
    104 H41         3.8240   -2.6180   -8.3130 hc        1 P5S      0.076000
    105 H41A        3.4610   -2.9380   -6.7860 hc        1 P5S      0.076000
    106 H42         5.3300   -1.3700   -6.2640 hc        1 P5S      0.077000
    107 H42A        5.7940   -1.6680   -7.7620 hc        1 P5S      0.077000
    108 H43         6.5920   -3.6160   -7.2080 hc        1 P5S      0.066000
    109 H43A        5.2480   -4.0010   -6.4350 hc        1 P5S      0.066000
    110 H44         5.9830   -3.1570   -4.4830 hc        1 P5S      0.088000
    111 H44A        7.0560   -2.2200   -5.2050 hc        1 P5S      0.088000
    112 H45         8.5800   -3.8010   -5.2630 hc        1 P5S      0.071000
    113 H45A        7.5030   -4.9360   -5.5830 hc        1 P5S      0.071000
    114 H46         7.1260   -4.0270   -3.0370 hc        1 P5S      0.076500
    115 H46A        7.4270   -5.5310   -3.4890 hc        1 P5S      0.076500
    116 H48         9.7350   -5.0780   -3.5060 hc        1 P5S      0.080500
    117 H48A        9.4540   -3.5620   -3.1090 hc        1 P5S      0.080500
    118 H49         9.1680   -5.8410   -1.4510 hc        1 P5S      0.078000
    119 H49A        8.3530   -4.5130   -1.1010 hc        1 P5S      0.078000
    120 H50        10.4630   -3.3310   -1.0910 hc        1 P5S      0.079000
    121 H50A       11.1860   -4.7590   -1.1840 hc        1 P5S      0.079000
    122 H51        10.3170   -5.3860    0.8730 hc        1 P5S      0.078500
    123 H51A        9.4100   -4.0730    0.9420 hc        1 P5S      0.078500
    124 H52        12.2380   -4.2000    1.2010 hc        1 P5S      0.078500
    125 H52A       11.4970   -2.8160    0.9170 hc        1 P5S      0.078500
    126 H53        10.2170   -3.1520    2.9140 hc        1 P5S      0.078000
    127 H53A       11.1170   -4.4360    3.2210 hc        1 P5S      0.078000
    128 H54        12.2010   -1.8170    2.9610 hc        1 P5S      0.078000
    129 H54A       13.0220   -3.1120    3.4130 hc        1 P5S      0.078000
    130 H55        10.8380   -2.1320    4.9270 hc        1 P5S      0.077000
    131 H55A       11.8990   -3.2230    5.4070 hc        1 P5S      0.077000
    132 H56        13.5680   -1.6260    5.5100 hc        1 P5S      0.069000
    133 H56A       12.6110   -0.5270    4.8440 hc        1 P5S      0.069000
    134 H56B       12.3190   -1.0510    6.3300 hc        1 P5S      0.069000
@<TRIPOS>BOND
     1    1    3 1   
     2    1   54 1   
     3    2    7 1   
     4    2   55 1   
     5    2   56 1   
     6    4    5 1   
     7    4   16 1   
     8    4   57 1   
     9    4   58 1   
    10    5    6 1   
    11    5   34 1   
    12    5   59 1   
    13    6   13 1   
    14    6   60 1   
    15    6   61 1   
    16    7    8 1   
    17    7   62 1   
    18    8    9 1   
    19    8   63 1   
    20    8   64 1   
    21    9   10 1   
    22   10   11 1   
    23   10   12 1   
    24   10   13 1   
    25   14   15 1   
    26   14   16 1   
    27   17   18 1   
    28   17   65 1   
    29   17   66 1   
    30   18   19 1   
    31   18   67 1   
    32   18   68 1   
    33   19   20 1   
    34   19   69 1   
    35   19   70 1   
    36   20   21 1   
    37   20   71 1   
    38   20   72 1   
    39   21   22 1   
    40   21   73 1   
    41   21   74 1   
    42   22   23 1   
    43   22   75 1   
    44   22   76 1   
    45   23   24 1   
    46   23   77 1   
    47   23   78 1   
    48   24   25 1   
    49   24   79 1   
    50   24   80 1   
    51   25   26 1   
    52   25   81 1   
    53   25   82 1   
    54   26   27 1   
    55   26   83 1   
    56   26   84 1   
    57   27   28 1   
    58   27   85 1   
    59   27   86 1   
    60   28   29 1   
    61   28   87 1   
    62   28   88 1   
    63   29   30 1   
    64   29   89 1   
    65   29   90 1   
    66   30   31 1   
    67   30   91 1   
    68   30   92 1   
    69   31   32 1   
    70   31   93 1   
    71   31   94 1   
    72   32   33 1   
    73   32   95 1   
    74   32   96 1   
    75   33   97 1   
    76   33   98 1   
    77   33   99 1   
    78   34   35 1   
    79   35   36 1   
    80   35   44 1   
    81   36   37 1   
    82   36  100 1   
    83   36  101 1   
    84   37   38 1   
    85   37  102 1   
    86   37  103 1   
    87   38   39 1   
    88   38  104 1   
    89   38  105 1   
    90   39   40 1   
    91   39  106 1   
    92   39  107 1   
    93   40   41 1   
    94   40  108 1   
    95   40  109 1   
    96   41   42 1   
    97   41  110 1   
    98   41  111 1   
    99   42   43 1   
   100   42  112 1   
   101   42  113 1   
   102   43   45 1   
   103   43  114 1   
   104   43  115 1   
   105   45   46 1   
   106   45  116 1   
   107   45  117 1   
   108   46   47 1   
   109   46  118 1   
   110   46  119 1   
   111   47   48 1   
   112   47  120 1   
   113   47  121 1   
   114   48   49 1   
   115   48  122 1   
   116   48  123 1   
   117   49   50 1   
   118   49  124 1   
   119   49  125 1   
   120   50   51 1   
   121   50  126 1   
   122   50  127 1   
   123   51   52 1   
   124   51  128 1   
   125   51  129 1   
   126   52   53 1   
   127   52  130 1   
   128   52  131 1   
   129   53  132 1   
   130   53  133 1   
   131   53  134 1   
@<TRIPOS>SUBSTRUCTURE
     1 P5S         1 TEMP              0 ****  ****    0 ROOT
