@<TRIPOS>MOLECULE
P5S
  134   133     1     0     0
SMALL
bcc


@<TRIPOS>ATOM
      1 C          -5.4230   -1.3640    2.2370 c         1 P5S      0.915600
      2 N          -3.0470   -1.4350    3.0350 n3        1 P5S     -0.914800
      3 O          -5.8800   -1.6180    3.3880 o         1 P5S     -0.862300
      4 C1          0.2830   -2.8530   -2.4200 c3        1 P5S      0.128400
      5 C2          1.0590   -3.2530   -1.1670 c3        1 P5S      0.133100
      6 C3          0.1650   -3.3880    0.0760 c3        1 P5S      0.180400
      7 CA         -3.9310   -1.6800    1.9140 c3        1 P5S      0.028500
      8 CB         -3.8890   -3.1090    1.3260 c3        1 P5S      0.166400
      9 OG         -2.6900   -3.3340    0.6330 os        1 P5S     -0.610200
     10 P12        -1.7990   -4.6380    1.0930 p5        1 P5S      1.431800
     11 O13        -1.1180   -4.2840    2.3560 o         1 P5S     -0.835000
     12 O15        -2.5310   -5.8910    0.8410 o         1 P5S     -0.835000
     13 O16        -0.6550   -4.5000   -0.1050 os        1 P5S     -0.563200
     14 C17        -1.8370   -1.7510   -2.5880 c         1 P5S      0.659100
     15 O18        -2.0340   -2.3630   -3.6410 o         1 P5S     -0.576000
     16 C20        -2.7770   -0.9840   -1.7220 c3        1 P5S     -0.153400
     17 C21        -4.0400   -0.5850   -2.4500 c3        1 P5S     -0.061400
     18 C22        -4.9690    0.1530   -1.5110 c3        1 P5S     -0.111400
     19 C23        -6.3130    0.4220   -2.1510 c3        1 P5S     -0.054400
     20 C24        -7.2610    1.0310   -1.1390 c3        1 P5S     -0.103400
     21 C25        -8.6640    1.1510   -1.6940 c3        1 P5S     -0.068400
     22 C26        -9.6050    1.7390   -0.6650 c3        1 P5S     -0.082400
     23 C27       -11.0200    1.8310   -1.1960 c3        1 P5S     -0.076400
     24 C28       -11.9590    2.4160   -0.1630 c3        1 P5S     -0.080400
     25 C29       -13.3750    2.5050   -0.6900 c3        1 P5S     -0.077400
     26 C30       -14.3120    3.0900    0.3450 c3        1 P5S     -0.079400
     27 C31       -15.7290    3.1780   -0.1810 c3        1 P5S     -0.078400
     28 C32       -16.6650    3.7630    0.8550 c3        1 P5S     -0.079400
     29 C33       -18.0820    3.8510    0.3290 c3        1 P5S     -0.078400
     30 C34       -19.0170    4.4360    1.3650 c3        1 P5S     -0.079400
     31 C35       -20.4350    4.5240    0.8410 c3        1 P5S     -0.080400
     32 C36       -21.3700    5.1060    1.8690 c3        1 P5S     -0.091100
     33 O37         2.0180   -2.2270   -0.8210 os        1 P5S     -0.415900
     34 C38         3.1880   -2.1780   -1.5000 c         1 P5S      0.634100
     35 C39         4.0510   -1.0320   -1.0520 c3        1 P5S     -0.133400
     36 C40         5.5180   -1.3980   -1.1140 c3        1 P5S     -0.077400
     37 C41         6.3860   -0.2000   -0.7970 c3        1 P5S     -0.078400
     38 C42         7.8550   -0.5650   -0.8380 c3        1 P5S     -0.078400
     39 C43         8.7270    0.6330   -0.5260 c3        1 P5S     -0.079400
     40 C44        10.1960    0.2680   -0.5650 c3        1 P5S     -0.078400
     41 C45        11.0680    1.4650   -0.2540 c3        1 P5S     -0.079400
     42 C46        12.5370    1.1010   -0.2930 c3        1 P5S     -0.078400
     43 O47         3.4410   -3.0080   -2.3800 o         1 P5S     -0.578000
     44 C48        13.4090    2.2980    0.0190 c3        1 P5S     -0.079400
     45 C49        14.8780    1.9340   -0.0210 c3        1 P5S     -0.078400
     46 C50        15.7500    3.1310    0.2910 c3        1 P5S     -0.079400
     47 C51        17.2190    2.7670    0.2510 c3        1 P5S     -0.079400
     48 C52        18.0910    3.9640    0.5620 c3        1 P5S     -0.079400
     49 C53        19.5590    3.6000    0.5230 c3        1 P5S     -0.079400
     50 C54        20.4320    4.7970    0.8340 c3        1 P5S     -0.079400
     51 C55        21.9010    4.4340    0.7950 c3        1 P5S     -0.080400
     52 C56        22.7730    5.6230    1.1050 c3        1 P5S     -0.092100
     53 OXT        -6.1250   -0.8620    1.3080 o         1 P5S     -0.862300
     54 HN         -3.5320   -1.6520    3.8870 hn        1 P5S      0.347300
     55 HNA        -2.2360   -2.0230    2.9750 hn        1 P5S      0.347300
     56 H1          0.9820   -2.5260   -3.2330 h1        1 P5S      0.061200
     57 H1A        -0.3350   -3.7270   -2.7570 h1        1 P5S      0.061200
     58 H2          1.6010   -4.2150   -1.3760 h1        1 P5S      0.072700
     59 H3          0.7980   -3.5330    0.9940 h1        1 P5S      0.053700
     60 H3A        -0.4660   -2.4660    0.2030 h1        1 P5S      0.053700
     61 HA         -3.6050   -0.9760    1.0920 h1        1 P5S      0.039700
     62 HB         -4.0140   -3.8800    2.1330 h1        1 P5S      0.025700
     63 HBA        -4.7400   -3.1990    0.5910 h1        1 P5S      0.025700
     64 H20        -3.0240   -1.6620   -0.8430 hc        1 P5S      0.115200
     65 H20A       -2.2540   -0.0860   -1.3020 hc        1 P5S      0.115200
     66 H21        -3.7870    0.0590   -3.3330 hc        1 P5S      0.030700
     67 H21A       -4.5440   -1.5050   -2.8460 hc        1 P5S      0.030700
     68 H22        -5.1260   -0.4490   -0.5630 hc        1 P5S      0.081200
     69 H22A       -4.4990    1.1240   -1.2040 hc        1 P5S      0.081200
     70 H23        -6.1970    1.1040   -3.0340 hc        1 P5S      0.013200
     71 H23A       -6.7430   -0.5420   -2.5320 hc        1 P5S      0.013200
     72 H24        -7.2610    0.3920   -0.2080 hc        1 P5S      0.076700
     73 H24A       -6.8880    2.0460   -0.8410 hc        1 P5S      0.076700
     74 H25        -8.6610    1.7930   -2.6140 hc        1 P5S      0.021700
     75 H25A       -9.0320    0.1360   -2.0010 hc        1 P5S      0.021700
     76 H26        -9.5870    1.1010    0.2590 hc        1 P5S      0.048700
     77 H26A       -9.2480    2.7600   -0.3680 hc        1 P5S      0.048700
     78 H27       -11.0360    2.4660   -2.1220 hc        1 P5S      0.030200
     79 H27A      -11.3760    0.8090   -1.4910 hc        1 P5S      0.030200
     80 H28       -11.9390    1.7810    0.7610 hc        1 P5S      0.041700
     81 H28A      -11.6020    3.4380    0.1320 hc        1 P5S      0.041700
     82 H29       -13.3930    3.1390   -1.6150 hc        1 P5S      0.034200
     83 H29A      -13.7300    1.4820   -0.9840 hc        1 P5S      0.034200
     84 H30       -14.2920    2.4540    1.2700 hc        1 P5S      0.040200
     85 H30A      -13.9560    4.1120    0.6390 hc        1 P5S      0.040200
     86 H31       -15.7480    3.8120   -1.1060 hc        1 P5S      0.036700
     87 H31A      -16.0840    2.1550   -0.4750 hc        1 P5S      0.036700
     88 H32       -16.6450    3.1270    1.7790 hc        1 P5S      0.039700
     89 H32A      -16.3080    4.7850    1.1490 hc        1 P5S      0.039700
     90 H33       -18.1010    4.4850   -0.5960 hc        1 P5S      0.037200
     91 H33A      -18.4380    2.8280    0.0350 hc        1 P5S      0.037200
     92 H34       -18.9980    3.8010    2.2900 hc        1 P5S      0.039700
     93 H34A      -18.6610    5.4580    1.6590 hc        1 P5S      0.039700
     94 H35       -20.4520    5.1580   -0.0850 hc        1 P5S      0.036700
     95 H35A      -20.7890    3.5010    0.5460 hc        1 P5S      0.036700
     96 H36       -22.4090    5.1620    1.4630 hc        1 P5S      0.030033
     97 H36A      -21.3850    4.4740    2.7900 hc        1 P5S      0.030033
     98 H36B      -21.0480    6.1360    2.1570 hc        1 P5S      0.030033
     99 H39         3.8320   -0.1650   -1.7310 hc        1 P5S      0.075200
    100 H39A        3.7600   -0.7320   -0.0110 hc        1 P5S      0.075200
    101 H40         5.7280   -2.2230   -0.3840 hc        1 P5S      0.053700
    102 H40A        5.7610   -1.7920   -2.1370 hc        1 P5S      0.053700
    103 H41         6.1820    0.6200   -1.5350 hc        1 P5S      0.039200
    104 H41A        6.1250    0.1970    0.2200 hc        1 P5S      0.039200
    105 H42         8.0590   -1.3820   -0.0970 hc        1 P5S      0.040200
    106 H42A        8.1140   -0.9660   -1.8530 hc        1 P5S      0.040200
    107 H43         8.5230    1.4500   -1.2660 hc        1 P5S      0.039200
    108 H43A        8.4660    1.0330    0.4890 hc        1 P5S      0.039200
    109 H44        10.4000   -0.5490    0.1760 hc        1 P5S      0.038700
    110 H44A       10.4560   -0.1330   -1.5800 hc        1 P5S      0.038700
    111 H45        10.8640    2.2830   -0.9940 hc        1 P5S      0.038700
    112 H45A       10.8070    1.8660    0.7610 hc        1 P5S      0.038700
    113 H46        12.7410    0.2840    0.4480 hc        1 P5S      0.038700
    114 H46A       12.7970    0.6990   -1.3080 hc        1 P5S      0.038700
    115 H48        13.2040    3.1150   -0.7220 hc        1 P5S      0.039200
    116 H48A       13.1480    2.6990    1.0330 hc        1 P5S      0.039200
    117 H49        15.0820    1.1170    0.7200 hc        1 P5S      0.039200
    118 H49A       15.1390    1.5320   -1.0360 hc        1 P5S      0.039200
    119 H50        15.5450    3.9480   -0.4500 hc        1 P5S      0.039200
    120 H50A       15.4890    3.5320    1.3050 hc        1 P5S      0.039200
    121 H51        17.4230    1.9500    0.9920 hc        1 P5S      0.039200
    122 H51A       17.4790    2.3650   -0.7630 hc        1 P5S      0.039200
    123 H52        17.8860    4.7810   -0.1780 hc        1 P5S      0.039200
    124 H52A       17.8300    4.3650    1.5770 hc        1 P5S      0.039200
    125 H53        19.7640    2.7830    1.2640 hc        1 P5S      0.038700
    126 H53A       19.8200    3.1980   -0.4920 hc        1 P5S      0.038700
    127 H54        20.2270    5.6140    0.0930 hc        1 P5S      0.039200
    128 H54A       20.1710    5.1990    1.8490 hc        1 P5S      0.039200
    129 H55        22.1030    3.6160    1.5360 hc        1 P5S      0.037700
    130 H55A       22.1590    4.0310   -0.2200 hc        1 P5S      0.037700
    131 H56        23.8510    5.3340    1.0700 hc        1 P5S      0.031033
    132 H56A       22.6030    6.4400    0.3620 hc        1 P5S      0.031033
    133 H56B       22.5470    6.0240    2.1220 hc        1 P5S      0.031033
    134 O19        -0.5500   -1.7380   -2.0970 os        1 P5S     -0.450900
@<TRIPOS>BOND
     1    1    3 1   
     2    1    7 1   
     3    1   53 1   
     4    2    7 1   
     5    2   54 1   
     6    2   55 1   
     7    4    5 1   
     8    4   56 1   
     9    4   57 1   
    10    4  134 1   
    11    5    6 1   
    12    5   33 1   
    13    5   58 1   
    14    6   13 1   
    15    6   59 1   
    16    6   60 1   
    17    7    8 1   
    18    7   61 1   
    19    8    9 1   
    20    8   62 1   
    21    8   63 1   
    22    9   10 1   
    23   10   11 1   
    24   10   12 1   
    25   10   13 1   
    26   14   15 2   
    27   14   16 1   
    28   14  134 1   
    29   16   17 1   
    30   16   64 1   
    31   16   65 1   
    32   17   18 1   
    33   17   66 1   
    34   17   67 1   
    35   18   19 1   
    36   18   68 1   
    37   18   69 1   
    38   19   20 1   
    39   19   70 1   
    40   19   71 1   
    41   20   21 1   
    42   20   72 1   
    43   20   73 1   
    44   21   22 1   
    45   21   74 1   
    46   21   75 1   
    47   22   23 1   
    48   22   76 1   
    49   22   77 1   
    50   23   24 1   
    51   23   78 1   
    52   23   79 1   
    53   24   25 1   
    54   24   80 1   
    55   24   81 1   
    56   25   26 1   
    57   25   82 1   
    58   25   83 1   
    59   26   27 1   
    60   26   84 1   
    61   26   85 1   
    62   27   28 1   
    63   27   86 1   
    64   27   87 1   
    65   28   29 1   
    66   28   88 1   
    67   28   89 1   
    68   29   30 1   
    69   29   90 1   
    70   29   91 1   
    71   30   31 1   
    72   30   92 1   
    73   30   93 1   
    74   31   32 1   
    75   31   94 1   
    76   31   95 1   
    77   32   96 1   
    78   32   97 1   
    79   32   98 1   
    80   33   34 1   
    81   34   35 1   
    82   34   43 2   
    83   35   36 1   
    84   35   99 1   
    85   35  100 1   
    86   36   37 1   
    87   36  101 1   
    88   36  102 1   
    89   37   38 1   
    90   37  103 1   
    91   37  104 1   
    92   38   39 1   
    93   38  105 1   
    94   38  106 1   
    95   39   40 1   
    96   39  107 1   
    97   39  108 1   
    98   40   41 1   
    99   40  109 1   
   100   40  110 1   
   101   41   42 1   
   102   41  111 1   
   103   41  112 1   
   104   42   44 1   
   105   42  113 1   
   106   42  114 1   
   107   44   45 1   
   108   44  115 1   
   109   44  116 1   
   110   45   46 1   
   111   45  117 1   
   112   45  118 1   
   113   46   47 1   
   114   46  119 1   
   115   46  120 1   
   116   47   48 1   
   117   47  121 1   
   118   47  122 1   
   119   48   49 1   
   120   48  123 1   
   121   48  124 1   
   122   49   50 1   
   123   49  125 1   
   124   49  126 1   
   125   50   51 1   
   126   50  127 1   
   127   50  128 1   
   128   51   52 1   
   129   51  129 1   
   130   51  130 1   
   131   52  131 1   
   132   52  132 1   
   133   52  133 1   
@<TRIPOS>SUBSTRUCTURE
     1 P5S         1 TEMP              0 ****  ****    0 ROOT
