@<TRIPOS>MOLECULE
P61
   44    40     1     0     0
SMALL
bcc


@<TRIPOS>ATOM
      1 C           8.6070   -9.6600  -65.5920 c2        1 P61      0.377000
      2 F           8.9220  -10.0400  -59.7470 f         1 P61     -0.158000
      3 N           6.6760   -8.3560  -66.3830 n2        1 P61     -0.086000
      4 OXT         9.6680   -9.0860  -65.9530 o         1 P61     -0.585000
      5 P         -63.9830   49.5440  435.5620 p3        1 P61      2.389000
      6 N1          3.9480   -5.0600  -69.5120 n2        1 P61     -0.397000
      7 C2          4.3380   -6.3040  -69.6220 c2        1 P61      0.012000
      8 C3          4.9330   -7.1640  -68.6120 c2        1 P61     -0.293000
      9 O3          5.6530   -8.2320  -69.1470 oh        1 P61     -0.301000
     10 C4          4.7780   -7.0210  -67.2270 c2        1 P61      0.077000
     11 C5          3.6920   -6.1510  -66.7340 c2        1 P61     -0.087000
     12 C6          2.3930   -6.4230  -66.8510 c2        1 P61     -0.253000
     13 CA          7.3310   -8.8480  -65.3780 c2        1 P61     -0.140000
     14 CB          6.9710   -8.6650  -63.9180 c3        1 P61     -0.125000
     15 CG          7.6580   -9.6340  -63.0330 c2        1 P61     -0.061000
     16 CZ          9.9530  -11.1810  -61.5190 c2        1 P61      0.104000
     17 O1P       -64.5810   50.1480  436.7660 o         1 P61     -1.130333
     18 O2P       -62.8870   50.2420  434.8580 o         1 P61     -1.130333
     19 O3P       -64.4350   48.2250  435.0870 o         1 P61     -1.130333
     20 C4A         5.5510   -7.5690  -66.2120 c2        1 P61     -0.326000
     21 C5A       -64.1850   51.8280  432.9260 c1        1 P61      0.201000
     22 CD1         8.3490   -9.2800  -61.9410 c2        1 P61     -0.218000
     23 CD2        11.2520  -12.2390  -63.3890 c1        1 P61      0.174000
     24 CE1         9.0840  -10.2110  -61.0970 c2        1 P61     -0.033000
     25 CE2        10.3140  -11.4810  -62.8770 c2        1 P61     -0.461000
     26 O           8.5820  -10.9070  -65.3170 o         1 P61     -0.585000
     27 HO3         6.5420   -8.1820  -68.7660 ho        1 P61      0.212000
     28 H6          4.0810   -4.6910  -68.5940 hn        1 P61      0.102000
     29 HN          2.0230   -7.3140  -67.3740 ha        1 P61      0.094500
     30 HB          5.8620   -8.8120  -63.7810 hc        1 P61      0.075000
     31 HBA         7.2070   -7.6080  -63.6180 hc        1 P61      0.075000
     32 HOH        10.3450  -11.7120  -59.7120 ho        1 P61      0.205000
     33 H2A        11.3270  -11.6810  -65.6330 ha        1 P61      0.005000
     34 H2AA       10.7850  -11.2690  -65.7020 ha        1 P61      0.005000
     35 H2AB        5.0500   -7.3550  -71.3670 ha        1 P61      0.035000
     36 H4A         5.2240   -7.3340  -65.1780 h4        1 P61      0.063000
     37 H5A         1.6180   -5.7580  -66.4520 ha        1 P61      0.094500
     38 H5AA        4.0340   -5.2450  -66.2050 ha        1 P61      0.096000
     39 HD1         8.4140   -8.2290  -61.6140 ha        1 P61      0.117000
     40 HD2         7.5810  -10.6910  -63.3590 ha        1 P61      0.168000
     41 HE2         9.6820  -10.9750  -63.6950 ha        1 P61      0.309000
     42 OH         10.6160  -11.9850  -60.5990 oh        1 P61     -0.285000
     43 C2A         4.1270   -7.0720  -70.8330 c1        1 P61     -0.004000
     44 O4P       -64.7020   51.1150  433.6990 o         1 P61     -0.200000
@<TRIPOS>BOND
     1    1    4 1   
     2    1   13 1   
     3    1   26 1   
     4    2   24 1   
     5    3   13 1   
     6    3   20 1   
     7    5   17 1   
     8    5   18 1   
     9    5   19 1   
    10    6    7 1   
    11    6   28 1   
    12    7    8 1   
    13    7   43 1   
    14    8    9 1   
    15    8   10 1   
    16    9   27 1   
    17   10   11 1   
    18   10   20 1   
    19   11   12 1   
    20   11   38 1   
    21   12   29 1   
    22   12   37 1   
    23   13   14 1   
    24   14   15 1   
    25   14   30 1   
    26   14   31 1   
    27   15   22 1   
    28   15   40 1   
    29   16   24 1   
    30   16   25 1   
    31   16   42 1   
    32   20   36 1   
    33   21   44 1   
    34   22   24 1   
    35   22   39 1   
    36   23   25 1   
    37   25   41 1   
    38   32   42 1   
    39   33   34 1   
    40   35   43 1   
@<TRIPOS>SUBSTRUCTURE
     1 P61         1 TEMP              0 ****  ****    0 ROOT
