@<TRIPOS>MOLECULE
P61
   44    41     1     0     0
SMALL
bcc


@<TRIPOS>ATOM
      1 C          24.9880  -11.4280 -153.1120 c2        1 P61      0.401000
      2 F          23.3770  -13.7350 -147.4430 f         1 P61     -0.156000
      3 N          23.6720   -9.3670 -153.1500 n7        1 P61      0.234000
      4 OXT        25.4640  -12.4140 -152.4590 o         1 P61     -0.625000
      5 P        -160.8090   73.7980  934.2860 p3        1 P61      2.389000
      6 N1         20.8690   -4.9690 -151.3430 n2        1 P61     -0.367000
      7 C2         20.2500   -5.9980 -151.9140 c2        1 P61      0.003000
      8 C3         20.9010   -7.1770 -152.3880 c2        1 P61     -0.332000
      9 O3         20.1000   -8.2070 -152.8700 oh        1 P61     -0.287000
     10 C4         22.3210   -7.2600 -152.4590 c2        1 P61      0.171000
     11 C5         23.0590   -5.9930 -152.1260 c3        1 P61     -0.142000
     12 C6         22.2830   -5.0980 -151.1550 c3        1 P61     -0.049000
     13 CA         24.1580  -10.4000 -152.4080 c2        1 P61     -0.475000
     14 CB         23.9340  -10.4660 -150.9450 c3        1 P61     -0.025000
     15 CG         23.7190  -11.8590 -150.4790 c2        1 P61     -0.004000
     16 CZ         24.1270  -14.7650 -149.4100 c2        1 P61      0.068000
     17 O1P      -161.5340   74.6250  935.2670 o         1 P61     -1.130333
     18 O2P      -159.8500   74.4320  933.3570 o         1 P61     -1.130333
     19 O3P      -160.9950   72.3370  934.2600 o         1 P61     -1.130333
     20 C4A        23.0080   -8.3380 -152.7860 c1        1 P61     -0.521000
     21 C5A      -161.3850   75.0700  931.0840 c1        1 P61      0.201000
     22 CD1        23.9720  -12.2540 -149.2200 c2        1 P61     -0.258000
     23 CD2        24.9080  -15.8780 -151.5220 c1        1 P61      0.154000
     24 CE1        23.8230  -13.6140 -148.7340 c2        1 P61      0.003000
     25 CE2        24.6690  -14.8610 -150.7370 c2        1 P61     -0.449000
     26 O          25.2120  -11.2950 -154.3580 o         1 P61     -0.625000
     27 HO3        20.3770   -8.9930 -152.3780 ho        1 P61      0.176000
     28 H6         22.4840   -5.4750 -150.1060 h1        1 P61      0.036500
     29 HN         22.7170   -4.0580 -151.2110 h1        1 P61      0.036500
     30 HB         24.8150  -10.0210 -150.4010 hc        1 P61      0.070500
     31 HBA        23.0310   -9.8560 -150.6480 hc        1 P61      0.070500
     32 HOH        23.5790  -15.8680 -147.9330 ho        1 P61      0.205000
     33 H2A         7.3150  -57.8720  -13.7590 ha        1 P61      0.000000
     34 H2AA        6.6810  -57.8490  -13.5230 ha        1 P61      0.000000
     35 H2AB       18.2710   -6.7990 -151.7660 ha        1 P61      0.017000
     36 H4A        23.9090   -9.4470 -154.1360 hn        1 P61      0.238000
     37 H5A        24.0620   -6.2290 -151.6870 hc        1 P61      0.066000
     38 H5AA       23.2340   -5.4380 -153.0860 hc        1 P61      0.066000
     39 HD1        24.3210  -11.5380 -148.4590 ha        1 P61      0.119000
     40 HD2        23.3450  -12.5600 -151.2470 ha        1 P61      0.146000
     41 HE2        24.9630  -13.8610 -151.2260 ha        1 P61      0.319000
     42 OH         23.9370  -16.0110 -148.8200 oh        1 P61     -0.287000
     43 C2A        18.8380   -5.9680 -152.2280 c1        1 P61      0.003000
     44 O4P      -161.7740   74.5500  932.0590 o         1 P61     -0.200000
@<TRIPOS>BOND
     1    1    4 1   
     2    1   13 1   
     3    1   26 1   
     4    2   24 1   
     5    3   13 1   
     6    3   20 1   
     7    3   36 1   
     8    5   17 1   
     9    5   18 1   
    10    5   19 1   
    11    6    7 1   
    12    6   12 1   
    13    7    8 1   
    14    7   43 1   
    15    8    9 1   
    16    8   10 1   
    17    9   27 1   
    18   10   11 1   
    19   10   20 1   
    20   11   12 1   
    21   11   37 1   
    22   11   38 1   
    23   12   28 1   
    24   12   29 1   
    25   13   14 1   
    26   14   15 1   
    27   14   30 1   
    28   14   31 1   
    29   15   22 1   
    30   15   40 1   
    31   16   24 1   
    32   16   25 1   
    33   16   42 1   
    34   21   44 1   
    35   22   24 1   
    36   22   39 1   
    37   23   25 1   
    38   25   41 1   
    39   32   42 1   
    40   33   34 1   
    41   35   43 1   
@<TRIPOS>SUBSTRUCTURE
     1 P61         1 TEMP              0 ****  ****    0 ROOT
