@<TRIPOS>MOLECULE
P61
   44    45     1     0     0
SMALL
bcc


@<TRIPOS>ATOM
      1 C           3.8030    1.7630    0.7990 c         1 P61      0.826300
      2 F           2.4760   -4.4050   -1.2840 f         1 P61     -0.168900
      3 N           1.3960    1.6240    0.2890 ne        1 P61     -0.580300
      4 OXT         4.5420    1.5670    1.8160 o         1 P61     -0.849800
      5 P          -5.1120   -1.0170    0.6060 p5        1 P61      1.325900
      6 N1         -3.3610    3.1780   -0.9340 na        1 P61     -0.589800
      7 C2         -2.1260    3.8130   -1.0300 cc        1 P61     -0.025200
      8 C3         -0.9680    3.1160   -0.7250 cd        1 P61      0.074100
      9 O3          0.1960    3.8130   -0.9710 oh        1 P61     -0.562100
     10 C4         -0.9940    1.7510   -0.2010 cd        1 P61      0.059000
     11 C5         -2.3110    1.1480   -0.1590 cd        1 P61     -0.218200
     12 C6         -3.4290    1.8820   -0.4790 cc        1 P61      0.035000
     13 CA          2.4410    1.0430    0.7780 cf        1 P61      0.334300
     14 CB          2.5030   -0.3150    1.4420 c3        1 P61     -0.126400
     15 CG          3.1900   -1.3380    0.6060 ca        1 P61     -0.029300
     16 CZ          4.5510   -3.2930   -0.8700 ca        1 P61      0.041100
     17 O1P        -5.7580    0.3360    0.3580 o         1 P61     -0.926167
     18 O2P        -4.6010   -1.2280    2.0040 o         1 P61     -0.926167
     19 O3P        -5.8000   -2.1830   -0.0430 o         1 P61     -0.926167
     20 C4A         0.1180    1.0810    0.2650 ce        1 P61     -0.128400
     21 C5A        -2.5680   -0.2840    0.2730 c3        1 P61      0.266600
     22 CD1         2.4710   -2.3840    0.0220 ca        1 P61     -0.126000
     23 CD2         4.5830   -1.2660    0.4310 ca        1 P61     -0.103000
     24 CE1         3.1500   -3.3700   -0.7110 ca        1 P61      0.023900
     25 CE2         5.2640   -2.2320   -0.3000 ca        1 P61     -0.152000
     26 O           4.1660    2.4750   -0.1750 o         1 P61     -0.849800
     27 HO3         0.9530    3.2880   -0.6450 ho        1 P61      0.479000
     28 H6         -4.4630    1.3930   -0.3560 h4        1 P61      0.294000
     29 HN         -4.1830    3.7280   -0.9610 hn        1 P61      0.416800
     30 HB          3.0950   -0.1730    2.3920 hc        1 P61      0.064700
     31 HBA         1.4820   -0.6830    1.7270 hc        1 P61      0.064700
     32 HOH         4.6160   -4.8090   -2.0210 ho        1 P61      0.409000
     33 H2A        -2.1810    5.2480   -2.6320 hc        1 P61      0.023700
     34 H2AA       -2.9030    5.8360   -1.0770 hc        1 P61      0.023700
     35 H2AB       -1.1000    5.6820   -1.2420 hc        1 P61      0.023700
     36 H4A        -0.0380    0.0540    0.6460 h4        1 P61      0.116000
     37 H5A        -1.6650   -0.9010   -0.0180 h1        1 P61      0.010700
     38 H5AA       -2.6820   -0.3040    1.3970 h1        1 P61      0.010700
     39 HD1         1.3750   -2.4360    0.1210 ha        1 P61      0.169000
     40 HD2         5.1180   -0.4000    0.8720 ha        1 P61      0.199000
     41 HE2         6.3500   -2.1730   -0.4460 ha        1 P61      0.127000
     42 OH          5.2650   -4.2530   -1.5670 oh        1 P61     -0.525100
     43 C2A        -2.0800    5.2200   -1.5180 c3        1 P61     -0.024900
     44 O4P        -3.6740   -0.8350   -0.3310 os        1 P61     -0.580200
@<TRIPOS>BOND
     1    1    4 1   
     2    1   13 1   
     3    1   26 1   
     4    2   24 1   
     5    3   13 2   
     6    3   20 1   
     7    5   17 1   
     8    5   18 1   
     9    5   19 1   
    10    5   44 1   
    11    6    7 1   
    12    6   12 1   
    13    6   29 1   
    14    7    8 2   
    15    7   43 1   
    16    8    9 1   
    17    8   10 1   
    18    9   27 1   
    19   10   11 1   
    20   10   20 2   
    21   11   12 2   
    22   11   21 1   
    23   12   28 1   
    24   13   14 1   
    25   14   15 1   
    26   14   30 1   
    27   14   31 1   
    28   15   22 ar  
    29   15   23 ar  
    30   16   24 ar  
    31   16   25 ar  
    32   16   42 1   
    33   20   36 1   
    34   21   37 1   
    35   21   38 1   
    36   21   44 1   
    37   22   24 ar  
    38   22   39 1   
    39   23   25 ar  
    40   23   40 1   
    41   25   41 1   
    42   32   42 1   
    43   33   43 1   
    44   34   43 1   
    45   35   43 1   
@<TRIPOS>SUBSTRUCTURE
     1 P61         1 TEMP              0 ****  ****    0 ROOT
