@<TRIPOS>MOLECULE
P63
   48    51     1     0     0
SMALL
bcc


@<TRIPOS>ATOM
      1 N01        -0.9450    0.1100    0.2430 n2        1 P63     -0.059000
      2 C02         0.1920   -0.5910    0.0370 c2        1 P63     -0.009000
      3 C03         0.8880   -0.8720    1.2880 c2        1 P63     -0.014000
      4 C04         0.0980   -0.2870    2.2980 c2        1 P63      0.060000
      5 N05        -1.0370    0.3090    1.5750 na        1 P63     -0.140000
      6 N06         0.2100   -0.1920    3.6630 n2        1 P63     -0.184000
      7 C07        -0.7620    0.5010    4.2960 c2        1 P63      0.155000
      8 N08        -1.9150    1.0680    3.6780 n2        1 P63     -0.189000
      9 C09        -2.0020    0.9550    2.3450 c2        1 P63      0.189000
     10 N10        -3.1920    1.5470    1.6490 n4        1 P63      0.070000
     11 C11        -4.1990    0.5310    1.3120 ca        1 P63     -0.177000
     12 C12        -5.1310    0.1340    2.2910 ca        1 P63     -0.089500
     13 C13        -6.1320   -0.7650    1.9380 ca        1 P63     -0.099500
     14 C14        -6.2080   -1.2700    0.6350 ca        1 P63     -0.041000
     15 C15        -5.2740   -0.8750   -0.3250 ca        1 P63     -0.099500
     16 C16        -4.2600    0.0250    0.0000 ca        1 P63     -0.089500
     17 N17        -0.6360    0.7590    5.6910 nh        1 P63     -0.262000
     18 C18         0.4740    0.1920    6.4170 c3        1 P63     -0.020000
     19 C19         0.8860    1.0290    7.5840 c2        1 P63      0.073000
     20 C20         1.5020    0.4630    8.6850 c2        1 P63     -0.176000
     21 C21         1.6140   -0.9620    8.7950 c2        1 P63      0.137000
     22 C22         1.1020   -1.7900    7.7970 c2        1 P63     -0.189000
     23 C23         0.4800   -1.2720    6.6760 c2        1 P63      0.098000
     24 C25         2.0890   -1.5670    1.4580 c1        1 P63     -0.116000
     25 N26         3.0870   -2.1460    1.6080 n1        1 P63      0.084000
     26 N27         1.9960    1.3020    9.7790 n4        1 P63     -0.103000
     27 C28         0.8890    2.1450   10.5090 c2        1 P63      0.303000
     28 O29        -0.1090    2.3240    9.8450 o         1 P63     -0.156000
     29 C30         1.2610    2.5750   11.8770 c3        1 P63     -0.263000
     30 H02         0.5170   -0.8900   -0.9730 h4        1 P63      0.253000
     31 HN10       -3.6260    2.2520    2.2710 hn        1 P63      0.294000
     32 H12        -5.0930    0.5330    3.3180 ha        1 P63      0.163500
     33 H13        -6.8790   -1.0720    2.6920 ha        1 P63      0.186500
     34 H14        -7.0130   -1.9770    0.3640 ha        1 P63      0.190000
     35 H15        -5.3380   -1.2680   -1.3550 ha        1 P63      0.186500
     36 H16        -3.5390    0.3310   -0.7780 ha        1 P63      0.163500
     37 HN17        1.4320    0.2890    5.7250 h1        1 P63      0.279000
     38 H19         0.7170    2.1260    7.4950 ha        1 P63      0.227000
     39 H21         2.0900   -1.4310    9.6860 ha        1 P63      0.218000
     40 H22         1.1760   -2.8950    7.9260 ha        1 P63      0.241000
     41 H23         0.0360   -1.9460    5.9100 ha        1 P63      0.230000
     42 HN27        2.6940    1.9630    9.4050 hn        1 P63      0.277000
     43 H301        2.3590    2.7440   12.0180 hc        1 P63      0.185667
     44 H302        0.9060    1.8070   12.6200 hc        1 P63      0.185667
     45 H303        0.7190    3.5420   12.0990 hc        1 P63      0.185667
     46 H102       -2.8740    2.0120    0.7790 hn        1 P63      0.294000
     47 H172       -1.4970    0.8380    6.1990 hn        1 P63      0.273000
     48 H272        2.4670    0.7160   10.4830 hn        1 P63      0.277000
@<TRIPOS>BOND
     1    1    2 1   
     2    1    5 1   
     3    2    3 1   
     4    2   30 1   
     5    3    4 1   
     6    3   24 1   
     7    4    5 1   
     8    4    6 1   
     9    5    9 1   
    10    6    7 1   
    11    7    8 1   
    12    7   17 1   
    13    8    9 1   
    14    9   10 1   
    15   10   11 1   
    16   10   31 1   
    17   10   46 1   
    18   11   12 1   
    19   11   16 1   
    20   12   13 1   
    21   12   32 1   
    22   13   14 1   
    23   13   33 1   
    24   14   15 1   
    25   14   34 1   
    26   15   16 1   
    27   15   35 1   
    28   16   36 1   
    29   17   18 1   
    30   17   47 1   
    31   18   19 1   
    32   18   23 1   
    33   18   37 1   
    34   19   20 1   
    35   19   38 1   
    36   20   21 1   
    37   20   26 1   
    38   21   22 1   
    39   21   39 1   
    40   22   23 1   
    41   22   40 1   
    42   23   41 1   
    43   24   25 1   
    44   26   27 1   
    45   26   42 1   
    46   26   48 1   
    47   27   28 1   
    48   27   29 1   
    49   29   43 1   
    50   29   44 1   
    51   29   45 1   
@<TRIPOS>SUBSTRUCTURE
     1 P63         1 TEMP              0 ****  ****    0 ROOT
