@<TRIPOS>MOLECULE
P63
   45    48     1     0     0
SMALL
bcc


@<TRIPOS>ATOM
      1 N01        -3.5800   -2.5140   -0.7380 nc        1 P63     -0.574100
      2 C02        -3.0440   -3.7540   -0.7490 cd        1 P63      0.443500
      3 C03        -1.6420   -3.7390   -0.3850 cd        1 P63     -0.226300
      4 C04        -1.3320   -2.3730   -0.1400 cc        1 P63      0.490500
      5 N05        -2.5820   -1.6750   -0.3740 na        1 P63     -0.177600
      6 N06        -0.1840   -1.7390    0.2360 nc        1 P63     -0.750000
      7 C07        -0.2880   -0.3800    0.3830 cd        1 P63      0.935900
      8 N08        -1.4530    0.3860    0.1370 nd        1 P63     -0.825000
      9 C09        -2.5790   -0.2600   -0.2460 cc        1 P63      0.854400
     10 N10        -3.7430    0.4340   -0.5820 nh        1 P63     -0.721300
     11 C11        -3.9220    1.8050   -0.2700 ca        1 P63      0.121600
     12 C12        -3.0380    2.7890   -0.7560 ca        1 P63     -0.127000
     13 C13        -3.2830    4.1340   -0.4840 ca        1 P63     -0.118000
     14 C14        -4.3990    4.5190    0.2560 ca        1 P63     -0.128000
     15 C15        -5.2810    3.5500    0.7330 ca        1 P63     -0.118000
     16 C16        -5.0510    2.2010    0.4810 ca        1 P63     -0.127000
     17 N17         0.7990    0.3590    0.8620 nh        1 P63     -0.702300
     18 C18         2.1250   -0.1410    0.8670 ca        1 P63      0.148600
     19 C19         3.1330    0.6240    0.2400 ca        1 P63     -0.189000
     20 C20         4.4750    0.2080    0.2920 ca        1 P63      0.083600
     21 C21         4.7940   -0.9970    0.9670 ca        1 P63     -0.187000
     22 C22         3.7920   -1.7400    1.5730 ca        1 P63     -0.092000
     23 C23         2.4610   -1.3280    1.5430 ca        1 P63     -0.127000
     24 C25        -0.7850   -4.8350   -0.2930 ch        1 P63      0.254500
     25 N26        -0.0720   -5.7530   -0.2160 n1        1 P63     -0.387800
     26 N27         5.5190    0.9270   -0.3140 n         1 P63     -0.475100
     27 C28         5.4660    2.1970   -0.8730 c         1 P63      0.667100
     28 O29         4.4260    2.8790   -0.9160 o         1 P63     -0.593100
     29 C30         6.7650    2.7230   -1.4420 c3        1 P63     -0.179100
     30 H02        -3.6390   -4.6350   -1.0070 h4        1 P63      0.063800
     31 HN10       -4.5870   -0.0990   -0.6500 hn        1 P63      0.464800
     32 H12        -2.1540    2.5080   -1.3480 ha        1 P63      0.145500
     33 H13        -2.5850    4.8950   -0.8650 ha        1 P63      0.139000
     34 H14        -4.5840    5.5830    0.4630 ha        1 P63      0.138000
     35 H15        -6.1640    3.8490    1.3170 ha        1 P63      0.139000
     36 H16        -5.7570    1.4500    0.8700 ha        1 P63      0.145500
     37 HN17        0.7270    1.3530    0.7580 hn        1 P63      0.454800
     38 H19         2.8650    1.5550   -0.2880 ha        1 P63      0.174000
     39 H21         5.8330   -1.3550    1.0150 ha        1 P63      0.132000
     40 H22         4.0510   -2.6760    2.0920 ha        1 P63      0.141000
     41 H23         1.6940   -1.9380    2.0420 ha        1 P63      0.161000
     42 HN27        6.4070    0.4760   -0.3030 hn        1 P63      0.317500
     43 H301        7.1310    2.0590   -2.2620 hc        1 P63      0.070033
     44 H302        6.5820    3.7440   -1.8570 hc        1 P63      0.070033
     45 H303        7.5450    2.7890   -0.6460 hc        1 P63      0.070033
@<TRIPOS>BOND
     1    1    2 2   
     2    1    5 1   
     3    2    3 1   
     4    2   30 1   
     5    3    4 2   
     6    3   24 1   
     7    4    5 1   
     8    4    6 1   
     9    5    9 1   
    10    6    7 2   
    11    7    8 1   
    12    7   17 1   
    13    8    9 2   
    14    9   10 1   
    15   10   11 1   
    16   10   31 1   
    17   11   12 ar  
    18   11   16 ar  
    19   12   13 ar  
    20   12   32 1   
    21   13   14 ar  
    22   13   33 1   
    23   14   15 ar  
    24   14   34 1   
    25   15   16 ar  
    26   15   35 1   
    27   16   36 1   
    28   17   18 1   
    29   17   37 1   
    30   18   19 ar  
    31   18   23 ar  
    32   19   20 ar  
    33   19   38 1   
    34   20   21 ar  
    35   20   26 1   
    36   21   22 ar  
    37   21   39 1   
    38   22   23 ar  
    39   22   40 1   
    40   23   41 1   
    41   24   25 3   
    42   26   27 1   
    43   26   42 1   
    44   27   28 2   
    45   27   29 1   
    46   29   43 1   
    47   29   44 1   
    48   29   45 1   
@<TRIPOS>SUBSTRUCTURE
     1 P63         1 TEMP              0 ****  ****    0 ROOT
