@<TRIPOS>MOLECULE
P63
   45    48     1     0     0
SMALL
bcc


@<TRIPOS>ATOM
      1 N01        -0.1860    0.3490   -0.0610 nc        1 P63     -0.574100
      2 C02         1.1580    0.2710   -0.1690 cd        1 P63      0.443500
      3 C03         1.7900    0.0370    1.1120 cd        1 P63     -0.226300
      4 C04         0.7230   -0.0290    2.0510 cc        1 P63      0.490500
      5 N05        -0.4700    0.1680    1.2500 na        1 P63     -0.177600
      6 N06         0.6900   -0.2310    3.3990 nc        1 P63     -0.750000
      7 C07        -0.5610   -0.2370    3.9590 cd        1 P63      0.935900
      8 N08        -1.7730   -0.0130    3.2630 nd        1 P63     -0.825000
      9 C09        -1.7190    0.1960    1.9270 cc        1 P63      0.854400
     10 N10        -2.8620    0.5010    1.1850 nu        1 P63     -0.721300
     11 C11        -4.1690    0.3250    1.7070 ca        1 P63      0.121600
     12 C12        -4.5880    0.9920    2.8750 ca        1 P63     -0.127000
     13 C13        -5.9010    0.8490    3.3200 ca        1 P63     -0.118000
     14 C14        -6.8090    0.0590    2.6170 ca        1 P63     -0.128000
     15 C15        -6.4010   -0.5970    1.4560 ca        1 P63     -0.118000
     16 C16        -5.0930   -0.4750    0.9990 ca        1 P63     -0.127000
     17 N17        -0.7220   -0.5340    5.3170 nu        1 P63     -0.702300
     18 C18         0.3470   -0.4770    6.2470 ca        1 P63      0.148600
     19 C19         0.1870    0.3170    7.4040 ca        1 P63     -0.189000
     20 C20         1.1860    0.3390    8.3930 ca        1 P63      0.083600
     21 C21         2.3590   -0.4320    8.1990 ca        1 P63     -0.187000
     22 C22         2.5030   -1.2020    7.0550 ca        1 P63     -0.092000
     23 C23         1.5120   -1.2450    6.0770 ca        1 P63     -0.127000
     24 C25         3.1550   -0.0980    1.3660 ch        1 P63      0.254500
     25 N26         4.2950   -0.2100    1.5740 n1        1 P63     -0.387800
     26 N27         1.0820    1.1100    9.5620 ns        1 P63     -0.475100
     27 C28        -0.0290    1.7980   10.0330 c         1 P63      0.667100
     28 O29        -1.1190    1.8230    9.4340 o         1 P63     -0.593100
     29 C30         0.1570    2.5340   11.3410 c3        1 P63     -0.179100
     30 H02         1.6640    0.3780   -1.1330 h4        1 P63      0.063800
     31 HN10       -2.7910    0.4360    0.1900 hn        1 P63      0.464800
     32 H12        -3.8900    1.6260    3.4420 ha        1 P63      0.145500
     33 H13        -6.2180    1.3700    4.2360 ha        1 P63      0.139000
     34 H14        -7.8430   -0.0470    2.9760 ha        1 P63      0.138000
     35 H15        -7.1140   -1.2210    0.8970 ha        1 P63      0.139000
     36 H16        -4.7890   -1.0040    0.0820 ha        1 P63      0.145500
     37 HN17       -1.6230   -0.3290    5.7020 hn        1 P63      0.454800
     38 H19        -0.7300    0.9180    7.5330 ha        1 P63      0.174000
     39 H21         3.1640   -0.4270    8.9500 ha        1 P63      0.132000
     40 H22         3.4210   -1.7960    6.9140 ha        1 P63      0.141000
     41 H23         1.6570   -1.8750    5.1860 ha        1 P63      0.161000
     42 HN27        1.8990    1.1290   10.1320 hn        1 P63      0.317500
     43 H301        0.4250    1.8230   12.1590 hc        1 P63      0.070033
     44 H302        0.9590    3.3050   11.2480 hc        1 P63      0.070033
     45 H303       -0.8050    3.0410   11.6020 hc        1 P63      0.070033
@<TRIPOS>BOND
     1    1    2 2   
     2    1    5 1   
     3    2    3 1   
     4    2   30 1   
     5    3    4 2   
     6    3   24 1   
     7    4    5 1   
     8    4    6 1   
     9    5    9 1   
    10    6    7 2   
    11    7    8 1   
    12    7   17 1   
    13    8    9 2   
    14    9   10 1   
    15   10   11 1   
    16   10   31 1   
    17   11   12 ar  
    18   11   16 ar  
    19   12   13 ar  
    20   12   32 1   
    21   13   14 ar  
    22   13   33 1   
    23   14   15 ar  
    24   14   34 1   
    25   15   16 ar  
    26   15   35 1   
    27   16   36 1   
    28   17   18 1   
    29   17   37 1   
    30   18   19 ar  
    31   18   23 ar  
    32   19   20 ar  
    33   19   38 1   
    34   20   21 ar  
    35   20   26 1   
    36   21   22 ar  
    37   21   39 1   
    38   22   23 ar  
    39   22   40 1   
    40   23   41 1   
    41   24   25 3   
    42   26   27 1   
    43   26   42 1   
    44   27   28 2   
    45   27   29 1   
    46   29   43 1   
    47   29   44 1   
    48   29   45 1   
@<TRIPOS>SUBSTRUCTURE
     1 P63         1 TEMP              0 ****  ****    0 ROOT
