@<TRIPOS>MOLECULE
P63
   45    48     1     0     0
SMALL
bcc


@<TRIPOS>ATOM
      1 N01        -0.1890    0.3590   -0.0700 nc        1 P63     -0.574100
      2 C02         1.1540    0.2700   -0.1800 cd        1 P63      0.443500
      3 C03         1.7860    0.0250    1.0990 cd        1 P63     -0.226300
      4 C04         0.7190   -0.0370    2.0390 cc        1 P63      0.490500
      5 N05        -0.4730    0.1730    1.2400 na        1 P63     -0.177600
      6 N06         0.6860   -0.2450    3.3860 nc        1 P63     -0.750000
      7 C07        -0.5640   -0.2430    3.9480 cd        1 P63      0.935900
      8 N08        -1.7750   -0.0060    3.2550 nd        1 P63     -0.825000
      9 C09        -1.7210    0.2090    1.9200 cc        1 P63      0.854400
     10 N10        -2.8630    0.5280    1.1810 nh        1 P63     -0.721300
     11 C11        -4.1700    0.3600    1.7040 ca        1 P63      0.121600
     12 C12        -4.5820    1.0250    2.8750 ca        1 P63     -0.127000
     13 C13        -5.8950    0.8910    3.3220 ca        1 P63     -0.118000
     14 C14        -6.8110    0.1120    2.6170 ca        1 P63     -0.128000
     15 C15        -6.4100   -0.5420    1.4520 ca        1 P63     -0.118000
     16 C16        -5.1020   -0.4290    0.9930 ca        1 P63     -0.127000
     17 N17        -0.7250   -0.5460    5.3050 nh        1 P63     -0.702300
     18 C18         0.3450   -0.5020    6.2330 ca        1 P63      0.148600
     19 C19         0.1930    0.2860    7.3950 ca        1 P63     -0.190000
     20 C20         1.1930    0.2950    8.3830 ca        1 P63      0.083600
     21 C21         2.3600   -0.4840    8.1840 ca        1 P63     -0.187000
     22 C22         2.4970   -1.2490    7.0340 ca        1 P63     -0.092000
     23 C23         1.5040   -1.2790    6.0580 ca        1 P63     -0.127000
     24 C25         3.1490   -0.1230    1.3510 ch        1 P63      0.254500
     25 N26         4.2890   -0.2460    1.5560 n1        1 P63     -0.387800
     26 N27         1.0980    1.0610    9.5570 n         1 P63     -0.475100
     27 C28        -0.0070    1.7540   10.0330 c         1 P63      0.667100
     28 O29        -1.0980    1.7920    9.4350 o         1 P63     -0.593100
     29 C30         0.1850    2.4820   11.3450 c3        1 P63     -0.179100
     30 H02         1.6600    0.3770   -1.1440 h4        1 P63      0.063800
     31 HN10       -2.7930    0.4660    0.1850 hn        1 P63      0.464800
     32 H12        -3.8770    1.6500    3.4450 ha        1 P63      0.145500
     33 H13        -6.2070    1.4100    4.2410 ha        1 P63      0.139000
     34 H14        -7.8450    0.0130    2.9770 ha        1 P63      0.138000
     35 H15        -7.1300   -1.1570    0.8910 ha        1 P63      0.139000
     36 H16        -4.8040   -0.9560    0.0730 ha        1 P63      0.145500
     37 HN17       -1.6250   -0.3350    5.6920 hn        1 P63      0.454800
     38 H19        -0.7190    0.8940    7.5290 ha        1 P63      0.174000
     39 H21         3.1660   -0.4890    8.9330 ha        1 P63      0.132000
     40 H22         3.4090   -1.8490    6.8890 ha        1 P63      0.141000
     41 H23         1.6430   -1.9050    5.1630 ha        1 P63      0.161000
     42 HN27        1.9150    1.0700   10.1250 hn        1 P63      0.317500
     43 H301        0.4500    1.7640   12.1580 hc        1 P63      0.070033
     44 H302        0.9930    3.2480   11.2540 hc        1 P63      0.070033
     45 H303       -0.7720    2.9940   11.6100 hc        1 P63      0.070033
@<TRIPOS>BOND
     1    1    2 2   
     2    1    5 1   
     3    2    3 1   
     4    2   30 1   
     5    3    4 2   
     6    3   24 1   
     7    4    5 1   
     8    4    6 1   
     9    5    9 1   
    10    6    7 2   
    11    7    8 1   
    12    7   17 1   
    13    8    9 2   
    14    9   10 1   
    15   10   11 1   
    16   10   31 1   
    17   11   12 ar  
    18   11   16 ar  
    19   12   13 ar  
    20   12   32 1   
    21   13   14 ar  
    22   13   33 1   
    23   14   15 ar  
    24   14   34 1   
    25   15   16 ar  
    26   15   35 1   
    27   16   36 1   
    28   17   18 1   
    29   17   37 1   
    30   18   19 ar  
    31   18   23 ar  
    32   19   20 ar  
    33   19   38 1   
    34   20   21 ar  
    35   20   26 1   
    36   21   22 ar  
    37   21   39 1   
    38   22   23 ar  
    39   22   40 1   
    40   23   41 1   
    41   24   25 3   
    42   26   27 1   
    43   26   42 1   
    44   27   28 2   
    45   27   29 1   
    46   29   43 1   
    47   29   44 1   
    48   29   45 1   
@<TRIPOS>SUBSTRUCTURE
     1 P63         1 TEMP              0 ****  ****    0 ROOT
