@<TRIPOS>MOLECULE
P63
   45    39     1     0     0
SMALL
bcc


@<TRIPOS>ATOM
      1 N01         0.5730    1.4980   -4.2100 n2        1 P63     -0.082000
      2 C02         1.9200    1.5830   -4.1490 c1        1 P63     -0.068000
      3 C03         2.2990    1.3790   -2.8500 c1        1 P63     -0.173000
      4 C04         1.1520    1.1640   -2.0990 c1        1 P63      0.131000
      5 N05         0.0980    1.2360   -2.9260 n2        1 P63     -0.161000
      6 N06         0.9580    0.9730   -0.7600 n1        1 P63     -0.225000
      7 C07        -0.2880    0.8570   -0.2720 c1        1 P63      0.216000
      8 N08        -1.3540    0.9300   -1.1070 n1        1 P63     -0.319000
      9 C09        -1.1630    1.1190   -2.4300 c1        1 P63      0.303000
     10 N10        -2.3910    1.2830   -3.1820 n3        1 P63     -0.232000
     11 C11        -3.0470    0.1410   -3.7350 c2        1 P63      0.006000
     12 C12        -4.1790   -0.3750   -3.1190 c2        1 P63     -0.136000
     13 C13        -4.7970   -1.5030   -3.6360 c1        1 P63     -0.125000
     14 C14        -4.2850   -2.1160   -4.7670 c1        1 P63     -0.121000
     15 C15        -3.1540   -1.6020   -5.3820 c1        1 P63     -0.121000
     16 C16        -2.5360   -0.4720   -4.8650 c1        1 P63     -0.071000
     17 N17        -0.4570    1.0710    1.1340 n3        1 P63     -0.221000
     18 C18         0.1500    0.1600    2.0840 c2        1 P63      0.065000
     19 C19         1.0930    0.6300    2.9890 c2        1 P63     -0.161000
     20 C20         1.6140   -0.2240    3.9580 c1        1 P63      0.095000
     21 C21         1.1900   -1.5430    4.0190 c2        1 P63     -0.160000
     22 C22         0.2490   -2.0120    3.1160 c1        1 P63     -0.091000
     23 C23        -0.2730   -1.1590    2.1460 c1        1 P63     -0.191000
     24 C25         3.7410    1.3490   -2.3930 c1        1 P63     -0.034000
     25 N26         4.8300    1.3270   -2.0490 n1        1 P63     -0.069000
     26 N27         2.6370    0.2400    4.8430 n2        1 P63     -0.329000
     27 C28         2.8210   -0.3890    6.1120 c2        1 P63      0.312000
     28 O29         2.1040   -1.3220    6.4380 o         1 P63     -0.352000
     29 C30         3.8170    0.1880    7.1090 c3        1 P63     -0.247000
     30 H02         2.5200    1.7540   -4.9040 DU        1 P63      0.194000
     31 HN10       -2.7710    2.1170   -3.2660 hn        1 P63      0.248000
     32 H12        -4.5410    0.0580   -2.3190 ha        1 P63      0.137000
     33 H13        -5.5860   -1.8630   -3.2060 ha        1 P63      0.139000
     34 H14        -4.7180   -2.9070   -5.1290 ha        1 P63      0.139000
     35 H15        -2.7910   -2.0360   -6.1840 ha        1 P63      0.139000
     36 H16        -1.7380   -0.1090   -5.2990 ha        1 P63      0.151000
     37 HN17       -0.9720    1.7590    1.4300 hn        1 P63      0.244000
     38 H19         1.3910    1.5600    2.9460 ha        1 P63      0.158000
     39 H21         1.5560   -2.1420    4.6980 ha        1 P63      0.177000
     40 H22        -0.0490   -2.9400    3.1590 ha        1 P63      0.138000
     41 H23        -0.9320   -1.4880    1.5130 ha        1 P63      0.133000
     42 HN27        3.2120    0.8920    4.5720 hn        1 P63      0.236000
     43 H301        4.6520    0.4200    6.6420 hc        1 P63      0.110000
     44 H302        3.4380    0.9930    7.5200 hc        1 P63      0.110000
     45 H303        4.0070   -0.4810    7.8080 hc        1 P63      0.110000
@<TRIPOS>BOND
     1    1    2 1   
     2    1    5 1   
     3    2    3 1   
     4    3    4 1   
     5    4    6 1   
     6    5    9 1   
     7    7    8 1   
     8    7   17 1   
     9    9   10 1   
    10   10   11 1   
    11   10   31 1   
    12   11   12 1   
    13   11   16 1   
    14   12   13 1   
    15   12   32 1   
    16   13   33 1   
    17   14   15 1   
    18   14   34 1   
    19   15   35 1   
    20   16   36 1   
    21   17   18 1   
    22   17   37 1   
    23   18   19 1   
    24   18   23 1   
    25   19   20 1   
    26   19   38 1   
    27   20   21 1   
    28   21   22 1   
    29   21   39 1   
    30   22   40 1   
    31   23   41 1   
    32   24   25 1   
    33   26   27 1   
    34   26   42 1   
    35   27   28 1   
    36   27   29 1   
    37   29   43 1   
    38   29   44 1   
    39   29   45 1   
@<TRIPOS>SUBSTRUCTURE
     1 P63         1 TEMP              0 ****  ****    0 ROOT
