@<TRIPOS>MOLECULE
P65
   38    31     1     0     0
SMALL
bcc


@<TRIPOS>ATOM
      1 NH2        -1.2450    2.3300   -0.1560 n3        1 P65     -0.330000
      2 C5         -0.8630    2.7360    1.1450 c1        1 P65      0.178000
      3 N4         -1.5790    3.6730    1.7910 n1        1 P65     -0.289000
      4 C3         -1.1390    4.1660    2.9880 c1        1 P65      0.183000
      5 NH1        -1.8970    5.1470    3.6710 n2        1 P65     -0.325000
      6 N2          0.0260    3.7090    3.5300 n2        1 P65     -0.254000
      7 C6          0.3030    2.2770    1.6860 c1        1 P65     -0.184000
      8 C1          0.7430    2.7750    2.8900 c1        1 P65      0.083000
      9 CM1         2.0880    2.3710    3.4210 c2        1 P65     -0.181000
     10 O7          1.0680    1.2520    1.0020 os        1 P65     -0.214000
     11 C8          0.5390   -0.0650    1.1570 c3        1 P65     -0.030000
     12 C9          1.4150   -1.0550    0.4070 c3        1 P65     -0.168000
     13 C10         0.5270   -1.9920   -0.4290 c3        1 P65     -0.018000
     14 O11         1.2530   -2.4300   -1.5910 os        1 P65     -0.220000
     15 C12         0.4350   -2.9940   -2.5990 c2        1 P65      0.065000
     16 C17         0.0970   -4.3330   -2.5450 c2        1 P65     -0.124000
     17 C16        -0.6530   -4.8990   -3.5610 c1        1 P65     -0.053000
     18 CL3        -1.0230   -6.5790   -3.5230 cl        1 P65      0.021000
     19 C15        -1.0660   -4.1220   -4.6340 c1        1 P65     -0.063000
     20 CL2        -2.1630   -4.7900   -5.8180 cl        1 P65      0.019000
     21 C14        -0.7290   -2.7850   -4.6880 c1        1 P65     -0.108000
     22 C13         0.0230   -2.2180   -3.6700 c1        1 P65     -0.075000
     23 CL1         0.2710   -0.5150   -3.6370 cl        1 P65      0.019000
     24 H1         -2.1360    2.2510   -0.3680 hn        1 P65      0.215500
     25 H2         -0.6100    2.2140   -0.8020 hn        1 P65      0.215500
     26 H3         -1.5310    5.5920    4.4000 hn        1 P65      0.223000
     27 H4         -2.7230    5.3740    3.3700 hn        1 P65      0.223000
     28 H5          2.7040    2.2700    2.6910 ha        1 P65      0.101333
     29 H6          2.0090    1.5330    3.8930 ha        1 P65      0.101333
     30 H7          2.4150    3.0520    4.0260 ha        1 P65      0.101333
     31 H8          0.5220   -0.2990    2.1030 h1        1 P65      0.083000
     32 H9         -0.3730   -0.0970    0.7950 h1        1 P65      0.083000
     33 H10         1.9400   -1.5910    1.0580 hc        1 P65      0.110000
     34 H11         2.0210   -0.5730   -0.1800 hc        1 P65      0.110000
     35 H12        -0.2900   -1.5070   -0.7130 h1        1 P65      0.081500
     36 H13         0.2760   -2.7640    0.1060 h1        1 P65      0.081500
     37 H14         0.3670   -4.8790   -1.7680 ha        1 P65      0.168000
     38 H15        -1.0210   -2.2340   -5.4490 ha        1 P65      0.167000
@<TRIPOS>BOND
     1    1    2 1   
     2    1   24 1   
     3    1   25 1   
     4    2    7 1   
     5    3    4 1   
     6    4    6 1   
     7    5   26 1   
     8    5   27 1   
     9    6    8 1   
    10    7   10 1   
    11    9   28 1   
    12    9   29 1   
    13    9   30 1   
    14   10   11 1   
    15   11   12 1   
    16   11   31 1   
    17   11   32 1   
    18   12   13 1   
    19   12   33 1   
    20   12   34 1   
    21   13   14 1   
    22   13   35 1   
    23   13   36 1   
    24   14   15 1   
    25   15   16 1   
    26   15   22 1   
    27   16   17 1   
    28   16   37 1   
    29   17   18 1   
    30   19   21 1   
    31   21   38 1   
@<TRIPOS>SUBSTRUCTURE
     1 P65         1 TEMP              0 ****  ****    0 ROOT
