@<TRIPOS>MOLECULE
P65
   38    39     1     0     0
SMALL
bcc


@<TRIPOS>ATOM
      1 NH2        -0.0290    0.0940    0.0390 nh        1 P65     -0.933500
      2 C5          1.3560   -0.0210    0.0410 ca        1 P65      0.702200
      3 N4          2.0200   -0.1610    1.2280 nb        1 P65     -0.816000
      4 C3          3.4030   -0.1540    1.1690 ca        1 P65      0.903900
      5 NH1         4.0900   -0.1600    2.3870 nh        1 P65     -0.928500
      6 N2          4.1670   -0.0930    0.0090 nb        1 P65     -0.781000
      7 C6          2.0830    0.0640   -1.1970 ca        1 P65     -0.272500
      8 C1          3.4930    0.0180   -1.1550 ca        1 P65      0.507600
      9 CM1         4.2680    0.0970   -2.4320 c3        1 P65     -0.158400
     10 O7          1.3950    0.0620   -2.3980 os        1 P65     -0.325900
     11 C8          1.1590    1.3890   -2.9030 c3        1 P65      0.120400
     12 C9          0.4210    1.2080   -4.2160 c3        1 P65     -0.092400
     13 C10         0.1280    2.5680   -4.8220 c3        1 P65      0.129400
     14 O11        -0.5840    2.2950   -6.0370 os        1 P65     -0.310900
     15 C12        -0.9580    3.3890   -6.7840 ca        1 P65      0.149100
     16 C17        -0.6930    4.7120   -6.4130 ca        1 P65     -0.195000
     17 C16        -1.1110    5.7660   -7.2310 ca        1 P65      0.053400
     18 CL3        -0.7700    7.3540   -6.7470 cl        1 P65     -0.060400
     19 C15        -1.7960    5.5020   -8.4240 ca        1 P65     -0.011600
     20 CL2        -2.3160    6.7580   -9.4370 cl        1 P65     -0.061400
     21 C14        -2.0620    4.1790   -8.7950 ca        1 P65     -0.086000
     22 C13        -1.6500    3.1190   -7.9880 ca        1 P65     -0.007600
     23 CL1        -1.9990    1.5360   -8.4860 cl        1 P65     -0.056400
     24 H1         -0.4620   -0.1460   -0.8240 hn        1 P65      0.423300
     25 H2         -0.5150   -0.1770    0.8630 hn        1 P65      0.423300
     26 H3          3.5790   -0.4460    3.1890 hn        1 P65      0.428300
     27 H4          5.0490   -0.4160    2.3570 hn        1 P65      0.428300
     28 H5          3.6050   -0.1670   -3.2930 hc        1 P65      0.061700
     29 H6          5.1430   -0.5990   -2.4210 hc        1 P65      0.061700
     30 H7          4.6470    1.1400   -2.5710 hc        1 P65      0.061700
     31 H8          2.1430    1.9050   -3.0550 h1        1 P65      0.040200
     32 H9          0.5450    1.9640   -2.1620 h1        1 P65      0.040200
     33 H10        -0.5360    0.6490   -4.0460 hc        1 P65      0.073200
     34 H11         1.0400    0.5970   -4.9230 hc        1 P65      0.073200
     35 H12        -0.5150    3.1860   -4.1410 h1        1 P65      0.045700
     36 H13         1.0760    3.1200   -5.0580 h1        1 P65      0.045700
     37 H14        -0.1560    4.9380   -5.4790 ha        1 P65      0.159000
     38 H15        -2.6020    3.9740   -9.7350 ha        1 P65      0.167000
@<TRIPOS>BOND
     1    1    2 1   
     2    1   24 1   
     3    1   25 1   
     4    2    3 ar  
     5    2    7 ar  
     6    3    4 ar  
     7    4    5 1   
     8    4    6 ar  
     9    5   26 1   
    10    5   27 1   
    11    6    8 ar  
    12    7    8 ar  
    13    7   10 1   
    14    8    9 1   
    15    9   28 1   
    16    9   29 1   
    17    9   30 1   
    18   10   11 1   
    19   11   12 1   
    20   11   31 1   
    21   11   32 1   
    22   12   13 1   
    23   12   33 1   
    24   12   34 1   
    25   13   14 1   
    26   13   35 1   
    27   13   36 1   
    28   14   15 1   
    29   15   16 ar  
    30   15   22 ar  
    31   16   17 ar  
    32   16   37 1   
    33   17   18 1   
    34   17   19 ar  
    35   19   20 1   
    36   19   21 ar  
    37   21   22 ar  
    38   21   38 1   
    39   22   23 1   
@<TRIPOS>SUBSTRUCTURE
     1 P65         1 TEMP              0 ****  ****    0 ROOT
