@<TRIPOS>MOLECULE
P65
   38    39     1     0     0
SMALL
bcc


@<TRIPOS>ATOM
      1 NH2         4.6410   -0.2510    2.4660 nh        1 P65     -0.933500
      2 C5          5.2770   -0.0360    1.2490 ca        1 P65      0.702200
      3 N4          6.5280    0.5150    1.2300 nb        1 P65     -0.816000
      4 C3          7.0570    0.8080   -0.0160 ca        1 P65      0.903900
      5 NH1         8.2750    1.4950   -0.0420 nh        1 P65     -0.928500
      6 N2          6.4620    0.5230   -1.2390 nb        1 P65     -0.781000
      7 C6          4.5950   -0.3440    0.0210 ca        1 P65     -0.272500
      8 C1          5.2390   -0.0460   -1.2000 ca        1 P65      0.507600
      9 CM1         4.5490   -0.3640   -2.4890 c3        1 P65     -0.158400
     10 O7          3.3940   -1.0300    0.0560 os        1 P65     -0.325900
     11 C8          2.2530   -0.1520    0.0090 c3        1 P65      0.120400
     12 C9          1.0350   -1.0560    0.0380 c3        1 P65     -0.092400
     13 C10        -0.2230   -0.2070   -0.0080 c3        1 P65      0.129400
     14 O11        -1.3110   -1.1410    0.0450 os        1 P65     -0.310900
     15 C12        -2.5780   -0.6040    0.0090 ca        1 P65      0.149100
     16 C17        -2.8390    0.7700   -0.0640 ca        1 P65     -0.195000
     17 C16        -4.1580    1.2300   -0.0960 ca        1 P65      0.053400
     18 CL3        -4.4340    2.9000   -0.1840 cl        1 P65     -0.060400
     19 C15        -5.2230    0.3210   -0.0550 ca        1 P65     -0.011600
     20 CL2        -6.8340    0.8480   -0.0920 cl        1 P65     -0.061400
     21 C14        -4.9620   -1.0520    0.0180 ca        1 P65     -0.086000
     22 C13        -3.6510   -1.5240    0.0510 ca        1 P65     -0.007600
     23 CL1        -3.3930   -3.1980    0.1390 cl        1 P65     -0.056400
     24 H1          3.9210   -0.9380    2.4400 hn        1 P65      0.423300
     25 H2          5.2000   -0.2340    3.2880 hn        1 P65      0.423300
     26 H3          8.7790    1.4760   -0.8980 hn        1 P65      0.428300
     27 H4          8.8140    1.4840    0.7910 hn        1 P65      0.428300
     28 H5          5.2680   -0.7650   -3.2460 hc        1 P65      0.061700
     29 H6          3.7480   -1.1230   -2.3110 hc        1 P65      0.061700
     30 H7          4.0850    0.5660   -2.9000 hc        1 P65      0.061700
     31 H8          2.2770    0.5340    0.8950 h1        1 P65      0.040200
     32 H9          2.2930    0.4510   -0.9350 h1        1 P65      0.040200
     33 H10         1.0560   -1.7580   -0.8360 hc        1 P65      0.073200
     34 H11         1.0410   -1.6830    0.9660 hc        1 P65      0.073200
     35 H12        -0.2790    0.4840    0.8750 h1        1 P65      0.045700
     36 H13        -0.2800    0.3830   -0.9600 h1        1 P65      0.045700
     37 H14        -2.0150    1.4990   -0.0970 ha        1 P65      0.159000
     38 H15        -5.8020   -1.7660    0.0510 ha        1 P65      0.167000
@<TRIPOS>BOND
     1    1    2 1   
     2    1   24 1   
     3    1   25 1   
     4    2    3 ar  
     5    2    7 ar  
     6    3    4 ar  
     7    4    5 1   
     8    4    6 ar  
     9    5   26 1   
    10    5   27 1   
    11    6    8 ar  
    12    7    8 ar  
    13    7   10 1   
    14    8    9 1   
    15    9   28 1   
    16    9   29 1   
    17    9   30 1   
    18   10   11 1   
    19   11   12 1   
    20   11   31 1   
    21   11   32 1   
    22   12   13 1   
    23   12   33 1   
    24   12   34 1   
    25   13   14 1   
    26   13   35 1   
    27   13   36 1   
    28   14   15 1   
    29   15   16 ar  
    30   15   22 ar  
    31   16   17 ar  
    32   16   37 1   
    33   17   18 1   
    34   17   19 ar  
    35   19   20 1   
    36   19   21 ar  
    37   21   22 ar  
    38   21   38 1   
    39   22   23 1   
@<TRIPOS>SUBSTRUCTURE
     1 P65         1 TEMP              0 ****  ****    0 ROOT
