@<TRIPOS>MOLECULE
P65
   38    39     1     0     0
SMALL
bcc


@<TRIPOS>ATOM
      1 NH2        -0.0290    0.0770    0.0300 nv        1 P65     -0.933500
      2 C5          1.3570   -0.0280    0.0360 ca        1 P65      0.702200
      3 N4          2.0170   -0.1670    1.2250 nb        1 P65     -0.816000
      4 C3          3.4000   -0.1500    1.1710 ca        1 P65      0.903900
      5 NH1         4.0830   -0.1550    2.3910 nv        1 P65     -0.928500
      6 N2          4.1670   -0.0800    0.0140 nb        1 P65     -0.781000
      7 C6          2.0870    0.0670   -1.1990 ca        1 P65     -0.272500
      8 C1          3.4970    0.0300   -1.1530 ca        1 P65      0.507600
      9 CM1         4.2770    0.1190   -2.4260 c3        1 P65     -0.158400
     10 O7          1.4040    0.0630   -2.4020 os        1 P65     -0.325900
     11 C8          1.1590    1.3910   -2.9040 c3        1 P65      0.120400
     12 C9          0.4290    1.2090   -4.2200 c3        1 P65     -0.092400
     13 C10         0.1260    2.5700   -4.8210 c3        1 P65      0.129400
     14 O11        -0.5760    2.2950   -6.0430 os        1 P65     -0.310900
     15 C12        -0.9580    3.3900   -6.7850 ca        1 P65      0.149100
     16 C17        -0.7070    4.7130   -6.4060 ca        1 P65     -0.195000
     17 C16        -1.1320    5.7670   -7.2210 ca        1 P65      0.053400
     18 Cl3        -0.8100    7.3560   -6.7270 cl        1 P65     -0.060400
     19 C15        -1.8090    5.5030   -8.4180 ca        1 P65     -0.011600
     20 Cl2        -2.3360    6.7580   -9.4280 cl        1 P65     -0.061400
     21 C14        -2.0590    4.1790   -8.7970 ca        1 P65     -0.086000
     22 C13        -1.6410    3.1190   -7.9940 ca        1 P65     -0.007600
     23 Cl1        -1.9720    1.5360   -8.5030 cl        1 P65     -0.056400
     24 H1         -0.5170   -0.2000    0.8510 hn        1 P65      0.423300
     25 H2         -0.4580   -0.1630   -0.8360 hn        1 P65      0.423300
     26 H3          5.0440   -0.4050    2.3640 hn        1 P65      0.428300
     27 H4          3.5710   -0.4480    3.1910 hn        1 P65      0.428300
     28 H5          3.6180   -0.1460   -3.2900 hc        1 P65      0.061700
     29 H6          5.1560   -0.5710   -2.4140 hc        1 P65      0.061700
     30 H7          4.6490    1.1650   -2.5600 hc        1 P65      0.061700
     31 H8          0.5380    1.9590   -2.1630 h1        1 P65      0.040200
     32 H9          2.1410    1.9150   -3.0490 h1        1 P65      0.040200
     33 H10        -0.5230    0.6410   -4.0580 hc        1 P65      0.073200
     34 H11         1.0560    0.6070   -4.9280 hc        1 P65      0.073200
     35 H12         1.0700    3.1320   -5.0490 h1        1 P65      0.045700
     36 H13        -0.5270    3.1770   -4.1420 h1        1 P65      0.045700
     37 H14        -0.1770    4.9400   -5.4690 ha        1 P65      0.159000
     38 H15        -2.5920    3.9740   -9.7410 ha        1 P65      0.167000
@<TRIPOS>BOND
     1    1    2 1   
     2    1   24 1   
     3    1   25 1   
     4    2    3 ar  
     5    2    7 ar  
     6    3    4 ar  
     7    4    5 1   
     8    4    6 ar  
     9    5   26 1   
    10    5   27 1   
    11    6    8 ar  
    12    7    8 ar  
    13    7   10 1   
    14    8    9 1   
    15    9   28 1   
    16    9   29 1   
    17    9   30 1   
    18   10   11 1   
    19   11   12 1   
    20   11   31 1   
    21   11   32 1   
    22   12   13 1   
    23   12   33 1   
    24   12   34 1   
    25   13   14 1   
    26   13   35 1   
    27   13   36 1   
    28   14   15 1   
    29   15   16 ar  
    30   15   22 ar  
    31   16   17 ar  
    32   16   37 1   
    33   17   18 1   
    34   17   19 ar  
    35   19   20 1   
    36   19   21 ar  
    37   21   22 ar  
    38   21   38 1   
    39   22   23 1   
@<TRIPOS>SUBSTRUCTURE
     1 P65         1 TEMP              0 ****  ****    0 ROOT
