@<TRIPOS>MOLECULE
P65
   40    41     1     0     0
SMALL
bcc


@<TRIPOS>ATOM
      1 NH2        -0.2720    1.1670   -2.1720 n4        1 P65     -0.847300
      2 C5          0.9090    0.6460   -1.4740 ca        1 P65      0.476200
      3 N4          0.7600    0.2320   -0.1790 nb        1 P65     -0.647000
      4 C3          1.8900   -0.2330    0.4180 ca        1 P65      0.710900
      5 NH1         1.7670   -0.6960    1.8310 n4        1 P65     -0.811300
      6 N2          3.1480   -0.3370   -0.1390 nb        1 P65     -0.623000
      7 C6          2.1620    0.5810   -2.1540 ca        1 P65      0.008500
      8 C1          3.2880    0.0600   -1.4150 ca        1 P65      0.488600
      9 CM1         4.6170   -0.0690   -2.0820 c3        1 P65     -0.186400
     10 O7          2.1620    0.8850   -3.4720 os        1 P65     -0.328900
     11 C8          3.1710    1.8140   -3.9760 c3        1 P65      0.144400
     12 C9          2.4730    2.6410   -5.0360 c3        1 P65     -0.134400
     13 C10         1.5630    3.7160   -4.4740 c3        1 P65      0.133400
     14 O11         0.3170    3.1480   -4.0300 os        1 P65     -0.422900
     15 C12        -0.7250    3.2400   -4.9490 ca        1 P65      0.069100
     16 C17        -1.2550    4.4910   -5.2780 ca        1 P65     -0.129000
     17 C16        -2.3600    4.5780   -6.1330 ca        1 P65      0.046400
     18 CL3        -2.9780    6.0970   -6.5130 cl        1 P65      0.013600
     19 C15        -2.9340    3.4040   -6.6590 ca        1 P65      0.024400
     20 CL2        -4.2600    3.4720   -7.6950 cl        1 P65      0.015600
     21 C14        -2.4000    2.1530   -6.3240 ca        1 P65     -0.078000
     22 C13        -1.3000    2.0710   -5.4710 ca        1 P65     -0.034600
     23 CL1        -0.6720    0.5190   -5.0950 cl        1 P65     -0.077400
     24 H1         -0.2150    0.9260   -3.2180 hn        1 P65      0.494800
     25 H2         -0.2720    2.1980   -2.1030 hn        1 P65      0.494800
     26 H3          2.0090   -1.6980    1.8770 hn        1 P65      0.496800
     27 H4          2.4250   -0.1630    2.4190 hn        1 P65      0.496800
     28 H5          5.3300   -0.7030   -1.4910 hc        1 P65      0.106033
     29 H6          5.0760    0.9460   -2.2040 hc        1 P65      0.106033
     30 H7          4.4780   -0.5370   -3.0910 hc        1 P65      0.106033
     31 H8          3.9800    1.1780   -4.4250 h1        1 P65      0.077700
     32 H9          3.5700    2.4410   -3.1400 h1        1 P65      0.077700
     33 H10         3.2750    3.1330   -5.6540 hc        1 P65      0.106200
     34 H11         1.8840    1.9640   -5.7140 hc        1 P65      0.106200
     35 H12         1.9910    4.1830   -3.5460 h1        1 P65      0.080700
     36 H13         1.3800    4.5120   -5.2440 h1        1 P65      0.080700
     37 H14        -0.7990    5.4060   -4.8640 ha        1 P65      0.177000
     38 H15        -2.8480    1.2350   -6.7470 ha        1 P65      0.189000
     39 HH23       -1.1430    0.7940   -1.7780 hn        1 P65      0.494800
     40 HH13        0.8060   -0.5580    2.1780 hn        1 P65      0.496800
@<TRIPOS>BOND
     1    1    2 1   
     2    1   24 1   
     3    1   25 1   
     4    1   39 1   
     5    2    3 ar  
     6    2    7 ar  
     7    3    4 ar  
     8    4    5 1   
     9    4    6 ar  
    10    5   26 1   
    11    5   27 1   
    12    5   40 1   
    13    6    8 ar  
    14    7    8 ar  
    15    7   10 1   
    16    8    9 1   
    17    9   28 1   
    18    9   29 1   
    19    9   30 1   
    20   10   11 1   
    21   11   12 1   
    22   11   31 1   
    23   11   32 1   
    24   12   13 1   
    25   12   33 1   
    26   12   34 1   
    27   13   14 1   
    28   13   35 1   
    29   13   36 1   
    30   14   15 1   
    31   15   16 ar  
    32   15   22 ar  
    33   16   17 ar  
    34   16   37 1   
    35   17   18 1   
    36   17   19 ar  
    37   19   20 1   
    38   19   21 ar  
    39   21   22 ar  
    40   21   38 1   
    41   22   23 1   
@<TRIPOS>SUBSTRUCTURE
     1 P65         1 TEMP              0 ****  ****    0 ROOT
