@<TRIPOS>MOLECULE
P66
   47    61     1     0     0
SMALL
bcc


@<TRIPOS>ATOM
      1 N1          0.0000    0.0000    0.0000 n2        1 P66     -0.224000
      2 N3          2.1100   -0.0000    3.4560 n3        1 P66      0.385000
      3 C4          1.7720    0.0000    4.8180 c2        1 P66     -0.275000
      4 C5          0.8470   -0.9140    5.3060 c3        1 P66      0.163000
      5 C6          2.3660    0.9120    5.6820 c2        1 P66      0.246000
      6 C7          1.3230    0.0000    0.0000 c2        1 P66      0.109000
      7 C8          0.5150   -0.9100    6.6490 c2        1 P66     -0.159000
      8 C10         2.0300    0.9090    7.0250 c3        1 P66      0.026000
      9 C13         0.0640    0.6570   -2.4300 c2        1 P66     -0.172000
     10 C15         0.0110    0.3950   -4.8310 c2        1 P66     -0.091000
     11 C17         1.9540   -0.2670   -3.5950 c2        1 P66     -0.153000
     12 C20        -4.5880    2.8160   -6.0210 cx        1 P66     -0.164000
     13 C21        -5.1210    1.4230   -5.6820 DU        1 P66      0.162000
     14 C19        -4.0850    2.0860   -4.7730 DU        1 P66     -0.025000
     15 N5         -2.6270    1.4800   -4.8490 ny        1 P66     -0.059000
     16 O1         -2.5170    1.6950   -2.6410 o         1 P66     -0.229000
     17 C14        -0.6100    0.7920   -3.6440 c2        1 P66     -0.061000
     18 C16         1.2870   -0.1270   -4.8000 c2        1 P66     -0.277000
     19 Cl1         3.5600   -0.9240   -3.5660 cl        1 P66      0.258000
     20 C12         1.3450    0.1310   -2.4090 c3        1 P66     -0.236000
     21 N4          2.0280    0.0000   -1.1960 n7        1 P66     -0.184000
     22 N6         -0.6950    0.0000    1.0770 n2        1 P66      0.095000
     23 C11        -0.1580    0.0010    2.2790 c2        1 P66     -0.219000
     24 C1          1.2300    0.0000    2.4110 DU        1 P66     -0.256000
     25 C2          2.0050    0.0000    1.2310 c3        1 P66     -0.275000
     26 C3          3.3580   -0.0000    1.6280 c2        1 P66     -0.056000
     27 N2          3.4100   -0.0010    2.9320 n2        1 P66     -0.169000
     28 F1          0.2690   -1.8050    4.4690 f         1 P66     -0.071000
     29 C9          1.1040    0.0020    7.5050 c2        1 P66      0.678000
     30 F2          3.2720    1.7990    5.2140 f         1 P66     -0.071000
     31 H8          0.2600   -0.7190    5.6140 DU        1 P66      0.174000
     32 H10         1.3120    0.0980    7.0270 DU        1 P66     -0.731000
     33 H13         0.3150    0.7580   -1.3810 ha        1 P66      0.271000
     34 H15        -0.1120    0.6050   -3.7750 ha        1 P66      0.236000
     35 H21        -4.0540    1.2400   -5.7170 DU        1 P66      0.146500
     36 H21A       -4.7510    0.6170   -6.3040 ha        1 P66      0.241000
     37 H19        -5.0830    1.7480   -5.0250 DU        1 P66      0.146500
     38 HN5        -3.4020    1.9130   -4.3860 DU        1 P66      0.194000
     39 H16         0.3280    0.3060   -5.0570 ha        1 P66      0.147000
     40 HN4         1.9710   -0.0950   -2.1900 DU        1 P66      0.391000
     41 H11         0.5750   -0.0140    1.4820 DU        1 P66      0.248000
     42 H3          2.3420    0.0000    2.0040 DU        1 P66      0.265000
     43 H9          1.5690    0.0020    6.5270 DU        1 P66      0.053000
     44 H20        -4.2030    2.5790   -5.0360 hc        1 P66      0.082500
     45 H52        -3.4430    0.9590   -4.5920 hn        1 P66      0.053000
     46 C18        -1.9780    1.3520   -3.6750 c2        1 P66      0.301000
     47 H20A       -5.2720    3.6360   -5.8390 hc        1 P66      0.082500
@<TRIPOS>BOND
     1    1    6 1   
     2    1   22 1   
     3    2    3 1   
     4    2   24 1   
     5    2   27 1   
     6    3    4 1   
     7    3    5 1   
     8    4    7 1   
     9    4   28 1   
    10    4   31 1   
    11    5    8 1   
    12    5   30 1   
    13    6   21 1   
    14    6   25 1   
    15    7   29 1   
    16    7   31 1   
    17    8   29 1   
    18    8   32 1   
    19    8   43 1   
    20    9   17 1   
    21    9   20 1   
    22    9   33 1   
    23   10   17 1   
    24   10   18 1   
    25   10   34 1   
    26   11   18 1   
    27   11   19 1   
    28   11   20 1   
    29   12   13 1   
    30   12   14 1   
    31   12   44 1   
    32   12   47 1   
    33   13   14 1   
    34   13   35 1   
    35   13   36 1   
    36   13   37 1   
    37   14   15 1   
    38   14   35 1   
    39   14   37 1   
    40   14   38 1   
    41   15   38 1   
    42   15   45 1   
    43   15   46 1   
    44   16   46 1   
    45   17   46 1   
    46   18   39 1   
    47   20   21 1   
    48   20   40 1   
    49   21   40 1   
    50   22   23 1   
    51   23   24 1   
    52   23   41 1   
    53   24   25 1   
    54   24   41 1   
    55   24   42 1   
    56   25   26 1   
    57   25   42 1   
    58   26   27 1   
    59   26   42 1   
    60   29   43 1   
    61   32   43 1   
@<TRIPOS>SUBSTRUCTURE
     1 P66         1 TEMP              0 ****  ****    0 ROOT
