@<TRIPOS>MOLECULE
P66
   46    39     1     0     0
SMALL
bcc


@<TRIPOS>ATOM
      1 N1         -1.4170    0.3690    1.4810 n1        1 P66     -0.431800
      2 N3          1.4980   -0.7030    4.1690 n3        1 P66     -0.217600
      3 C4          1.8850   -0.8190    5.4630 c1        1 P66      0.036800
      4 C5          1.8970   -2.0680    6.0760 c1        1 P66      0.137100
      5 C6          2.2350    0.3140    6.1880 c1        1 P66      0.141100
      6 C7         -0.1390    0.0580    1.1370 cg        1 P66      0.452800
      7 C8          2.2590   -2.1820    7.4140 c1        1 P66     -0.124500
      8 C10         2.5970    0.2000    7.5250 c1        1 P66     -0.062000
      9 C13        -1.0590    0.7610   -2.4120 c1        1 P66     -0.045500
     10 C15        -0.5690   -1.1430   -3.8050 c1        1 P66     -0.062000
     11 C17         0.0740   -1.1520   -1.4820 c1        1 P66      0.068900
     12 C20        -3.1890    2.0470   -7.0530 cx        1 P66     -0.137900
     13 C21        -1.7500    2.4130   -7.3730 cx        1 P66     -0.137900
     14 C19        -2.1670    0.9540   -7.3110 cx        1 P66      0.042700
     15 N5         -1.7220    0.2240   -6.1460 n         1 P66     -0.537900
     16 C18        -1.6690    0.8760   -4.8660 c         1 P66      0.621300
     17 O1         -1.9990    2.0420   -4.7640 o         1 P66     -0.600100
     18 C14        -1.1100    0.1300   -3.6500 cg        1 P66     -0.079200
     19 C16         0.0230   -1.7840   -2.7210 c1        1 P66     -0.062000
     20 CL1         1.6430   -1.8350   -1.1330 cl        1 P66     -0.065900
     21 C12        -0.4660    0.1190   -1.3270 cg        1 P66      0.094800
     22 N4         -0.3360    0.8050   -0.0720 n2        1 P66     -0.486600
     23 N6         -1.8030    0.3380    2.8030 n1        1 P66     -0.323800
     24 C11        -0.9070   -0.0040    3.7670 c1        1 P66      0.211300
     25 C1          0.4070   -0.3250    3.4170 c1        1 P66      0.083800
     26 C2          0.7840   -0.2950    2.1250 cg        1 P66     -0.204000
     27 C3          2.1270   -0.6580    2.0620 c1        1 P66      0.201800
     28 N2          2.5520   -0.9050    3.3170 n1        1 P66     -0.337800
     29 F1          1.5440   -3.1610    5.3810 f         1 P66     -0.084100
     30 C9          2.6090   -1.0480    8.1380 c1        1 P66     -0.062000
     31 F2          2.5440    1.5530    5.7690 f         1 P66     -0.082100
     32 H8          2.2680   -3.0620    7.8460 ha        1 P66      0.104500
     33 H10         2.8440    1.0010    8.0380 ha        1 P66      0.095000
     34 H13        -1.4400    1.6580   -2.3030 ha        1 P66      0.102500
     35 H15        -0.6050   -1.5880   -4.6780 ha        1 P66      0.095000
     36 H20        -3.8390    2.2020   -7.7740 hc        1 P66      0.081950
     37 H20A       -3.4590    2.1640   -6.1190 hc        1 P66      0.081950
     38 H21        -1.5920    2.7730   -8.2740 hc        1 P66      0.081950
     39 H21A       -1.2140    2.7350   -6.6180 hc        1 P66      0.081950
     40 H19        -2.2430    0.4950   -8.1760 h1        1 P66      0.080700
     41 HN5        -1.5000   -0.6620   -6.2190 hn        1 P66      0.316500
     42 H16         0.4050   -2.6820   -2.8300 ha        1 P66      0.095000
     43 HN4        -0.3540    1.7220   -0.0470 hn        1 P66      0.429800
     44 H11        -1.1820   -0.0260    4.7070 ha        1 P66      0.121500
     45 H3          2.6690   -0.7220    1.2470 DU        1 P66      0.191000
     46 H9          2.8640   -1.1290    9.0830 ha        1 P66      0.095000
@<TRIPOS>BOND
     1    1    6 3   
     2    2    3 1   
     3    2   25 1   
     4    2   28 1   
     5    3    5 3   
     6    4    7 3   
     7    4   29 1   
     8    5   31 1   
     9    6   26 1   
    10    7   32 1   
    11    8   30 3   
    12    8   33 1   
    13    9   18 3   
    14    9   34 1   
    15   10   19 3   
    16   10   35 1   
    17   11   20 1   
    18   11   21 3   
    19   12   13 1   
    20   12   14 1   
    21   12   36 1   
    22   12   37 1   
    23   13   14 1   
    24   13   38 1   
    25   13   39 1   
    26   14   15 1   
    27   14   40 1   
    28   15   16 1   
    29   15   41 1   
    30   16   17 2   
    31   16   18 1   
    32   19   42 1   
    33   21   22 1   
    34   22   43 1   
    35   23   24 3   
    36   24   44 1   
    37   25   26 3   
    38   27   28 3   
    39   30   46 1   
@<TRIPOS>SUBSTRUCTURE
     1 P66         1 TEMP              0 ****  ****    0 ROOT
