@<TRIPOS>MOLECULE
P66
   46    50     1     0     0
SMALL
bcc


@<TRIPOS>ATOM
      1 N1         -0.3160   -0.6080   -0.3750 nb        1 P66     -0.385000
      2 N3          3.7100    0.3110   -0.0340 na        1 P66      0.164800
      3 C4          4.9080   -0.4380   -0.1750 ca        1 P66     -0.065200
      4 C5          5.3920   -0.8060   -1.4610 ca        1 P66      0.172400
      5 C6          5.6760   -0.8120    0.9630 ca        1 P66      0.172400
      6 C7          0.1170    0.6210    0.1200 ca        1 P66      0.660200
      7 C8          6.5810   -1.5470   -1.5890 ca        1 P66     -0.181500
      8 C10         6.8670   -1.5440    0.8110 ca        1 P66     -0.181500
      9 C13        -2.8930    0.3880    0.8310 ca        1 P66     -0.056000
     10 C15        -4.9700    1.3890    0.0680 ca        1 P66     -0.110000
     11 C17        -2.8820    2.5670   -0.2390 ca        1 P66     -0.007600
     12 C20        -7.9350   -2.9820    0.0070 cx        1 P66     -0.152900
     13 C21        -6.7200   -3.7970   -0.3290 cx        1 P66     -0.152900
     14 C19        -6.6040   -2.6440    0.6510 cx        1 P66      0.050700
     15 N5         -5.9150   -1.4470    0.3230 n         1 P66     -0.536900
     16 O1         -4.8080   -1.3020    2.3360 o         1 P66     -0.588100
     17 C14        -4.2760    0.3350    0.6670 ca        1 P66     -0.125600
     18 C16        -4.2710    2.5080   -0.3740 ca        1 P66     -0.115000
     19 CL1        -2.0670    3.9510   -0.8080 cl        1 P66     -0.091400
     20 C12        -2.1660    1.5060    0.3670 ca        1 P66      0.137600
     21 N4         -0.7730    1.5950    0.5700 nh        1 P66     -0.713300
     22 N6          0.5000   -1.5160   -0.7350 nb        1 P66     -0.260000
     23 C11         1.8470   -1.3940   -0.6880 ca        1 P66      0.291200
     24 C1          2.4100   -0.1900   -0.2070 ca        1 P66     -0.078500
     25 C2          1.5160    0.8640    0.2150 ca        1 P66     -0.360200
     26 C3          2.4010    1.9340    0.6440 cc        1 P66      0.376800
     27 N2          3.6840    1.5620    0.4970 nd        1 P66     -0.479100
     28 F1          4.7160   -0.4580   -2.5790 f         1 P66     -0.115400
     29 C9          7.3050   -1.9050   -0.4580 ca        1 P66     -0.067000
     30 F2          5.2700   -0.4730    2.2060 f         1 P66     -0.115400
     31 H8          6.9280   -1.8270   -2.5950 ha        1 P66      0.162000
     32 H10         7.4410   -1.8210    1.7080 ha        1 P66      0.162000
     33 H13        -2.3780   -0.4500    1.3330 ha        1 P66      0.180000
     34 H15        -6.0640    1.3510   -0.0420 ha        1 P66      0.147000
     35 H20A       -8.7220   -3.4190    0.6480 hc        1 P66      0.074450
     36 H21        -6.6270   -4.8240    0.0670 hc        1 P66      0.074450
     37 H21A       -6.2840   -3.7070   -1.3390 hc        1 P66      0.074450
     38 H19        -6.4700   -2.8960    1.7300 h1        1 P66      0.121700
     39 HN5        -5.9490   -1.1390   -0.6200 hn        1 P66      0.311500
     40 H16        -4.8120    3.3480   -0.8380 ha        1 P66      0.153000
     41 HN4        -0.3980    2.5220    0.5860 hn        1 P66      0.442800
     42 H11         2.4470   -2.2480   -1.0340 h4        1 P66      0.043100
     43 H3          2.1210    2.9130    1.0390 h4        1 P66      0.062800
     44 H9          8.2380   -2.4810   -0.5690 ha        1 P66      0.152000
     45 C18        -5.0020   -0.8660    1.1850 c         1 P66      0.677700
     46 H20        -8.3590   -2.3180   -0.7660 hc        1 P66      0.074450
@<TRIPOS>BOND
     1    1    6 ar  
     2    1   22 ar  
     3    2    3 1   
     4    2   24 1   
     5    2   27 1   
     6    3    4 ar  
     7    3    5 ar  
     8    4    7 ar  
     9    4   28 1   
    10    5    8 ar  
    11    5   30 1   
    12    6   21 1   
    13    6   25 ar  
    14    7   29 ar  
    15    7   31 1   
    16    8   29 ar  
    17    8   32 1   
    18    9   17 ar  
    19    9   20 ar  
    20    9   33 1   
    21   10   17 ar  
    22   10   18 ar  
    23   10   34 1   
    24   11   18 ar  
    25   11   19 1   
    26   11   20 ar  
    27   12   13 1   
    28   12   14 1   
    29   12   35 1   
    30   12   46 1   
    31   13   14 1   
    32   13   36 1   
    33   13   37 1   
    34   14   15 1   
    35   14   38 1   
    36   15   39 1   
    37   15   45 1   
    38   16   45 2   
    39   17   45 1   
    40   18   40 1   
    41   20   21 1   
    42   21   41 1   
    43   22   23 ar  
    44   23   24 ar  
    45   23   42 1   
    46   24   25 ar  
    47   25   26 1   
    48   26   27 2   
    49   26   43 1   
    50   29   44 1   
@<TRIPOS>SUBSTRUCTURE
     1 P66         1 TEMP              0 ****  ****    0 ROOT
