@<TRIPOS>MOLECULE
P66
   48    46     1     0     0
SMALL
bcc


@<TRIPOS>ATOM
      1 N1         -0.5030    0.8620    0.0130 n2        1 P66     -0.118000
      2 N3          0.2700    0.7810    4.0650 n2        1 P66     -0.037000
      3 C4          0.8470   -0.0340    5.0190 c2        1 P66     -0.152000
      4 C5          0.8340   -1.4230    5.0200 c2        1 P66      0.258000
      5 C6          1.4750    0.6490    6.1860 c2        1 P66      0.127000
      6 C7          0.8730    0.4690    0.1880 c2        1 P66     -0.075000
      7 C8          1.4590   -2.1650    6.0860 c2        1 P66     -0.514000
      8 C10         2.7860    0.4960    6.4910 c2        1 P66     -0.213000
      9 C13         0.3500    1.5880   -2.7050 c2        1 P66     -0.014000
     10 C15         2.1280   -0.4060   -5.4310 c1        1 P66      0.004000
     11 C17         2.3410    0.0850   -2.8910 c2        1 P66      0.151000
     12 C20        -5.7590    2.8590   -4.7790 c1        1 P66      0.232000
     13 C21        -4.5030    2.7600   -4.7350 c2        1 P66     -0.244000
     14 C19        -3.5400    1.9460   -5.6380 c3        1 P66      0.083000
     15 N5         -2.5660    1.2060   -4.9330 n         1 P66     -0.367000
     16 O1         -1.7800    3.0570   -3.8690 o         1 P66     -0.353000
     17 C14        -0.5020    1.0360   -3.5840 c2        1 P66     -0.168000
     18 C16         2.1760   -0.1630   -4.2560 c1        1 P66     -0.242000
     19 CL1         3.6960   -0.6650   -2.1970 cl        1 P66      0.089000
     20 C12         1.5180    0.8980   -2.1600 c2        1 P66     -0.148000
     21 N4          1.8050    1.1740   -0.7420 n4        1 P66      0.059000
     22 N6         -1.3800    1.0210    0.8400 n2        1 P66      0.103000
     23 C11        -1.4590    0.9760    2.2090 c2        1 P66     -0.291000
     24 C1         -0.5220    0.7370    3.1510 c1        1 P66      0.113000
     25 C2          1.3360   -0.5290    0.9840 c2        1 P66     -0.052000
     26 C3          2.6730   -0.9880    1.0160 c1        1 P66     -0.181000
     27 N2          3.7610   -1.3990    1.0770 n1        1 P66      0.081000
     28 F1          0.2730   -2.1140    4.0080 f         1 P66     -0.083000
     29 C9          2.2810   -1.6660    7.0150 c1        1 P66      0.313000
     30 F2          0.6370    1.3900    6.9420 f         1 P66     -0.065000
     31 H8          1.2280   -3.2530    6.1400 ha        1 P66      0.229000
     32 H10         3.2220    0.9470    7.3960 ha        1 P66      0.169500
     33 H13         0.1830    2.6280   -2.3550 ha        1 P66      0.174000
     34 H15        -0.3930    0.0010   -3.9480 ha        1 P66      0.165000
     35 H21        -4.0960   -0.9630   -6.1280 ha        1 P66      0.001500
     36 H21A       -4.1850   -1.5790   -6.3960 ha        1 P66      0.001500
     37 H19        -3.8670    3.3630   -3.9960 ha        1 P66      0.343000
     38 HN5        -3.0520    2.7560   -6.2670 h1        1 P66      0.158000
     39 H16         2.0900   -0.6230   -6.4760 ha        1 P66      0.262000
     40 HN4         2.7760    0.8980   -0.5220 hn        1 P66      0.267000
     41 H11        -2.4850    1.2160    2.5720 h4        1 P66      0.223000
     42 H3          0.6390   -1.0620    1.6680 ha        1 P66      0.208000
     43 H9          3.4920   -0.0010    5.8090 ha        1 P66      0.169500
     44 H20        -4.1520    1.2520   -6.2830 h1        1 P66      0.158000
     45 H52        -2.6300    0.2110   -4.9370 hn        1 P66      0.267000
     46 H42         1.7060    2.1900   -0.5900 hn        1 P66      0.267000
     47 C18        -1.6280    1.8410   -4.1120 c2        1 P66      0.347000
     48 H20A       -6.8340    2.9640   -4.8140 ha        1 P66      0.293000
@<TRIPOS>BOND
     1    1    6 1   
     2    1   22 1   
     3    2    3 1   
     4    2   24 1   
     5    3    4 1   
     6    3    5 1   
     7    4    7 1   
     8    4   28 1   
     9    5    8 1   
    10    5   30 1   
    11    6   21 1   
    12    6   25 1   
    13    7   29 1   
    14    7   31 1   
    15    8   32 1   
    16    8   43 1   
    17    9   17 1   
    18    9   20 1   
    19    9   33 1   
    20   10   18 1   
    21   10   39 1   
    22   11   18 1   
    23   11   19 1   
    24   11   20 1   
    25   12   13 1   
    26   12   48 1   
    27   13   14 1   
    28   13   37 1   
    29   14   15 1   
    30   14   38 1   
    31   14   44 1   
    32   15   45 1   
    33   15   47 1   
    34   16   47 1   
    35   17   34 1   
    36   17   47 1   
    37   20   21 1   
    38   21   40 1   
    39   21   46 1   
    40   22   23 1   
    41   23   24 1   
    42   23   41 1   
    43   25   26 1   
    44   25   42 1   
    45   26   27 1   
    46   35   36 1   
@<TRIPOS>SUBSTRUCTURE
     1 P66         1 TEMP              0 ****  ****    0 ROOT
