@<TRIPOS>MOLECULE
P68
   45    46     1     0     0
SMALL
bcc


@<TRIPOS>ATOM
      1 BR1        -0.1420    0.2920    0.1420 br        1 P68     -0.029100
      2 C8          1.7110    0.3090   -0.0790 ca        1 P68     -0.020900
      3 C7          2.5440    0.6430    0.9950 ca        1 P68     -0.076500
      4 C6          3.9250    0.6560    0.8420 ca        1 P68     -0.137000
      5 C9          2.2780   -0.0100   -1.3150 ca        1 P68     -0.076500
      6 C10         3.6600    0.0020   -1.4900 ca        1 P68     -0.137000
      7 C5          4.4970    0.3360   -0.4100 ca        1 P68      0.016600
      8 N2          5.9130    0.3980   -0.5250 n         1 P68     -0.420100
      9 C4          6.6240   -0.2730   -1.4820 c         1 P68      0.644100
     10 O           6.2080   -0.9110   -2.4570 o         1 P68     -0.497100
     11 N1          8.1480   -0.2550   -1.3760 n4        1 P68     -0.678800
     12 C1          8.8090    1.0590   -1.8280 c3        1 P68      0.229500
     13 C2          8.2960    1.4260   -3.2210 c3        1 P68     -0.128600
     14 C3          8.4630    2.2020   -0.8680 c3        1 P68     -0.128600
     15 C12        10.2970    0.7960   -1.7980 ca        1 P68     -0.184300
     16 C17        10.9240    0.6230   -0.5540 ca        1 P68     -0.106000
     17 C16        12.2950    0.3680   -0.4800 ca        1 P68     -0.098900
     18 C18        12.9630    0.1770    0.8250 ce        1 P68      0.392900
     19 N4         12.3420   -0.5310    1.7420 n2        1 P68     -0.447200
     20 O2         12.9710   -0.6770    2.8820 oh        1 P68     -0.332500
     21 C19        14.3120    0.8070    0.9580 c3        1 P68     -0.164400
     22 C15        13.0500    0.2970   -1.6610 ca        1 P68     -0.071000
     23 C14        12.4290    0.4750   -2.8940 ca        1 P68     -0.119000
     24 C13        11.0570    0.7190   -2.9690 ca        1 P68     -0.088000
     25 H1          2.1120    0.8970    1.9780 ha        1 P68      0.169500
     26 H2          4.5550    0.9220    1.7060 ha        1 P68      0.156500
     27 H3          1.6360   -0.2770   -2.1720 ha        1 P68      0.169500
     28 H4          4.0730   -0.2610   -2.4780 ha        1 P68      0.156500
     29 H5          6.3890    0.8880    0.2040 hn        1 P68      0.345500
     30 H6          8.4850   -0.9980   -2.0060 hn        1 P68      0.463300
     31 H7          8.4690    0.6070   -3.9610 hc        1 P68      0.078200
     32 H8          7.2010    1.6510   -3.1940 hc        1 P68      0.078200
     33 H9          8.8360    2.3440   -3.5650 hc        1 P68      0.078200
     34 H10         7.4360    2.5970   -1.0610 hc        1 P68      0.078200
     35 H11         8.5530    1.9040    0.2040 hc        1 P68      0.078200
     36 H12         9.1890    3.0350   -1.0530 hc        1 P68      0.078200
     37 H13        10.3420    0.7050    0.3770 ha        1 P68      0.137000
     38 H14        12.3900   -1.2580    3.4170 ho        1 P68      0.447000
     39 H15        14.5110    1.1010    2.0200 hc        1 P68      0.067700
     40 H16        15.0990    0.0740    0.6480 hc        1 P68      0.067700
     41 H17        14.3890    1.7150    0.3140 hc        1 P68      0.067700
     42 H18        14.1340    0.0990   -1.6080 ha        1 P68      0.165000
     43 H19        13.0240    0.4230   -3.8200 ha        1 P68      0.163000
     44 H20        10.5980    0.8570   -3.9610 ha        1 P68      0.150000
     45 H121        8.4600   -0.4650   -0.4250 hn        1 P68      0.463300
@<TRIPOS>BOND
     1    1    2 1   
     2    2    3 ar  
     3    2    5 ar  
     4    3    4 ar  
     5    3   25 1   
     6    4    7 ar  
     7    4   26 1   
     8    5    6 ar  
     9    5   27 1   
    10    6    7 ar  
    11    6   28 1   
    12    7    8 1   
    13    8    9 1   
    14    8   29 1   
    15    9   10 2   
    16    9   11 1   
    17   11   12 1   
    18   11   30 1   
    19   11   45 1   
    20   12   13 1   
    21   12   14 1   
    22   12   15 1   
    23   13   31 1   
    24   13   32 1   
    25   13   33 1   
    26   14   34 1   
    27   14   35 1   
    28   14   36 1   
    29   15   16 ar  
    30   15   24 ar  
    31   16   17 ar  
    32   16   37 1   
    33   17   18 1   
    34   17   22 ar  
    35   18   19 2   
    36   18   21 1   
    37   19   20 1   
    38   20   38 1   
    39   21   39 1   
    40   21   40 1   
    41   21   41 1   
    42   22   23 ar  
    43   22   42 1   
    44   23   24 ar  
    45   23   43 1   
    46   24   44 1   
@<TRIPOS>SUBSTRUCTURE
     1 P68         1 TEMP              0 ****  ****    0 ROOT
