@<TRIPOS>MOLECULE
P68
   46    47     1     0     0
SMALL
bcc


@<TRIPOS>ATOM
      1 BR1         0.0780    0.6470   -0.0060 br        1 P68      0.063900
      2 C8          1.9150    0.3860   -0.1020 ca        1 P68      0.042100
      3 C7          2.7900    1.4850   -0.0560 ca        1 P68     -0.078500
      4 C6          4.1650    1.3030   -0.1320 ca        1 P68     -0.081500
      5 C9          2.4420   -0.9090   -0.2240 ca        1 P68     -0.078500
      6 C10         3.8150   -1.1170   -0.3010 ca        1 P68     -0.081500
      7 C5          4.6780   -0.0050   -0.2410 ca        1 P68     -0.099400
      8 N2          6.1310   -0.2120   -0.2600 n4        1 P68     -0.495200
      9 C4          6.7030   -0.2000   -1.6590 c         1 P68      0.467100
     10 O           5.9710   -0.1790   -2.6350 o         1 P68     -0.293100
     11 N1          8.1740   -0.2000   -1.8080 n4        1 P68     -0.696800
     12 C1          8.8130    1.2660   -1.9550 c3        1 P68      0.281500
     13 C2          8.3770    1.8260   -3.3020 c3        1 P68     -0.152100
     14 C3          8.2750    2.1470   -0.8380 c3        1 P68     -0.152100
     15 C12        10.2800    1.0120   -1.8330 ca        1 P68     -0.221300
     16 C17        10.8100    0.6430   -0.5820 ca        1 P68     -0.110000
     17 C16        12.1750    0.4020   -0.4300 ca        1 P68     -0.088900
     18 C18        12.7370    0.0030    0.8770 ce        1 P68      0.388900
     19 N4         12.0600   -0.8610    1.6030 n2        1 P68     -0.457200
     20 O2         12.5930   -1.1860    2.7510 oh        1 P68     -0.317500
     21 C19        14.0520    0.6170    1.2320 c3        1 P68     -0.168400
     22 C15        13.0300    0.5480   -1.5370 ca        1 P68     -0.036000
     23 C14        12.5090    0.9190   -2.7750 ca        1 P68     -0.112000
     24 C13        11.1410    1.1410   -2.9320 ca        1 P68     -0.070000
     25 H1          2.3880    2.5120    0.0420 ha        1 P68      0.201000
     26 H2          4.8260    2.1860   -0.0940 ha        1 P68      0.160500
     27 H3          1.7660   -1.7860   -0.2600 ha        1 P68      0.201000
     28 H4          4.1960   -2.1470   -0.4000 ha        1 P68      0.160500
     29 H5          6.5750    0.5380    0.2970 hn        1 P68      0.486800
     30 H6          8.4030   -0.6980   -2.6860 hn        1 P68      0.486800
     31 H7          8.8780    2.8210   -3.4410 hc        1 P68      0.091033
     32 H8          8.6710    1.1690   -4.1570 hc        1 P68      0.091033
     33 H9          7.2710    1.9870   -3.3370 hc        1 P68      0.091033
     34 H10         8.8360    3.1230   -0.8860 hc        1 P68      0.091033
     35 H11         7.1910    2.3790   -0.9810 hc        1 P68      0.091033
     36 H12         8.4530    1.7270    0.1810 hc        1 P68      0.091033
     37 H13        10.1570    0.5630    0.3010 ha        1 P68      0.128000
     38 H14        12.0190   -1.8960    3.1100 ho        1 P68      0.451000
     39 H15        14.8830   -0.0540    0.8950 hc        1 P68      0.075700
     40 H16        14.1430    0.7460    2.3410 hc        1 P68      0.075700
     41 H17        14.1700    1.6150    0.7460 hc        1 P68      0.075700
     42 H18        14.1150    0.3680   -1.4200 ha        1 P68      0.184000
     43 H19        13.1840    1.0400   -3.6410 ha        1 P68      0.182000
     44 H20        10.7660    1.4390   -3.9250 ha        1 P68      0.157000
     45 H22         6.3320   -1.1280    0.1740 hn        1 P68      0.486800
     46 H121        8.6580   -0.6700   -1.0320 hn        1 P68      0.486800
@<TRIPOS>BOND
     1    1    2 1   
     2    2    3 ar  
     3    2    5 ar  
     4    3    4 ar  
     5    3   25 1   
     6    4    7 ar  
     7    4   26 1   
     8    5    6 ar  
     9    5   27 1   
    10    6    7 ar  
    11    6   28 1   
    12    7    8 1   
    13    8    9 1   
    14    8   29 1   
    15    8   45 1   
    16    9   10 2   
    17    9   11 1   
    18   11   12 1   
    19   11   30 1   
    20   11   46 1   
    21   12   13 1   
    22   12   14 1   
    23   12   15 1   
    24   13   31 1   
    25   13   32 1   
    26   13   33 1   
    27   14   34 1   
    28   14   35 1   
    29   14   36 1   
    30   15   16 ar  
    31   15   24 ar  
    32   16   17 ar  
    33   16   37 1   
    34   17   18 1   
    35   17   22 ar  
    36   18   19 2   
    37   18   21 1   
    38   19   20 1   
    39   20   38 1   
    40   21   39 1   
    41   21   40 1   
    42   21   41 1   
    43   22   23 ar  
    44   22   42 1   
    45   23   24 ar  
    46   23   43 1   
    47   24   44 1   
@<TRIPOS>SUBSTRUCTURE
     1 P68         1 TEMP              0 ****  ****    0 ROOT
