@<TRIPOS>MOLECULE
P68
   44    37     1     0     0
SMALL
bcc


@<TRIPOS>ATOM
      1 BR1        -8.7210   -0.5730    2.2140 br        1 P68      0.049000
      2 C8         -6.8280   -0.7010    1.9620 c1        1 P68     -0.196000
      3 C7         -5.9910    0.2690    2.4940 c1        1 P68     -0.117250
      4 C6         -4.6220    0.1950    2.2840 c1        1 P68     -0.117250
      5 C9         -6.2970   -1.7430    1.2220 c1        1 P68     -0.078000
      6 C10        -4.9280   -1.8170    1.0110 c1        1 P68     -0.188000
      7 C5         -4.0900   -0.8480    1.5420 c1        1 P68      0.092000
      8 N2         -2.6690   -0.9950    1.4330 n2        1 P68     -0.322000
      9 C4         -1.9010   -0.0130    0.7360 c1        1 P68      0.389000
     10 O          -2.4510    0.9450    0.2370 o         1 P68     -0.383000
     11 N1         -0.4690   -0.1180    0.6960 n2        1 P68     -0.353000
     12 C1          0.2810    0.6640   -0.2400 c3        1 P68      0.127000
     13 C2         -0.1350    0.3010   -1.6500 c3        1 P68     -0.229000
     14 C3          0.0140    2.1330    0.0030 c3        1 P68     -0.229000
     15 C12         1.7700    0.3810   -0.0620 c2        1 P68     -0.103000
     16 C17         2.6000    0.3240   -1.1670 c2        1 P68     -0.085000
     17 C16         3.9540    0.0480   -1.0060 c1        1 P68     -0.077000
     18 C18         4.8610   -0.0370   -2.2200 c2        1 P68     -0.037000
     19 N4          4.9120   -1.1370   -2.9200 n1        1 P68     -0.060000
     20 O2          4.1490   -2.2120   -2.5600 o         1 P68     -0.252000
     21 C19         5.7070    1.1530   -2.6190 c3        1 P68     -0.173000
     22 C15         4.4710   -0.1680    0.2590 c1        1 P68     -0.117250
     23 C14         3.6380   -0.1110    1.3680 c1        1 P68     -0.117250
     24 C13         2.2890    0.1640    1.2090 c1        1 P68     -0.105000
     25 H1         -6.3650    1.0040    3.0170 ha        1 P68      0.149500
     26 H2         -4.0350    0.8760    2.6570 ha        1 P68      0.149500
     27 H3         -6.8870   -2.4260    0.8480 ha        1 P68      0.145000
     28 H4         -4.5540   -2.5510    0.4900 ha        1 P68      0.133000
     29 H5         -2.2570   -1.7270    1.7890 hn        1 P68      0.222000
     30 H6         -0.0340   -0.6680    1.2850 hn        1 P68      0.211000
     31 H7          0.1370   -0.6220   -1.8440 hc        1 P68      0.092333
     32 H8         -1.1120    0.3800   -1.7340 hc        1 P68      0.092333
     33 H9          0.2970    0.9090   -2.2840 hc        1 P68      0.092333
     34 H10         0.7990    2.6540   -0.2550 hc        1 P68      0.092333
     35 H11        -0.7550    2.4170   -0.5300 hc        1 P68      0.092333
     36 H12        -0.1770    2.2790    0.9560 hc        1 P68      0.092333
     37 H13         2.2360    0.4740   -2.0600 ha        1 P68      0.153000
     38 H14         4.3670   -2.9120   -3.0640 ho        1 P68      0.238000
     39 H15         6.0180    1.0390   -3.5410 hc        1 P68      0.095000
     40 H16         6.4790    1.2200   -2.0190 hc        1 P68      0.095000
     41 H17         5.1710    1.9720   -2.5530 hc        1 P68      0.095000
     42 H18         5.4230   -0.3610    0.3710 ha        1 P68      0.149500
     43 H19         4.0030   -0.2630    2.2600 ha        1 P68      0.149500
     44 H20         1.7040    0.2040    1.9880 ha        1 P68      0.143000
@<TRIPOS>BOND
     1    1    2 1   
     2    2    5 1   
     3    3    4 1   
     4    3   25 1   
     5    4   26 1   
     6    5   27 1   
     7    6    7 1   
     8    6   28 1   
     9    8    9 1   
    10    8   29 1   
    11    9   10 1   
    12   11   12 1   
    13   11   30 1   
    14   12   13 1   
    15   12   14 1   
    16   12   15 1   
    17   13   31 1   
    18   13   32 1   
    19   13   33 1   
    20   14   34 1   
    21   14   35 1   
    22   14   36 1   
    23   15   16 1   
    24   15   24 1   
    25   16   17 1   
    26   16   37 1   
    27   17   18 1   
    28   18   19 1   
    29   18   21 1   
    30   20   38 1   
    31   21   39 1   
    32   21   40 1   
    33   21   41 1   
    34   22   23 1   
    35   22   42 1   
    36   23   43 1   
    37   24   44 1   
@<TRIPOS>SUBSTRUCTURE
     1 P68         1 TEMP              0 ****  ****    0 ROOT
