@<TRIPOS>MOLECULE
P68
   44    45     1     0     0
SMALL
bcc


@<TRIPOS>ATOM
      1 BR1        -6.8890   -0.9100    0.2420 br        1 P68     -0.091100
      2 C8         -5.0560   -0.6410   -0.0200 ca        1 P68     -0.055900
      3 C7         -4.2660   -1.6580   -0.5630 ca        1 P68     -0.079000
      4 C6         -2.9050   -1.4650   -0.7570 ca        1 P68     -0.166500
      5 C9         -4.4640    0.5760    0.3250 ca        1 P68     -0.079000
      6 C10        -3.1030    0.7870    0.1310 ca        1 P68     -0.166500
      7 C5         -2.2950   -0.2320   -0.4150 ca        1 P68      0.085600
      8 N2         -0.9290   -0.0580   -0.6970 n         1 P68     -0.468100
      9 C4         -0.0760    0.8090    0.0300 c         1 P68      0.766100
     10 O          -0.5350    1.6460    0.8410 o         1 P68     -0.624100
     11 N1          1.3050    0.6680   -0.1870 n         1 P68     -0.552900
     12 C1          2.2510    1.6960    0.2720 c3        1 P68      0.176700
     13 C2          1.8810    3.0950   -0.2520 c3        1 P68     -0.111600
     14 C3          2.2810    1.7850    1.8100 c3        1 P68     -0.111600
     15 C12         3.6450    1.2880   -0.1930 ca        1 P68     -0.109300
     16 C17         4.1440    0.0380    0.2040 ca        1 P68     -0.087000
     17 C16         5.4230   -0.3730   -0.1820 ca        1 P68     -0.128900
     18 C18         5.9620   -1.6820    0.2430 ce        1 P68      0.406900
     19 N4          5.1800   -2.7350    0.1840 n2        1 P68     -0.446200
     20 O2          5.7100   -3.8730    0.5720 oh        1 P68     -0.354500
     21 C19         7.3880   -1.6700    0.6930 c3        1 P68     -0.160400
     22 C15         6.2150    0.4700   -0.9730 ca        1 P68     -0.107000
     23 C14         5.7190    1.7080   -1.3710 ca        1 P68     -0.137000
     24 C13         4.4410    2.1170   -0.9880 ca        1 P68     -0.109000
     25 H1         -4.7150   -2.6250   -0.8400 ha        1 P68      0.147000
     26 H2         -2.3080   -2.2860   -1.1850 ha        1 P68      0.155000
     27 H3         -5.0710    1.3880    0.7570 ha        1 P68      0.147000
     28 H4         -2.6630    1.7570    0.4190 ha        1 P68      0.155000
     29 H5         -0.5050   -0.8320   -1.1630 hn        1 P68      0.308500
     30 H6          1.6020    0.1840   -1.0050 hn        1 P68      0.302500
     31 H7          1.8710    3.1210   -1.3670 hc        1 P68      0.052867
     32 H8          0.8670    3.3820    0.1230 hc        1 P68      0.052867
     33 H9          2.6180    3.8410    0.1270 hc        1 P68      0.052867
     34 H10         3.0660    2.5200    2.1100 hc        1 P68      0.052867
     35 H11         1.2900    2.1280    2.1950 hc        1 P68      0.052867
     36 H12         2.5220    0.7950    2.2640 hc        1 P68      0.052867
     37 H13         3.5230   -0.6230    0.8300 ha        1 P68      0.154000
     38 H14         4.9860   -4.5240    0.4760 ho        1 P68      0.439000
     39 H15         7.6530   -0.6760    1.1270 hc        1 P68      0.057700
     40 H16         7.5720   -2.4610    1.4630 hc        1 P68      0.057700
     41 H17         8.0560   -1.8710   -0.1820 hc        1 P68      0.057700
     42 H18         7.2220    0.1510   -1.2790 ha        1 P68      0.138000
     43 H19         6.3380    2.3700   -1.9940 ha        1 P68      0.136000
     44 H20         4.0810    3.1010   -1.3230 ha        1 P68      0.140000
@<TRIPOS>BOND
     1    1    2 1   
     2    2    3 ar  
     3    2    5 ar  
     4    3    4 ar  
     5    3   25 1   
     6    4    7 ar  
     7    4   26 1   
     8    5    6 ar  
     9    5   27 1   
    10    6    7 ar  
    11    6   28 1   
    12    7    8 1   
    13    8    9 1   
    14    8   29 1   
    15    9   10 2   
    16    9   11 1   
    17   11   12 1   
    18   11   30 1   
    19   12   13 1   
    20   12   14 1   
    21   12   15 1   
    22   13   31 1   
    23   13   32 1   
    24   13   33 1   
    25   14   34 1   
    26   14   35 1   
    27   14   36 1   
    28   15   16 ar  
    29   15   24 ar  
    30   16   17 ar  
    31   16   37 1   
    32   17   18 1   
    33   17   22 ar  
    34   18   19 2   
    35   18   21 1   
    36   19   20 1   
    37   20   38 1   
    38   21   39 1   
    39   21   40 1   
    40   21   41 1   
    41   22   23 ar  
    42   22   42 1   
    43   23   24 ar  
    44   23   43 1   
    45   24   44 1   
@<TRIPOS>SUBSTRUCTURE
     1 P68         1 TEMP              0 ****  ****    0 ROOT
