@<TRIPOS>MOLECULE
P68
   45    46     1     0     0
SMALL
bcc


@<TRIPOS>ATOM
      1 Br1        -0.1230    0.0740    0.2200 br        1 P68     -0.028100
      2 C8          1.7270    0.1380   -0.0180 ca        1 P68     -0.020900
      3 C7          2.5610    0.5070    1.0450 ca        1 P68     -0.076500
      4 C6          3.9400    0.5540    0.8790 ca        1 P68     -0.137000
      5 C9          2.2920   -0.1810   -1.2550 ca        1 P68     -0.076500
      6 C10         3.6720   -0.1340   -1.4420 ca        1 P68     -0.137000
      7 C5          4.5080    0.2350   -0.3750 ca        1 P68      0.016600
      8 N2          5.9220    0.3330   -0.5030 ns        1 P68     -0.420100
      9 C4          6.6420   -0.3310   -1.4580 c         1 P68      0.644100
     10 O           6.2350   -0.9910   -2.4220 o         1 P68     -0.497100
     11 N1          8.1650   -0.2720   -1.3650 ny        1 P68     -0.678800
     12 C1          8.7890    1.0530   -1.8400 c3        1 P68      0.229500
     13 C2          8.2570    1.3870   -3.2350 c3        1 P68     -0.128600
     14 C3          8.4180    2.2000   -0.8940 c3        1 P68     -0.128600
     15 C12        10.2830    0.8300   -1.8170 ca        1 P68     -0.184300
     16 C17        10.9220    0.6910   -0.5750 ca        1 P68     -0.106000
     17 C16        12.3000    0.4740   -0.5050 ca        1 P68     -0.098900
     18 C18        12.9810    0.3190    0.7970 ce        1 P68      0.392900
     19 N4         12.3850   -0.3920    1.7290 n2        1 P68     -0.447200
     20 O2         13.0250   -0.5050    2.8660 oh        1 P68     -0.332500
     21 C19        14.3140    0.9860    0.9130 c3        1 P68     -0.164400
     22 C15        13.0500    0.4060   -1.6900 ca        1 P68     -0.071000
     23 C14        12.4160    0.5510   -2.9220 ca        1 P68     -0.119000
     24 C13        11.0370    0.7570   -2.9910 ca        1 P68     -0.088000
     25 H1          2.1310    0.7610    2.0290 ha        1 P68      0.169500
     26 H2          4.5690    0.8460    1.7340 ha        1 P68      0.156500
     27 H3          1.6500   -0.4740   -2.1040 ha        1 P68      0.169500
     28 H4          4.0830   -0.3970   -2.4310 ha        1 P68      0.156500
     29 H5          6.3910    0.8440    0.2170 hn        1 P68      0.345500
     30 H6          8.4910   -0.4620   -0.4140 hn        1 P68      0.463300
     31 H7          8.7700    2.3130   -3.5950 hc        1 P68      0.078200
     32 H8          7.1560    1.5820   -3.2030 hc        1 P68      0.078200
     33 H9          8.4470    0.5610   -3.9640 hc        1 P68      0.078200
     34 H10         9.1200    3.0490   -1.0960 hc        1 P68      0.078200
     35 H11         7.3790    2.5640   -1.0850 hc        1 P68      0.078200
     36 H12         8.5240    1.9190    0.1820 hc        1 P68      0.078200
     37 H13        10.3450    0.7700    0.3600 ha        1 P68      0.137000
     38 H14        12.4620   -1.0930    3.4130 ho        1 P68      0.447000
     39 H15        15.1180    0.2690    0.6080 hc        1 P68      0.067700
     40 H16        14.5110    1.3000    1.9690 hc        1 P68      0.067700
     41 H17        14.3630    1.8870    0.2550 hc        1 P68      0.067700
     42 H18        14.1390    0.2380   -1.6420 ha        1 P68      0.165000
     43 H19        13.0070    0.5020   -3.8520 ha        1 P68      0.163000
     44 H20        10.5690    0.8690   -3.9820 ha        1 P68      0.150000
     45 H121        8.5170   -1.0150   -1.9880 hn        1 P68      0.463300
@<TRIPOS>BOND
     1    1    2 1   
     2    2    3 ar  
     3    2    5 ar  
     4    3    4 ar  
     5    3   25 1   
     6    4    7 ar  
     7    4   26 1   
     8    5    6 ar  
     9    5   27 1   
    10    6    7 ar  
    11    6   28 1   
    12    7    8 1   
    13    8    9 1   
    14    8   29 1   
    15    9   10 2   
    16    9   11 1   
    17   11   12 1   
    18   11   30 1   
    19   11   45 1   
    20   12   13 1   
    21   12   14 1   
    22   12   15 1   
    23   13   31 1   
    24   13   32 1   
    25   13   33 1   
    26   14   34 1   
    27   14   35 1   
    28   14   36 1   
    29   15   16 ar  
    30   15   24 ar  
    31   16   17 ar  
    32   16   37 1   
    33   17   18 1   
    34   17   22 ar  
    35   18   19 2   
    36   18   21 1   
    37   19   20 1   
    38   20   38 1   
    39   21   39 1   
    40   21   40 1   
    41   21   41 1   
    42   22   23 ar  
    43   22   42 1   
    44   23   24 ar  
    45   23   43 1   
    46   24   44 1   
@<TRIPOS>SUBSTRUCTURE
     1 P68         1 TEMP              0 ****  ****    0 ROOT
