@<TRIPOS>MOLECULE
P6C
   27    28     1     0     0
SMALL
bcc


@<TRIPOS>ATOM
      1 N17        -0.1300    0.0260    0.0630 nv        1 P6C     -0.902500
      2 C16         1.2900   -0.0450    0.0560 ca        1 P6C      0.820900
      3 N15         1.9390    0.1450    1.2330 nb        1 P6C     -0.718000
      4 C14         3.3180    0.1910    1.1710 ca        1 P6C      0.548000
      5 C9          4.0300    0.0230   -0.0770 ca        1 P6C      0.107000
      6 N10         5.4110    0.0730   -0.1460 nb        1 P6C     -0.619000
      7 C8          3.2190   -0.2110   -1.2570 ca        1 P6C      0.451300
      8 N7          1.8930   -0.2470   -1.1980 nb        1 P6C     -0.750000
      9 C5          3.9130   -0.4020   -2.5900 c3        1 P6C     -0.120000
     10 C6          3.1170   -1.2550   -3.5570 c3        1 P6C     -0.083600
     11 C4          4.2060    0.9570   -3.1980 c3        1 P6C     -0.083600
     12 N13         4.0360    0.3990    2.3590 nb        1 P6C     -0.653000
     13 C12         5.3460    0.4380    2.2440 ca        1 P6C      0.344900
     14 C11         6.0630    0.2790    0.9830 ca        1 P6C      0.275500
     15 C1          7.6100    0.3590    1.0540 c         1 P6C      0.830100
     16 O2          8.1290    1.4590    0.7490 o         1 P6C     -0.793800
     17 O3          8.1930   -0.6750    1.4610 o         1 P6C     -0.793800
     18 H171       -0.5570   -0.4960   -0.6710 hn        1 P6C      0.394800
     19 H172       -0.5330   -0.1560    0.9570 hn        1 P6C      0.394800
     20 H5          4.8920   -0.9280   -2.3950 hc        1 P6C      0.092700
     21 H61         3.7360   -1.4630   -4.4640 hc        1 P6C      0.036033
     22 H62         2.8380   -2.2270   -3.0860 hc        1 P6C      0.036033
     23 H63         2.1840   -0.7350   -3.8810 hc        1 P6C      0.036033
     24 H41         4.7430    0.8250   -4.1680 hc        1 P6C      0.036033
     25 H42         3.2590    1.5170   -3.3880 hc        1 P6C      0.036033
     26 H43         4.8520    1.5580   -2.5130 hc        1 P6C      0.036033
     27 H12         5.9340    0.5940    3.1670 h4        1 P6C      0.039100
@<TRIPOS>BOND
     1    1    2 1   
     2    1   18 1   
     3    1   19 1   
     4    2    3 ar  
     5    2    8 ar  
     6    3    4 ar  
     7    4    5 ar  
     8    4   12 ar  
     9    5    6 ar  
    10    5    7 ar  
    11    6   14 ar  
    12    7    8 ar  
    13    7    9 1   
    14    9   10 1   
    15    9   11 1   
    16    9   20 1   
    17   10   21 1   
    18   10   22 1   
    19   10   23 1   
    20   11   24 1   
    21   11   25 1   
    22   11   26 1   
    23   12   13 ar  
    24   13   14 ar  
    25   13   27 1   
    26   14   15 1   
    27   15   16 1   
    28   15   17 1   
@<TRIPOS>SUBSTRUCTURE
     1 P6C         1 TEMP              0 ****  ****    0 ROOT
