@<TRIPOS>MOLECULE
P6C
   27    28     1     0     0
SMALL
bcc


@<TRIPOS>ATOM
      1 N17        -1.9930   -0.3970   -3.9050 nh        1 P6C     -0.902500
      2 C16        -1.3630   -0.2030   -2.6460 ca        1 P6C      0.820900
      3 N15        -2.1580    0.0030   -1.5650 nb        1 P6C     -0.718000
      4 C14        -1.5220    0.0700   -0.3410 ca        1 P6C      0.548000
      5 C9         -0.0850   -0.0530   -0.2220 ca        1 P6C      0.107000
      6 N10         0.5590    0.0240    1.0000 nb        1 P6C     -0.619000
      7 C8          0.6520   -0.2450   -1.4570 ca        1 P6C      0.451300
      8 N7          0.0400   -0.3070   -2.6330 nb        1 P6C     -0.750000
      9 C5          2.1620   -0.3430   -1.3950 c3        1 P6C     -0.120000
     10 C6          2.7510   -1.1550   -2.5310 c3        1 P6C     -0.083600
     11 C4          2.7550    1.0530   -1.3760 c3        1 P6C     -0.083600
     12 N13        -2.3010    0.2700    0.8090 nb        1 P6C     -0.653000
     13 C12        -1.6440    0.3370    1.9480 ca        1 P6C      0.344900
     14 C11        -0.1950    0.2200    2.0660 ca        1 P6C      0.276500
     15 C1          0.3930    0.3430    3.4960 c         1 P6C      0.830100
     16 O2          0.8400    1.4690    3.8190 o         1 P6C     -0.793800
     17 O3          0.3180   -0.6860    4.2110 o         1 P6C     -0.793800
     18 H171       -2.9110   -0.0070   -3.9550 hn        1 P6C      0.394800
     19 H172       -1.4190   -0.1420   -4.6800 hn        1 P6C      0.394800
     20 H5          2.4310   -0.8620   -0.4280 hc        1 P6C      0.094700
     21 H61         2.2600   -2.1550   -2.5930 hc        1 P6C      0.035867
     22 H62         2.6210   -0.6340   -3.5100 hc        1 P6C      0.035867
     23 H63         3.8440   -1.3040   -2.3530 hc        1 P6C      0.035867
     24 H41         2.3730    1.6260   -0.4970 hc        1 P6C      0.035867
     25 H42         3.8670    0.9860   -1.3000 hc        1 P6C      0.035867
     26 H43         2.4940    1.6050   -2.3110 hc        1 P6C      0.035867
     27 H12        -2.2380    0.4870    2.8690 h4        1 P6C      0.039100
@<TRIPOS>BOND
     1    1    2 1   
     2    1   18 1   
     3    1   19 1   
     4    2    3 ar  
     5    2    8 ar  
     6    3    4 ar  
     7    4    5 ar  
     8    4   12 ar  
     9    5    6 ar  
    10    5    7 ar  
    11    6   14 ar  
    12    7    8 ar  
    13    7    9 1   
    14    9   10 1   
    15    9   11 1   
    16    9   20 1   
    17   10   21 1   
    18   10   22 1   
    19   10   23 1   
    20   11   24 1   
    21   11   25 1   
    22   11   26 1   
    23   12   13 ar  
    24   13   14 ar  
    25   13   27 1   
    26   14   15 1   
    27   15   16 1   
    28   15   17 1   
@<TRIPOS>SUBSTRUCTURE
     1 P6C         1 TEMP              0 ****  ****    0 ROOT
