@<TRIPOS>MOLECULE
P6C
   28    29     1     0     0
SMALL
bcc


@<TRIPOS>ATOM
      1 N17        -0.1420    0.1930    0.1140 n4        1 P6C     -0.808300
      2 C16         1.3520    0.1290    0.0720 ca        1 P6C      0.642900
      3 N15         1.9600   -0.0500    1.2580 nb        1 P6C     -0.618000
      4 C14         3.3380   -0.1070    1.1980 ca        1 P6C      0.508000
      5 C9          4.0400    0.0210   -0.0700 ca        1 P6C      0.195000
      6 N10         5.4140   -0.0400   -0.1380 nb        1 P6C     -0.629000
      7 C8          3.2340    0.2140   -1.2650 ca        1 P6C      0.463300
      8 N7          1.9010    0.2640   -1.1950 nb        1 P6C     -0.713000
      9 C5          3.9200    0.3350   -2.6080 c3        1 P6C     -0.123000
     10 C6          4.2110   -1.0550   -3.1450 c3        1 P6C     -0.090100
     11 C4          3.1230    1.1400   -3.6130 c3        1 P6C     -0.090100
     12 N13         4.0520   -0.2930    2.3900 nb        1 P6C     -0.627000
     13 C12         5.3620   -0.3450    2.2700 ca        1 P6C      0.359900
     14 C11         6.0720   -0.2220    0.9960 ca        1 P6C      0.324500
     15 C1          7.6450   -0.3190    1.0530 c         1 P6C      0.839100
     16 O2          8.0940   -1.4680    0.8780 o         1 P6C     -0.746300
     17 O3          8.2130    0.7600    1.3120 o         1 P6C     -0.746300
     18 H171       -0.4440    1.0990   -0.2570 hn        1 P6C      0.466800
     19 H172       -0.5210   -0.5600   -0.4680 hn        1 P6C      0.466800
     20 H5          4.9030    0.8680   -2.4380 hc        1 P6C      0.112700
     21 H61         3.2640   -1.6220   -3.3140 hc        1 P6C      0.046200
     22 H62         4.7510   -0.9670   -4.1190 hc        1 P6C      0.046200
     23 H63         4.8570   -1.6250   -2.4340 hc        1 P6C      0.046200
     24 H41         3.7460    1.3040   -4.5270 hc        1 P6C      0.046200
     25 H42         2.8450    2.1360   -3.1930 hc        1 P6C      0.046200
     26 H43         2.1920    0.6050   -3.9180 hc        1 P6C      0.046200
     27 H12         5.9550   -0.4890    3.1960 h4        1 P6C      0.069100
     28 H173       -0.4690    0.0850    1.0820 hn        1 P6C      0.466800
@<TRIPOS>BOND
     1    1    2 1   
     2    1   18 1   
     3    1   19 1   
     4    1   28 1   
     5    2    3 ar  
     6    2    8 ar  
     7    3    4 ar  
     8    4    5 ar  
     9    4   12 ar  
    10    5    6 ar  
    11    5    7 ar  
    12    6   14 ar  
    13    7    8 ar  
    14    7    9 1   
    15    9   10 1   
    16    9   11 1   
    17    9   20 1   
    18   10   21 1   
    19   10   22 1   
    20   10   23 1   
    21   11   24 1   
    22   11   25 1   
    23   11   26 1   
    24   12   13 ar  
    25   13   14 ar  
    26   13   27 1   
    27   14   15 1   
    28   15   16 1   
    29   15   17 1   
@<TRIPOS>SUBSTRUCTURE
     1 P6C         1 TEMP              0 ****  ****    0 ROOT
