@<TRIPOS>MOLECULE
P6C
   27    28     1     0     0
SMALL
bcc


@<TRIPOS>ATOM
      1 N17        -0.1340   -0.0560    0.0430 nh        1 P6C     -0.902500
      2 C16         1.2850    0.0240    0.0440 ca        1 P6C      0.820900
      3 N15         1.9300   -0.1720    1.2230 nb        1 P6C     -0.718000
      4 C14         3.3100   -0.2090    1.1670 ca        1 P6C      0.548000
      5 C9          4.0270   -0.0260   -0.0760 ca        1 P6C      0.107000
      6 N10         5.4080   -0.0690   -0.1390 nb        1 P6C     -0.619000
      7 C8          3.2200    0.2110   -1.2580 ca        1 P6C      0.451300
      8 N7          1.8940    0.2400   -1.2060 nb        1 P6C     -0.750000
      9 C5          3.9190    0.4170   -2.5870 c3        1 P6C     -0.120000
     10 C6          4.2240   -0.9350   -3.2030 c3        1 P6C     -0.083600
     11 C4          3.1230    1.2730   -3.5510 c3        1 P6C     -0.083600
     12 N13         4.0230   -0.4220    2.3570 nb        1 P6C     -0.653000
     13 C12         5.3340   -0.4520    2.2480 ca        1 P6C      0.344900
     14 C11         6.0560   -0.2800    0.9920 ca        1 P6C      0.275500
     15 C1          7.6030   -0.3520    1.0700 c         1 P6C      0.830100
     16 O2          8.1320   -1.4360    0.7280 o         1 P6C     -0.793800
     17 O3          8.1750    0.6700    1.5200 o         1 P6C     -0.793800
     18 H171       -0.5420    0.1170    0.9370 hn        1 P6C      0.394800
     19 H172       -0.5610    0.4690   -0.6890 hn        1 P6C      0.394800
     20 H5          4.8940    0.9480   -2.3820 hc        1 P6C      0.092700
     21 H61         3.2820   -1.5000   -3.4020 hc        1 P6C      0.036200
     22 H62         4.7640   -0.7920   -4.1700 hc        1 P6C      0.036200
     23 H63         4.8710   -1.5370   -2.5200 hc        1 P6C      0.036200
     24 H41         2.1940    0.7500   -3.8830 hc        1 P6C      0.036200
     25 H42         3.7450    1.4920   -4.4520 hc        1 P6C      0.036200
     26 H43         2.8360    2.2390   -3.0730 hc        1 P6C      0.036200
     27 H12         5.9180   -0.6110    3.1730 h4        1 P6C      0.039100
@<TRIPOS>BOND
     1    1    2 1   
     2    1   18 1   
     3    1   19 1   
     4    2    3 ar  
     5    2    8 ar  
     6    3    4 ar  
     7    4    5 ar  
     8    4   12 ar  
     9    5    6 ar  
    10    5    7 ar  
    11    6   14 ar  
    12    7    8 ar  
    13    7    9 1   
    14    9   10 1   
    15    9   11 1   
    16    9   20 1   
    17   10   21 1   
    18   10   22 1   
    19   10   23 1   
    20   11   24 1   
    21   11   25 1   
    22   11   26 1   
    23   12   13 ar  
    24   13   14 ar  
    25   13   27 1   
    26   14   15 1   
    27   15   16 1   
    28   15   17 1   
@<TRIPOS>SUBSTRUCTURE
     1 P6C         1 TEMP              0 ****  ****    0 ROOT
