@<TRIPOS>MOLECULE
P6F
   30    29     1     0     0
SMALL
bcc


@<TRIPOS>ATOM
      1 P1          0.8470   -0.4390    0.2210 p5        1 P6F      1.319900
      2 O1P         1.8130   -1.5150   -0.2080 o         1 P6F     -0.937500
      3 O2P         0.3100   -0.5590    1.6220 o         1 P6F     -0.937500
      4 O3P         1.2330    0.9570   -0.1980 o         1 P6F     -0.937500
      5 O1         -0.5490   -0.7580   -0.7750 os        1 P6F     -0.554200
      6 C1         -0.3040   -1.2880   -2.0110 c3        1 P6F      0.140400
      7 C2         -1.2590   -2.4030   -2.3970 c         1 P6F      0.530100
      8 O2         -2.0840   -2.9500   -1.6560 o         1 P6F     -0.578100
      9 C3         -1.1150   -2.9510   -3.8290 c3        1 P6F      0.028100
     10 O3         -1.2620   -4.3650   -3.7930 oh        1 P6F     -0.615800
     11 C4         -2.1230   -2.3480   -4.8320 c3        1 P6F      0.120100
     12 O4         -3.4120   -2.7840   -4.4080 oh        1 P6F     -0.626800
     13 C5         -1.8290   -2.8040   -6.2800 c3        1 P6F      0.083100
     14 O5         -0.5850   -2.2290   -6.6520 oh        1 P6F     -0.644800
     15 C6         -2.9510   -2.4030   -7.2770 c3        1 P6F      0.178400
     16 O6         -2.4500   -2.3550   -8.5530 os        1 P6F     -0.574200
     17 P2         -3.5100   -2.9340   -9.8130 p5        1 P6F      1.321900
     18 O4P        -4.2000   -4.1040   -9.1600 o         1 P6F     -0.936500
     19 O5P        -4.3980   -1.7460  -10.0730 o         1 P6F     -0.936500
     20 O6P        -2.5330   -3.2690  -10.9080 o         1 P6F     -0.936500
     21 H1         -0.4330   -0.5050   -2.8230 h1        1 P6F      0.027700
     22 H1A         0.7450   -1.7130   -2.0650 h1        1 P6F      0.027700
     23 H3         -0.0760   -2.7710   -4.2200 h1        1 P6F      0.094700
     24 HO3        -2.1360   -4.5250   -3.4120 ho        1 P6F      0.407000
     25 H4         -2.0790   -1.2260   -4.7700 h1        1 P6F      0.044700
     26 HO4        -3.9960   -2.7410   -5.1740 ho        1 P6F      0.407000
     27 H5         -1.7060   -3.9220   -6.2820 h1        1 P6F      0.041700
     28 HO5        -0.6420   -2.0490   -7.6040 ho        1 P6F      0.437000
     29 H6         -3.3240   -1.3830   -6.9550 h1        1 P6F      0.003200
     30 H6A        -3.7950   -3.1490   -7.2130 h1        1 P6F      0.003200
@<TRIPOS>BOND
     1    1    2 1   
     2    1    3 1   
     3    1    4 1   
     4    1    5 1   
     5    5    6 1   
     6    6    7 1   
     7    6   21 1   
     8    6   22 1   
     9    7    8 2   
    10    7    9 1   
    11    9   10 1   
    12    9   11 1   
    13    9   23 1   
    14   10   24 1   
    15   11   12 1   
    16   11   13 1   
    17   11   25 1   
    18   12   26 1   
    19   13   14 1   
    20   13   15 1   
    21   13   27 1   
    22   14   28 1   
    23   15   16 1   
    24   15   29 1   
    25   15   30 1   
    26   16   17 1   
    27   17   18 1   
    28   17   19 1   
    29   17   20 1   
@<TRIPOS>SUBSTRUCTURE
     1 P6F         1 TEMP              0 ****  ****    0 ROOT
