@<TRIPOS>MOLECULE
P6F
   30    28     1     0     0
SMALL
bcc


@<TRIPOS>ATOM
      1 P1          0.7900    3.5780    4.5070 p4        1 P6F      1.687200
      2 O1P         2.2860    3.4190    4.5980 os        1 P6F     -1.256000
      3 O2P         0.2040    3.6590    5.8990 o         1 P6F     -0.934500
      4 O3P         0.4660    4.8370    3.7560 o         1 P6F     -0.983300
      5 O1          0.1610    2.3100    3.7300 os        1 P6F     -0.569200
      6 C1          0.8000    1.8550    2.5210 c3        1 P6F      0.129400
      7 C2         -0.0230    0.7280    1.8990 c         1 P6F      0.535100
      8 O2         -1.1150    0.4610    2.3450 o         1 P6F     -0.622100
      9 C3          0.5810   -0.1360    0.8270 c3        1 P6F      0.033100
     10 O3          1.0620   -1.3300    1.4010 oh        1 P6F     -0.645800
     11 C4         -0.4760   -0.4630   -0.2160 c3        1 P6F      0.143100
     12 O4         -1.3950   -1.3650    0.3170 oh        1 P6F     -0.612800
     13 C5          0.1810   -1.0740   -1.4200 c3        1 P6F      0.094100
     14 O5          1.0890   -0.1430   -1.9850 oh        1 P6F     -0.652800
     15 C6         -0.8810   -1.4370   -2.4470 c3        1 P6F      0.191400
     16 O6         -0.2650   -1.9580   -3.5940 os        1 P6F     -0.584200
     17 P2         -1.1820   -2.4600   -4.7830 p5        1 P6F      1.325900
     18 O4P        -2.1480   -3.5060   -4.2700 o         1 P6F     -0.940500
     19 O5P        -1.9640   -1.2850   -5.3520 o         1 P6F     -0.940500
     20 O6P        -0.3180   -3.0610   -5.8650 o         1 P6F     -0.940500
     21 H1          1.6940    1.5260    2.7310 h1        1 P6F      0.024700
     22 H1A         0.8670    2.6030    1.8830 h1        1 P6F      0.024700
     23 H3          1.3280    0.3460    0.3980 h1        1 P6F      0.068700
     24 HO3         1.8830   -1.2020    1.7050 ho        1 P6F      0.458000
     25 H4         -0.9440    0.3660   -0.4800 h1        1 P6F      0.079700
     26 HO4        -2.2120   -1.0710    0.1720 ho        1 P6F      0.404000
     27 H5          0.6640   -1.8780   -1.1540 h1        1 P6F      0.027700
     28 HO5         1.7510   -0.5740   -2.3700 ho        1 P6F      0.439000
     29 H6         -1.3950   -0.6310   -2.6870 h1        1 P6F      0.008200
     30 H6A        -1.4920   -2.1150   -2.0650 h1        1 P6F      0.008200
@<TRIPOS>BOND
     1    1    3 1   
     2    1    4 2   
     3    1    5 1   
     4    5    6 1   
     5    6    7 1   
     6    6   21 1   
     7    6   22 1   
     8    7    8 2   
     9    7    9 1   
    10    9   10 1   
    11    9   11 1   
    12    9   23 1   
    13   10   24 1   
    14   11   12 1   
    15   11   13 1   
    16   11   25 1   
    17   12   26 1   
    18   13   14 1   
    19   13   15 1   
    20   13   27 1   
    21   14   28 1   
    22   15   16 1   
    23   15   29 1   
    24   15   30 1   
    25   16   17 1   
    26   17   18 1   
    27   17   19 1   
    28   17   20 1   
@<TRIPOS>SUBSTRUCTURE
     1 P6F         1 TEMP              0 ****  ****    0 ROOT
