@<TRIPOS>MOLECULE
P6F
   30    29     1     0     0
SMALL
bcc


@<TRIPOS>ATOM
      1 P1          0.8610   -0.4360    0.2130 p5        1 P6F      1.319900
      2 O1P         1.8220   -1.5180   -0.2140 o         1 P6F     -0.937500
      3 O2P         0.3250   -0.5500    1.6150 o         1 P6F     -0.937500
      4 O3P         1.2530    0.9560   -0.2100 o         1 P6F     -0.937500
      5 O1         -0.5370   -0.7520   -0.7800 os        1 P6F     -0.554200
      6 C1         -0.2960   -1.2860   -2.0150 c3        1 P6F      0.140400
      7 C2         -1.2570   -2.3980   -2.3970 c         1 P6F      0.530100
      8 O2         -2.0840   -2.9390   -1.6530 o         1 P6F     -0.578100
      9 C3         -1.1170   -2.9500   -3.8280 c3        1 P6F      0.028100
     10 O3         -1.2700   -4.3640   -3.7880 oh        1 P6F     -0.615800
     11 C4         -2.1230   -2.3460   -4.8310 c3        1 P6F      0.120100
     12 O4         -3.4140   -2.7750   -4.4040 oh        1 P6F     -0.626800
     13 C5         -1.8340   -2.8070   -6.2780 c3        1 P6F      0.083100
     14 O5         -0.5870   -2.2380   -6.6530 oh        1 P6F     -0.644800
     15 C6         -2.9550   -2.4040   -7.2750 c3        1 P6F      0.178400
     16 O6         -2.4560   -2.3610   -8.5520 os        1 P6F     -0.574200
     17 P2         -3.5200   -2.9390   -9.8090 p5        1 P6F      1.321900
     18 O4P        -4.2130   -4.1050   -9.1520 o         1 P6F     -0.936500
     19 O5P        -4.4030   -1.7480  -10.0710 o         1 P6F     -0.936500
     20 O6P        -2.5450   -3.2800  -10.9050 o         1 P6F     -0.936500
     21 H1         -0.4230   -0.5050   -2.8290 h1        1 P6F      0.027700
     22 H1A         0.7510   -1.7160   -2.0690 h1        1 P6F      0.027700
     23 H3         -0.0780   -2.7760   -4.2200 h1        1 P6F      0.094700
     24 HO3        -2.1450   -4.5190   -3.4050 ho        1 P6F      0.407000
     25 H4         -2.0750   -1.2240   -4.7720 h1        1 P6F      0.044700
     26 HO4        -3.9990   -2.7320   -5.1700 ho        1 P6F      0.407000
     27 H5         -1.7150   -3.9260   -6.2780 h1        1 P6F      0.041700
     28 HO5        -0.6450   -2.0610   -7.6060 ho        1 P6F      0.437000
     29 H6         -3.3230   -1.3820   -6.9550 h1        1 P6F      0.002700
     30 H6A        -3.8010   -3.1470   -7.2080 h1        1 P6F      0.002700
@<TRIPOS>BOND
     1    1    2 1   
     2    1    3 1   
     3    1    4 1   
     4    1    5 1   
     5    5    6 1   
     6    6    7 1   
     7    6   21 1   
     8    6   22 1   
     9    7    8 2   
    10    7    9 1   
    11    9   10 1   
    12    9   11 1   
    13    9   23 1   
    14   10   24 1   
    15   11   12 1   
    16   11   13 1   
    17   11   25 1   
    18   12   26 1   
    19   13   14 1   
    20   13   15 1   
    21   13   27 1   
    22   14   28 1   
    23   15   16 1   
    24   15   29 1   
    25   15   30 1   
    26   16   17 1   
    27   17   18 1   
    28   17   19 1   
    29   17   20 1   
@<TRIPOS>SUBSTRUCTURE
     1 P6F         1 TEMP              0 ****  ****    0 ROOT
