@<TRIPOS>MOLECULE
P6F
   30    29     1     0     0
SMALL
bcc


@<TRIPOS>ATOM
      1 P1          5.6540    0.2400   -0.5860 p5        1 P6F      1.319900
      2 O1P         5.3380   -0.8760   -1.5500 o         1 P6F     -0.936833
      3 O2P         6.7020   -0.0640    0.4510 o         1 P6F     -0.936833
      4 O3P         5.7540    1.6060   -1.2140 o         1 P6F     -0.936833
      5 O1          4.1860    0.3620    0.3480 os        1 P6F     -0.553200
      6 C1          3.0250    0.0520   -0.3030 c3        1 P6F      0.142400
      7 C2          2.0830   -0.8140    0.5120 c         1 P6F      0.533100
      8 O2          2.3370   -1.3610    1.5930 o         1 P6F     -0.585100
      9 C3          0.7060   -1.1020   -0.1130 c3        1 P6F     -0.005900
     10 O3          0.3450   -2.4510    0.1700 oh        1 P6F     -0.620800
     11 C4         -0.4190   -0.1680    0.3890 c3        1 P6F      0.121100
     12 O4         -0.6930   -0.4570    1.7540 oh        1 P6F     -0.612800
     13 C5         -1.6970   -0.3190   -0.4670 c3        1 P6F      0.083100
     14 O5         -1.4710    0.3720   -1.6860 oh        1 P6F     -0.646800
     15 C6         -2.9640    0.2120    0.2580 c3        1 P6F      0.186400
     16 O6         -3.9410    0.4950   -0.6650 os        1 P6F     -0.580200
     17 P2         -5.5660    0.0350   -0.2400 p5        1 P6F      1.322900
     18 O4P        -5.3690   -1.2550    0.5140 o         1 P6F     -0.938500
     19 O5P        -6.0380    1.1930    0.5990 o         1 P6F     -0.938500
     20 O6P        -6.2130   -0.0850   -1.5950 o         1 P6F     -0.938500
     21 H1          2.4260    0.9870   -0.5380 h1        1 P6F      0.030200
     22 H1A         3.2410   -0.5070   -1.2650 h1        1 P6F      0.030200
     23 H3          0.7600   -1.0380   -1.2330 h1        1 P6F      0.093700
     24 HO3         0.5080   -2.5770    1.1160 ho        1 P6F      0.400000
     25 H4         -0.0570    0.8950    0.3750 h1        1 P6F      0.075700
     26 HO4        -1.3130   -1.1970    1.7610 ho        1 P6F      0.401000
     27 H5         -1.8370   -1.4090   -0.7120 h1        1 P6F      0.036700
     28 HO5        -2.3370    0.7170   -1.9630 ho        1 P6F      0.438000
     29 H6         -3.3210   -0.5580    0.9970 h1        1 P6F      0.008200
     30 H6A        -2.6530    1.1480    0.8120 h1        1 P6F      0.008200
@<TRIPOS>BOND
     1    1    2 1   
     2    1    3 1   
     3    1    4 1   
     4    1    5 1   
     5    5    6 1   
     6    6    7 1   
     7    6   21 1   
     8    6   22 1   
     9    7    8 2   
    10    7    9 1   
    11    9   10 1   
    12    9   11 1   
    13    9   23 1   
    14   10   24 1   
    15   11   12 1   
    16   11   13 1   
    17   11   25 1   
    18   12   26 1   
    19   13   14 1   
    20   13   15 1   
    21   13   27 1   
    22   14   28 1   
    23   15   16 1   
    24   15   29 1   
    25   15   30 1   
    26   16   17 1   
    27   17   18 1   
    28   17   19 1   
    29   17   20 1   
@<TRIPOS>SUBSTRUCTURE
     1 P6F         1 TEMP              0 ****  ****    0 ROOT
