@<TRIPOS>MOLECULE
P6G
   45    44     1     0     0
SMALL
bcc


@<TRIPOS>ATOM
      1 O1         -1.0580    1.2370    0.4190 oh        1 P6G     -0.599800
      2 C2         -0.6470    0.1600   -0.3960 c3        1 P6G      0.131400
      3 C3          0.8460   -0.1190   -0.2490 c3        1 P6G      0.087400
      4 O4          1.0330   -0.5790    1.0880 os        1 P6G     -0.438600
      5 C5          2.4050   -0.8300    1.3880 c3        1 P6G      0.129400
      6 C6          2.4350   -1.4890    2.7630 c3        1 P6G      0.127400
      7 O7          2.7400   -2.8650    2.5460 os        1 P6G     -0.428600
      8 C8          2.6460   -3.6340    3.7430 c3        1 P6G      0.127400
      9 C9          3.1710   -5.0260    3.4060 c3        1 P6G      0.127400
     10 O10         4.4570   -5.1320    4.0130 os        1 P6G     -0.429600
     11 C11         5.1330   -6.3310    3.6400 c3        1 P6G      0.127400
     12 C12         6.3970   -6.3980    4.4910 c3        1 P6G      0.127400
     13 O13         6.1700   -7.4040    5.4750 os        1 P6G     -0.428600
     14 C14         7.2140   -7.4560    6.4450 c3        1 P6G      0.127400
     15 C15         6.9330   -8.6740    7.3190 c3        1 P6G      0.129400
     16 O16         7.8910   -9.6660    6.9550 os        1 P6G     -0.438600
     17 C17         7.6330  -10.9230    7.5770 c3        1 P6G      0.087400
     18 C18         8.7630  -11.8500    7.1430 c3        1 P6G      0.131400
     19 O19        10.0080  -11.4350    7.6660 oh        1 P6G     -0.599800
     20 H1         -0.8160    1.0120    1.3270 ho        1 P6G      0.412000
     21 H21        -0.8710    0.4840   -1.4460 h1        1 P6G      0.053700
     22 H22        -1.2360   -0.7620   -0.1430 h1        1 P6G      0.053700
     23 H31         1.1720   -0.9100   -0.9730 h1        1 P6G      0.039200
     24 H32         1.4430    0.8160   -0.4140 h1        1 P6G      0.039200
     25 H51         2.9600    0.1440    1.4080 h1        1 P6G      0.045200
     26 H52         2.8540   -1.5060    0.6130 h1        1 P6G      0.045200
     27 H61         1.4420   -1.3880    3.2760 h1        1 P6G      0.043200
     28 H62         3.2360   -1.0290    3.3990 h1        1 P6G      0.043200
     29 H81         1.5710   -3.6880    4.0620 h1        1 P6G      0.044200
     30 H82         3.2580   -3.1640    4.5570 h1        1 P6G      0.044200
     31 H91         2.4950   -5.8130    3.8340 h1        1 P6G      0.044200
     32 H92         3.2530   -5.1620    2.2950 h1        1 P6G      0.044200
     33 H111        4.4770   -7.2220    3.8310 h1        1 P6G      0.044200
     34 H112        5.3960   -6.2820    2.5510 h1        1 P6G      0.044200
     35 H121        7.2770   -6.6920    3.8600 h1        1 P6G      0.044200
     36 H122        6.5980   -5.4100    4.9840 h1        1 P6G      0.044200
     37 H141        8.2110   -7.5520    5.9380 h1        1 P6G      0.043200
     38 H142        7.1920   -6.5190    7.0610 h1        1 P6G      0.043200
     39 H151        7.0650   -8.4170    8.4030 h1        1 P6G      0.045200
     40 H152        5.8920   -9.0570    7.1450 h1        1 P6G      0.045200
     41 H171        6.6420  -11.3210    7.2360 h1        1 P6G      0.039200
     42 H172        7.6270  -10.7990    8.6920 h1        1 P6G      0.039200
     43 H181        8.8120  -11.8970    6.0220 h1        1 P6G      0.053700
     44 H182        8.5960  -12.8770    7.5640 h1        1 P6G      0.053700
     45 H19        10.1470  -10.5260    7.3710 ho        1 P6G      0.412000
@<TRIPOS>BOND
     1    1    2 1   
     2    1   20 1   
     3    2    3 1   
     4    2   21 1   
     5    2   22 1   
     6    3    4 1   
     7    3   23 1   
     8    3   24 1   
     9    4    5 1   
    10    5    6 1   
    11    5   25 1   
    12    5   26 1   
    13    6    7 1   
    14    6   27 1   
    15    6   28 1   
    16    7    8 1   
    17    8    9 1   
    18    8   29 1   
    19    8   30 1   
    20    9   10 1   
    21    9   31 1   
    22    9   32 1   
    23   10   11 1   
    24   11   12 1   
    25   11   33 1   
    26   11   34 1   
    27   12   13 1   
    28   12   35 1   
    29   12   36 1   
    30   13   14 1   
    31   14   15 1   
    32   14   37 1   
    33   14   38 1   
    34   15   16 1   
    35   15   39 1   
    36   15   40 1   
    37   16   17 1   
    38   17   18 1   
    39   17   41 1   
    40   17   42 1   
    41   18   19 1   
    42   18   43 1   
    43   18   44 1   
    44   19   45 1   
@<TRIPOS>SUBSTRUCTURE
     1 P6G         1 TEMP              0 ****  ****    0 ROOT
