@<TRIPOS>MOLECULE
P6L
  125   124     1     0     0
SMALL
bcc


@<TRIPOS>ATOM
      1 C1          2.0950   -2.6770   -0.3690 c3        1 P6L      0.154400
      2 C2          3.1870   -1.7860    0.2280 c3        1 P6L      0.095100
      3 O3          4.1580   -1.3930   -0.7330 oh        1 P6L     -0.644800
      4 O4         -2.9310   -0.1340   -0.8350 os        1 P6L     -0.426900
      5 C5         -2.1970   -0.4440   -2.0390 c3        1 P6L      0.138100
      6 C6         -1.4390    0.7840   -2.5350 c3        1 P6L      0.127400
      7 C7         -1.2720   -1.6020   -1.6450 c3        1 P6L      0.182400
      8 O8         -0.3920    1.0660   -1.5970 os        1 P6L     -0.439900
      9 O9         -0.5000   -1.9400   -2.7580 os        1 P6L     -0.560200
     10 O10         1.2920   -3.4730   -3.6780 o         1 P6L     -0.818000
     11 P11         0.6300   -3.0950   -2.4230 p5        1 P6L      1.424800
     12 O12         1.6870   -2.1180   -1.5800 os        1 P6L     -0.590200
     13 O13         0.0440   -3.9940   -1.4100 o         1 P6L     -0.818000
     14 O15        -4.5620    0.7840   -2.0760 o         1 P6L     -0.562000
     15 C16         0.7740    1.5770   -2.1030 c         1 P6L      0.649100
     16 O17         0.7470    2.1160   -3.2120 o         1 P6L     -0.559000
     17 C18        -4.7630    0.7690    0.3760 c3        1 P6L     -0.130400
     18 C19        -6.2700    0.6650    0.2930 c3        1 P6L     -0.079400
     19 C20        -6.9120    1.0800    1.5990 c3        1 P6L     -0.076400
     20 C21        -8.4200    0.9600    1.5240 c3        1 P6L     -0.051200
     21 C22        -9.0810    1.3670    2.7860 c2        1 P6L     -0.167200
     22 C23       -10.4070    1.3890    2.9560 c2        1 P6L     -0.181200
     23 C24       -11.3770    1.0130    1.9010 c3        1 P6L     -0.048200
     24 C25       -12.8110    1.0950    2.3820 c3        1 P6L     -0.076400
     25 C26       -13.7780    0.7050    1.2850 c3        1 P6L     -0.080400
     26 C27         1.9250    1.3820   -1.1690 c3        1 P6L     -0.142400
     27 C28         3.0820    2.2960   -1.5060 c3        1 P6L     -0.071400
     28 C29         4.2700    1.9980   -0.6170 c3        1 P6L     -0.091400
     29 C30         5.4650    2.8430   -1.0020 c3        1 P6L     -0.075400
     30 C31         6.6500    2.5570   -0.1040 c3        1 P6L     -0.077400
     31 C32         7.8420    3.4120   -0.4850 c3        1 P6L     -0.050200
     32 C33         9.0040    3.1580    0.4000 c2        1 P6L     -0.158200
     33 C34        10.2610    3.0540   -0.0400 c2        1 P6L     -0.184200
     34 C35        11.4270    2.8370    0.8500 c3        1 P6L     -0.044200
     35 C36        12.3400    1.7520    0.3130 c3        1 P6L     -0.077400
     36 C37       -15.2120    0.7860    1.7630 c3        1 P6L     -0.078400
     37 C38        13.5370    1.5490    1.2180 c3        1 P6L     -0.078400
     38 C39        14.4510    0.4680    0.6840 c3        1 P6L     -0.079400
     39 C40        15.6480    0.2640    1.5880 c3        1 P6L     -0.078400
     40 C41        16.5620   -0.8180    1.0530 c3        1 P6L     -0.079400
     41 C42        17.7590   -1.0230    1.9560 c3        1 P6L     -0.078400
     42 C43        18.6740   -2.1050    1.4230 c3        1 P6L     -0.080400
     43 C44        19.8680   -2.3120    2.3190 c3        1 P6L     -0.092100
     44 C45       -16.1800    0.3950    0.6670 c3        1 P6L     -0.079400
     45 C46       -17.6140    0.4760    1.1440 c3        1 P6L     -0.078400
     46 C47       -18.5810    0.0860    0.0480 c3        1 P6L     -0.079400
     47 C48       -20.0160    0.1660    0.5230 c3        1 P6L     -0.080400
     48 C49       -20.9830   -0.2220   -0.5650 c3        1 P6L     -0.092100
     49 C50         3.9330   -2.5260    1.3400 c3        1 P6L      0.126400
     50 O51         4.9310   -1.7130    1.9280 oh        1 P6L     -0.617800
     51 H11         1.2180   -2.7460    0.3290 h1        1 P6L      0.039700
     52 H12         2.4870   -3.7140   -0.5570 h1        1 P6L      0.039700
     53 H2          2.7300   -0.8400    0.6380 h1        1 P6L      0.042700
     54 HO3         3.7580   -1.4890   -1.6110 ho        1 P6L      0.445000
     55 H5         -2.9130   -0.7620   -2.8460 h1        1 P6L      0.079700
     56 H61        -2.1100    1.6810   -2.5770 h1        1 P6L      0.069200
     57 H62        -1.0070    0.5620   -3.5470 h1        1 P6L      0.069200
     58 H71        -0.5940   -1.2900   -0.8030 h1        1 P6L      0.046700
     59 H72        -1.8750   -2.4930   -1.3210 h1        1 P6L      0.046700
     60 H181       -4.3570    0.0510    1.1370 hc        1 P6L      0.076200
     61 H182       -4.4570    1.8050    0.6850 hc        1 P6L      0.076200
     62 H191       -6.6430    1.3140   -0.5440 hc        1 P6L      0.056200
     63 H192       -6.5600   -0.3900    0.0450 hc        1 P6L      0.056200
     64 H201       -6.5240    0.4350    2.4320 hc        1 P6L      0.041700
     65 H202       -6.6300    2.1390    1.8390 hc        1 P6L      0.041700
     66 H211       -8.8050    1.5950    0.6780 hc        1 P6L      0.050200
     67 H212       -8.7010   -0.1020    1.2810 hc        1 P6L      0.050200
     68 H22        -8.4090    1.6580    3.6100 ha        1 P6L      0.121000
     69 H23       -10.8390    1.7000    3.9210 ha        1 P6L      0.118000
     70 H241      -11.2400    1.6870    1.0110 hc        1 P6L      0.049200
     71 H242      -11.1580   -0.0330    1.5470 hc        1 P6L      0.049200
     72 H251      -12.9510    0.4190    3.2660 hc        1 P6L      0.039200
     73 H252      -13.0330    2.1400    2.7260 hc        1 P6L      0.039200
     74 H261      -13.6380    1.3810    0.4010 hc        1 P6L      0.041200
     75 H262      -13.5550   -0.3400    0.9410 hc        1 P6L      0.041200
     76 H271        2.2340    0.2970   -1.2580 hc        1 P6L      0.094700
     77 H272        1.5810    1.5450   -0.1140 hc        1 P6L      0.094700
     78 H281        2.7700    3.3660   -1.3840 hc        1 P6L      0.047700
     79 H282        3.3630    2.1550   -2.5840 hc        1 P6L      0.047700
     80 H291        4.5320    0.9060   -0.6930 hc        1 P6L      0.054200
     81 H292        3.9980    2.1970    0.4540 hc        1 P6L      0.054200
     82 H301        5.1960    3.9300   -0.9370 hc        1 P6L      0.035700
     83 H302        5.7430    2.6340   -2.0690 hc        1 P6L      0.035700
     84 H311        6.9250    1.4720   -0.1790 hc        1 P6L      0.044700
     85 H312        6.3700    2.7550    0.9640 hc        1 P6L      0.044700
     86 H321        7.5610    4.4980   -0.4060 hc        1 P6L      0.044200
     87 H322        8.1110    3.2210   -1.5590 hc        1 P6L      0.044200
     88 H33         8.7640    3.0630    1.4730 ha        1 P6L      0.119000
     89 H34        10.4980    3.1340   -1.1130 ha        1 P6L      0.119000
     90 H351       11.0910    2.5630    1.8860 hc        1 P6L      0.041700
     91 H352       12.0030    3.8000    0.9330 hc        1 P6L      0.041700
     92 H361       12.6890    2.0280   -0.7170 hc        1 P6L      0.043700
     93 H362       11.7680    0.7920    0.2230 hc        1 P6L      0.043700
     94 H371      -15.3530    0.1100    2.6470 hc        1 P6L      0.038200
     95 H372      -15.4350    1.8310    2.1070 hc        1 P6L      0.038200
     96 H381       13.1870    1.2710    2.2470 hc        1 P6L      0.037700
     97 H382       14.1060    2.5110    1.3110 hc        1 P6L      0.037700
     98 H391       14.8000    0.7450   -0.3460 hc        1 P6L      0.041200
     99 H392       13.8810   -0.4940    0.5920 hc        1 P6L      0.041200
    100 H401       15.2990   -0.0140    2.6170 hc        1 P6L      0.038200
    101 H402       16.2180    1.2260    1.6800 hc        1 P6L      0.038200
    102 H411       16.9100   -0.5410    0.0230 hc        1 P6L      0.040200
    103 H412       15.9920   -1.7800    0.9610 hc        1 P6L      0.040200
    104 H421       17.4110   -1.3000    2.9860 hc        1 P6L      0.038700
    105 H422       18.3300   -0.0610    2.0490 hc        1 P6L      0.038700
    106 H431       19.0200   -1.8270    0.3920 hc        1 P6L      0.038700
    107 H432       18.1010   -3.0650    1.3300 hc        1 P6L      0.038700
    108 H441       19.5430   -2.6140    3.3440 hc        1 P6L      0.031033
    109 H442       20.5280   -3.1130    1.9080 hc        1 P6L      0.031033
    110 H443       20.4650   -1.3720    2.4040 hc        1 P6L      0.031033
    111 H451      -16.0390    1.0710   -0.2180 hc        1 P6L      0.040700
    112 H452      -15.9560   -0.6490    0.3230 hc        1 P6L      0.040700
    113 H461      -17.7550   -0.2000    2.0280 hc        1 P6L      0.038200
    114 H462      -17.8370    1.5210    1.4880 hc        1 P6L      0.038200
    115 H471      -18.4410    0.7620   -0.8370 hc        1 P6L      0.040200
    116 H472      -18.3580   -0.9590   -0.2970 hc        1 P6L      0.040200
    117 H481      -20.1540   -0.5090    1.4090 hc        1 P6L      0.037700
    118 H482      -20.2370    1.2110    0.8690 hc        1 P6L      0.037700
    119 H491      -22.0340   -0.1560   -0.1940 hc        1 P6L      0.031700
    120 H492      -20.8770    0.4560   -1.4470 hc        1 P6L      0.031700
    121 H493      -20.7940   -1.2690   -0.9050 hc        1 P6L      0.031700
    122 H501        3.2300   -2.7830    2.1740 h1        1 P6L      0.044700
    123 H502        4.4030   -3.4600    0.9320 h1        1 P6L      0.044700
    124 H51         5.4400   -1.3280    1.2020 ho        1 P6L      0.413000
    125 C14        -4.1290    0.4960   -0.9570 c         1 P6L      0.634100
@<TRIPOS>BOND
     1    1    2 1   
     2    1   12 1   
     3    1   51 1   
     4    1   52 1   
     5    2    3 1   
     6    2   49 1   
     7    2   53 1   
     8    3   54 1   
     9    4    5 1   
    10    4  125 1   
    11    5    6 1   
    12    5    7 1   
    13    5   55 1   
    14    6    8 1   
    15    6   56 1   
    16    6   57 1   
    17    7    9 1   
    18    7   58 1   
    19    7   59 1   
    20    8   15 1   
    21    9   11 1   
    22   10   11 1   
    23   11   12 1   
    24   11   13 1   
    25   14  125 2   
    26   15   16 2   
    27   15   26 1   
    28   17   18 1   
    29   17   60 1   
    30   17   61 1   
    31   17  125 1   
    32   18   19 1   
    33   18   62 1   
    34   18   63 1   
    35   19   20 1   
    36   19   64 1   
    37   19   65 1   
    38   20   21 1   
    39   20   66 1   
    40   20   67 1   
    41   21   22 2   
    42   21   68 1   
    43   22   23 1   
    44   22   69 1   
    45   23   24 1   
    46   23   70 1   
    47   23   71 1   
    48   24   25 1   
    49   24   72 1   
    50   24   73 1   
    51   25   36 1   
    52   25   74 1   
    53   25   75 1   
    54   26   27 1   
    55   26   76 1   
    56   26   77 1   
    57   27   28 1   
    58   27   78 1   
    59   27   79 1   
    60   28   29 1   
    61   28   80 1   
    62   28   81 1   
    63   29   30 1   
    64   29   82 1   
    65   29   83 1   
    66   30   31 1   
    67   30   84 1   
    68   30   85 1   
    69   31   32 1   
    70   31   86 1   
    71   31   87 1   
    72   32   33 2   
    73   32   88 1   
    74   33   34 1   
    75   33   89 1   
    76   34   35 1   
    77   34   90 1   
    78   34   91 1   
    79   35   37 1   
    80   35   92 1   
    81   35   93 1   
    82   36   44 1   
    83   36   94 1   
    84   36   95 1   
    85   37   38 1   
    86   37   96 1   
    87   37   97 1   
    88   38   39 1   
    89   38   98 1   
    90   38   99 1   
    91   39   40 1   
    92   39  100 1   
    93   39  101 1   
    94   40   41 1   
    95   40  102 1   
    96   40  103 1   
    97   41   42 1   
    98   41  104 1   
    99   41  105 1   
   100   42   43 1   
   101   42  106 1   
   102   42  107 1   
   103   43  108 1   
   104   43  109 1   
   105   43  110 1   
   106   44   45 1   
   107   44  111 1   
   108   44  112 1   
   109   45   46 1   
   110   45  113 1   
   111   45  114 1   
   112   46   47 1   
   113   46  115 1   
   114   46  116 1   
   115   47   48 1   
   116   47  117 1   
   117   47  118 1   
   118   48  119 1   
   119   48  120 1   
   120   48  121 1   
   121   49   50 1   
   122   49  122 1   
   123   49  123 1   
   124   50  124 1   
@<TRIPOS>SUBSTRUCTURE
     1 P6L         1 TEMP              0 ****  ****    0 ROOT
