@<TRIPOS>MOLECULE
P6P
   27    26     1     0     0
SMALL
bcc


@<TRIPOS>ATOM
      1 P          -3.9910    0.9520    1.3370 p3        1 P6P      2.525000
      2 C1          1.8680   -1.8820    0.2860 c3        1 P6P      0.012000
      3 O1          1.7570   -2.5000    1.5710 oh        1 P6P     -0.355000
      4 C2          1.6200   -0.3930    0.4200 c3        1 P6P      0.129000
      5 O2          2.5100    0.1350    1.1640 oh        1 P6P     -0.364000
      6 C3          1.6230    0.2950   -1.0150 c3        1 P6P     -0.027000
      7 O3          2.1640   -0.6630   -2.0530 oh        1 P6P     -0.345000
      8 C4          0.4490    0.5490   -1.2440 c3        1 P6P      0.014000
      9 O4          0.3440    1.8100   -2.0210 oh        1 P6P     -0.399000
     10 C5         -0.2820    0.7300    0.2370 c3        1 P6P     -0.047000
     11 O5          0.2320   -0.1420    0.9950 os        1 P6P     -0.332000
     12 C6         -1.7660    0.5010    0.1130 c3        1 P6P      0.086000
     13 O6         -2.4100    0.9180    1.3050 o         1 P6P     -0.721000
     14 O1P        -4.4580    1.1680    2.7470 o         1 P6P     -1.251000
     15 O2P        -4.5330   -0.3600    0.8220 o         1 P6P     -1.251000
     16 O3P        -4.4890    2.0810    0.4640 o         1 P6P     -1.251000
     17 H1          1.2030   -2.2710   -0.3230 h1        1 P6P      0.083500
     18 H1A         2.7650   -2.0320   -0.0720 h1        1 P6P      0.083500
     19 HO1         2.0760   -3.3260    1.5310 ho        1 P6P      0.225000
     20 HO2         2.3490   -0.0720    2.0090 ho        1 P6P      0.215000
     21 H3          2.1540    1.1170   -0.9980 h1        1 P6P      0.124000
     22 HO3         2.7500   -0.2340   -2.5810 ho        1 P6P      0.211000
     23 H4          0.0340   -0.1860   -1.7370 h1        1 P6P      0.155000
     24 HO4         0.1890    1.6200   -2.8720 ho        1 P6P      0.300000
     25 H5         -0.1080    1.6280    0.5900 h1        1 P6P      0.102000
     26 H6         -2.1120    1.0120   -0.6390 h1        1 P6P      0.038500
     27 H6A        -1.9380   -0.4530   -0.0350 h1        1 P6P      0.038500
@<TRIPOS>BOND
     1    1   14 1   
     2    1   15 1   
     3    1   16 1   
     4    2    3 1   
     5    2    4 1   
     6    2   17 1   
     7    2   18 1   
     8    3   19 1   
     9    4    5 1   
    10    4    6 1   
    11    4   11 1   
    12    5   20 1   
    13    6    7 1   
    14    6    8 1   
    15    6   21 1   
    16    7   22 1   
    17    8    9 1   
    18    8   10 1   
    19    8   23 1   
    20    9   24 1   
    21   10   11 1   
    22   10   12 1   
    23   10   25 1   
    24   12   13 1   
    25   12   26 1   
    26   12   27 1   
@<TRIPOS>SUBSTRUCTURE
     1 P6P         1 TEMP              0 ****  ****    0 ROOT
