@<TRIPOS>MOLECULE
P6P
   27    27     1     0     0
SMALL
bcc


@<TRIPOS>ATOM
      1 P           2.7130    1.1020    0.3490 p5        1 P6P      1.332900
      2 C1         -3.6270   -1.1560    0.8220 c3        1 P6P      0.162400
      3 O1         -3.6150   -2.5580    0.6480 oh        1 P6P     -0.627800
      4 C2         -2.7940   -0.4130   -0.2290 c3        1 P6P      0.272600
      5 O2         -3.4500   -0.5470   -1.4780 oh        1 P6P     -0.636800
      6 C3         -2.5180    1.0820    0.0890 c3        1 P6P      0.084100
      7 O3         -2.9260    1.4240    1.3980 oh        1 P6P     -0.617800
      8 C4         -1.0000    1.2600   -0.1440 c3        1 P6P      0.125100
      9 O4         -0.8170    2.1990   -1.1790 oh        1 P6P     -0.671800
     10 C5         -0.4730   -0.1280   -0.5620 c3        1 P6P      0.064100
     11 O5         -1.5570   -1.0800   -0.4060 os        1 P6P     -0.475600
     12 C6          0.7380   -0.6120    0.2740 c3        1 P6P      0.236400
     13 O6          1.9120   -0.2840   -0.3440 os        1 P6P     -0.559200
     14 O1P         3.9810    1.2070   -0.4400 o         1 P6P     -0.931500
     15 O2P         1.6350    2.1300    0.0580 o         1 P6P     -0.931500
     16 O3P         2.8050    0.7100    1.7960 o         1 P6P     -0.931500
     17 H1         -4.7010   -0.8470    0.7410 h1        1 P6P      0.044200
     18 H1A        -3.2250   -0.9060    1.8400 h1        1 P6P      0.044200
     19 HO1        -2.7260   -2.8010    0.3540 ho        1 P6P      0.426000
     20 HO2        -2.7960   -0.3340   -2.1560 ho        1 P6P      0.416000
     21 H3         -3.1230    1.7390   -0.5920 h1        1 P6P      0.084700
     22 HO3        -2.1860    1.2320    1.9900 ho        1 P6P      0.412000
     23 H4         -0.4800    1.6240    0.7880 h1        1 P6P      0.115700
     24 HO4         0.1280    2.4730   -1.1080 ho        1 P6P      0.501000
     25 H5         -0.2030   -0.1260   -1.6510 h1        1 P6P      0.062700
     26 H6          0.6840   -0.1700    1.3090 h1        1 P6P     -0.000800
     27 H6A         0.6490   -1.7360    0.3510 h1        1 P6P     -0.000800
@<TRIPOS>BOND
     1    1   13 1   
     2    1   14 1   
     3    1   15 1   
     4    1   16 1   
     5    2    3 1   
     6    2    4 1   
     7    2   17 1   
     8    2   18 1   
     9    3   19 1   
    10    4    5 1   
    11    4    6 1   
    12    4   11 1   
    13    5   20 1   
    14    6    7 1   
    15    6    8 1   
    16    6   21 1   
    17    7   22 1   
    18    8    9 1   
    19    8   10 1   
    20    8   23 1   
    21    9   24 1   
    22   10   11 1   
    23   10   12 1   
    24   10   25 1   
    25   12   13 1   
    26   12   26 1   
    27   12   27 1   
@<TRIPOS>SUBSTRUCTURE
     1 P6P         1 TEMP              0 ****  ****    0 ROOT
