@<TRIPOS>MOLECULE
P6T
   30    29     1     0     0
SMALL
bcc


@<TRIPOS>ATOM
      1 O1         -4.2620    0.0880   -0.6410 os        1 P6T     -0.555200
      2 C1         -3.1480    0.0060    0.1480 c3        1 P6T      0.140400
      3 C2         -1.9790   -0.6980   -0.5120 c         1 P6T      0.541100
      4 C3         -0.7090   -0.8500    0.3500 c3        1 P6T      0.000100
      5 C4          0.5050   -0.0880   -0.2400 c3        1 P6T      0.113100
      6 C5          1.8530   -0.5340    0.3770 c3        1 P6T      0.088100
      7 C6          3.0100   -0.4420   -0.6510 c3        1 P6T      0.201400
      8 O63         6.5560   -0.9670    0.6090 o         1 P6T     -0.935833
      9 P6          5.4870   -0.0250    0.1240 p5        1 P6T      1.325900
     10 O61         4.8860    0.8910    1.1680 o         1 P6T     -0.935833
     11 O62         5.7430    0.6140   -1.2140 o         1 P6T     -0.935833
     12 O6          4.1410   -1.0630   -0.1750 os        1 P6T     -0.577200
     13 O5          2.1050    0.2760    1.5110 oh        1 P6T     -0.691800
     14 O4          0.2920    1.3040   -0.0950 oh        1 P6T     -0.617800
     15 O3         -0.4170   -2.2390    0.4560 oh        1 P6T     -0.604800
     16 O2         -1.9550   -1.2000   -1.6430 o         1 P6T     -0.598100
     17 P1         -5.7910   -0.1000    0.1750 p5        1 P6T      1.319900
     18 O13        -6.0630    1.2890    0.6920 o         1 P6T     -0.938833
     19 O11        -6.7120   -0.5660   -0.9210 o         1 P6T     -0.938833
     20 O12        -5.4740   -1.1170    1.2440 o         1 P6T     -0.938833
     21 H1         -2.7440    1.0380    0.3980 h1        1 P6T      0.031200
     22 H1A        -3.3800   -0.5470    1.1090 h1        1 P6T      0.031200
     23 H3         -0.8960   -0.5120    1.4040 h1        1 P6T      0.080700
     24 H4          0.5220   -0.2670   -1.3520 h1        1 P6T      0.056700
     25 H5          1.7610   -1.5980    0.7310 h1        1 P6T      0.041700
     26 H6          2.6630   -0.9620   -1.5930 h1        1 P6T     -0.004300
     27 H6A         3.2100    0.6410   -0.8840 h1        1 P6T     -0.004300
     28 HO5         3.0690    0.5070    1.4960 ho        1 P6T      0.494000
     29 HO4         0.6860    1.5690    0.7490 ho        1 P6T      0.417000
     30 HO3        -0.3160   -2.5590   -0.4490 ho        1 P6T      0.394000
@<TRIPOS>BOND
     1    1    2 1   
     2    1   17 1   
     3    2    3 1   
     4    2   21 1   
     5    2   22 1   
     6    3    4 1   
     7    3   16 2   
     8    4    5 1   
     9    4   15 1   
    10    4   23 1   
    11    5    6 1   
    12    5   14 1   
    13    5   24 1   
    14    6    7 1   
    15    6   13 1   
    16    6   25 1   
    17    7   12 1   
    18    7   26 1   
    19    7   27 1   
    20    8    9 1   
    21    9   10 1   
    22    9   11 1   
    23    9   12 1   
    24   13   28 1   
    25   14   29 1   
    26   15   30 1   
    27   17   18 1   
    28   17   19 1   
    29   17   20 1   
@<TRIPOS>SUBSTRUCTURE
     1 P6T         1 TEMP              0 ****  ****    0 ROOT
