@<TRIPOS>MOLECULE
P6T
   30    29     1     0     0
SMALL
bcc


@<TRIPOS>ATOM
      1 O1         -0.2720   -0.1600   -0.1540 os        1 P6T     -0.555200
      2 C1          1.0880   -0.0460   -0.2440 c3        1 P6T      0.140400
      3 C2          1.8270   -0.5320    0.9870 c         1 P6T      0.541100
      4 C3          3.3630   -0.3910    0.9510 c3        1 P6T      0.000100
      5 C4          4.0880   -1.7600    1.0100 c3        1 P6T      0.113100
      6 C5          5.5890   -1.6320    1.3630 c3        1 P6T      0.088100
      7 C6          6.0910   -2.8510    2.1780 c3        1 P6T      0.201400
      8 O63         9.8260   -3.1580    2.8050 o         1 P6T     -0.935833
      9 P6          8.6010   -3.6220    2.0640 p5        1 P6T      1.325900
     10 O61         8.5310   -3.2490    0.5990 o         1 P6T     -0.935833
     11 O62         8.1340   -5.0150    2.3910 o         1 P6T     -0.935833
     12 O6          7.3450   -2.6180    2.6900 os        1 P6T     -0.577200
     13 O5          6.3120   -1.4860    0.1540 oh        1 P6T     -0.691800
     14 O4          3.8890   -2.4410   -0.2150 oh        1 P6T     -0.617800
     15 O3          3.7530    0.4220    2.0520 oh        1 P6T     -0.604800
     16 O2          1.3270   -0.9820    2.0270 o         1 P6T     -0.598100
     17 P1         -1.1950    1.1340   -0.8710 p5        1 P6T      1.319900
     18 O13        -1.2640    0.7260   -2.3200 o         1 P6T     -0.938833
     19 O11        -2.5040    1.0760   -0.1270 o         1 P6T     -0.938833
     20 O12        -0.3370    2.3440   -0.5980 o         1 P6T     -0.938833
     21 H1          1.3870    1.0330   -0.4170 h1        1 P6T      0.031200
     22 H1A         1.5000   -0.6890   -1.0840 h1        1 P6T      0.031200
     23 H3          3.6920    0.1770    0.0410 h1        1 P6T      0.080700
     24 H4          3.5710   -2.3940    1.7850 h1        1 P6T      0.056700
     25 H5          5.7450   -0.6960    1.9680 h1        1 P6T      0.041700
     26 H6          6.0860   -3.7620    1.5170 h1        1 P6T     -0.004300
     27 H6A         5.3610   -3.0090    3.0260 h1        1 P6T     -0.004300
     28 HO5         7.1310   -2.0400    0.2350 ho        1 P6T      0.494000
     29 HO4         4.6270   -2.2080   -0.7960 ho        1 P6T      0.417000
     30 HO3         3.4190   -0.0220    2.8420 ho        1 P6T      0.394000
@<TRIPOS>BOND
     1    1    2 1   
     2    1   17 1   
     3    2    3 1   
     4    2   21 1   
     5    2   22 1   
     6    3    4 1   
     7    3   16 2   
     8    4    5 1   
     9    4   15 1   
    10    4   23 1   
    11    5    6 1   
    12    5   14 1   
    13    5   24 1   
    14    6    7 1   
    15    6   13 1   
    16    6   25 1   
    17    7   12 1   
    18    7   26 1   
    19    7   27 1   
    20    8    9 1   
    21    9   10 1   
    22    9   11 1   
    23    9   12 1   
    24   13   28 1   
    25   14   29 1   
    26   15   30 1   
    27   17   18 1   
    28   17   19 1   
    29   17   20 1   
@<TRIPOS>SUBSTRUCTURE
     1 P6T         1 TEMP              0 ****  ****    0 ROOT
