@<TRIPOS>MOLECULE
P6T
   30    29     1     0     0
SMALL
bcc


@<TRIPOS>ATOM
      1 O1         -3.5410    0.1330   -2.5250 os        1 P6T     -0.556200
      2 C1         -2.1390    0.0520   -2.4160 c3        1 P6T      0.140400
      3 C2         -1.7240    0.3730   -0.9970 c         1 P6T      0.561100
      4 C3         -0.2620    0.5590   -0.6610 c3        1 P6T     -0.002900
      5 C4          0.0670   -0.2060    0.6000 c3        1 P6T      0.121100
      6 C5          1.5600   -0.1740    0.8350 c3        1 P6T      0.117100
      7 C6          1.8360   -0.1370    2.3210 c3        1 P6T      0.191400
      8 O63         3.1360   -1.2080    4.8720 o         1 P6T     -0.939833
      9 P6          3.7590   -0.1230    4.0260 p5        1 P6T      1.323900
     10 O61         5.2610   -0.2800    4.0320 o         1 P6T     -0.939833
     11 O62         3.3920    1.2290    4.5900 o         1 P6T     -0.939833
     12 O6          3.2230   -0.2380    2.5430 os        1 P6T     -0.585200
     13 O5          2.1470   -1.3260    0.2770 oh        1 P6T     -0.662800
     14 O4         -0.3580   -1.5420    0.4630 oh        1 P6T     -0.607800
     15 O3          0.0030    1.9270   -0.4610 oh        1 P6T     -0.602800
     16 O2         -2.5660    0.4830   -0.1280 o         1 P6T     -0.600100
     17 P1         -4.1870    0.1030   -3.9670 p5        1 P6T      1.319900
     18 O13        -3.7980   -1.1770   -4.6660 o         1 P6T     -0.938167
     19 O11        -5.6910    0.1740   -3.8460 o         1 P6T     -0.938167
     20 O12        -3.6900    1.2840   -4.7660 o         1 P6T     -0.938167
     21 H1         -1.8460   -0.8550   -2.6450 h1        1 P6T      0.037700
     22 H1A        -1.7260    0.6930   -3.0300 h1        1 P6T      0.037700
     23 H3          0.2870    0.2250   -1.3970 h1        1 P6T      0.057700
     24 H4         -0.3910    0.2050    1.3600 h1        1 P6T      0.030700
     25 H5          1.9390    0.6220    0.4120 h1        1 P6T      0.024700
     26 H6          1.3800   -0.8860    2.7570 h1        1 P6T      0.016700
     27 H6A         1.5070    0.7080    2.6930 h1        1 P6T      0.016700
     28 HO5         2.7680   -1.0860   -0.3130 ho        1 P6T      0.442000
     29 HO4        -0.9040   -1.7500    1.1330 ho        1 P6T      0.402000
     30 HO3         0.5550    2.2180   -1.0950 ho        1 P6T      0.409000
@<TRIPOS>BOND
     1    1    2 1   
     2    1   17 1   
     3    2    3 1   
     4    2   21 1   
     5    2   22 1   
     6    3    4 1   
     7    3   16 2   
     8    4    5 1   
     9    4   15 1   
    10    4   23 1   
    11    5    6 1   
    12    5   14 1   
    13    5   24 1   
    14    6    7 1   
    15    6   13 1   
    16    6   25 1   
    17    7   12 1   
    18    7   26 1   
    19    7   27 1   
    20    8    9 1   
    21    9   10 1   
    22    9   11 1   
    23    9   12 1   
    24   13   28 1   
    25   14   29 1   
    26   15   30 1   
    27   17   18 1   
    28   17   19 1   
    29   17   20 1   
@<TRIPOS>SUBSTRUCTURE
     1 P6T         1 TEMP              0 ****  ****    0 ROOT
