@<TRIPOS>MOLECULE
P6T
   30    29     1     0     0
SMALL
bcc


@<TRIPOS>ATOM
      1 O1         -0.1400   -0.4340   -0.3420 os        1 P6T     -0.551200
      2 C1          1.1500   -0.0200   -0.1770 c3        1 P6T      0.138400
      3 C2          1.8180   -0.5750    1.0660 c         1 P6T      0.512100
      4 C3          3.3400   -0.3540    1.1690 c3        1 P6T     -0.011900
      5 C4          4.1310   -1.6690    0.9790 c3        1 P6T      0.114100
      6 C5          5.6400   -1.5020    1.2600 c3        1 P6T      0.126100
      7 C6          6.3400   -2.8720    1.4720 c3        1 P6T      0.188400
      8 O63        10.0430   -2.8500    2.1400 o         1 P6T     -0.940167
      9 P6          8.7470   -3.5940    2.3300 p5        1 P6T      1.323900
     10 O61         8.7320   -5.0030    1.7970 o         1 P6T     -0.940167
     11 O62         8.0750   -3.4180    3.6680 o         1 P6T     -0.940167
     12 O6          7.6880   -2.7480    1.2400 os        1 P6T     -0.581200
     13 O5          6.2310   -0.7570    0.2100 oh        1 P6T     -0.638800
     14 O4          3.9710   -2.1630   -0.3420 oh        1 P6T     -0.590800
     15 O3          3.6280    0.2120    2.4410 oh        1 P6T     -0.599800
     16 O2          1.2650   -1.1420    2.0170 o         1 P6T     -0.584100
     17 P1         -1.2600    0.7780   -0.9200 p5        1 P6T      1.318900
     18 O13        -1.0960    0.6760   -2.4140 o         1 P6T     -0.934833
     19 O11        -2.5860    0.3090   -0.3840 o         1 P6T     -0.934833
     20 O12        -0.7090    2.0420   -0.3110 o         1 P6T     -0.934833
     21 H1          1.8050   -0.3710   -1.0370 h1        1 P6T      0.030700
     22 H1A         1.2040    1.1110   -0.1050 h1        1 P6T      0.030700
     23 H3          3.6930    0.4090    0.4250 h1        1 P6T      0.095700
     24 H4          3.7230   -2.4290    1.7070 h1        1 P6T      0.024700
     25 H5          5.7360   -0.8800    2.1960 h1        1 P6T      0.039700
     26 H6          5.8750   -3.5910    0.7340 h1        1 P6T      0.009200
     27 H6A         6.1440   -3.2270    2.5220 h1        1 P6T      0.009200
     28 HO5         7.0580   -1.2110   -0.0160 ho        1 P6T      0.433000
     29 HO4         3.0270   -2.1050   -0.5440 ho        1 P6T      0.393000
     30 HO3         3.2800   -0.4070    3.0960 ho        1 P6T      0.397000
@<TRIPOS>BOND
     1    1    2 1   
     2    1   17 1   
     3    2    3 1   
     4    2   21 1   
     5    2   22 1   
     6    3    4 1   
     7    3   16 2   
     8    4    5 1   
     9    4   15 1   
    10    4   23 1   
    11    5    6 1   
    12    5   14 1   
    13    5   24 1   
    14    6    7 1   
    15    6   13 1   
    16    6   25 1   
    17    7   12 1   
    18    7   26 1   
    19    7   27 1   
    20    8    9 1   
    21    9   10 1   
    22    9   11 1   
    23    9   12 1   
    24   13   28 1   
    25   14   29 1   
    26   15   30 1   
    27   17   18 1   
    28   17   19 1   
    29   17   20 1   
@<TRIPOS>SUBSTRUCTURE
     1 P6T         1 TEMP              0 ****  ****    0 ROOT
