@<TRIPOS>MOLECULE
P74
   67    64     1     0     0
SMALL
bcc


@<TRIPOS>ATOM
      1 C01         1.3170   -1.3530   -1.9130 c1        1 P74     -0.021000
      2 C04         0.5390   -1.3210   -3.2270 c1        1 P74     -0.143000
      3 C05        -0.0740   -1.2970   -4.2630 c1        1 P74     -0.143000
      4 C06        -0.8510   -1.2650   -5.5790 c2        1 P74      0.075000
      5 N          -2.2410   -1.0430   -5.3080 n         1 P74     -0.322000
      6 C1          1.3450   -1.3590    0.5000 c1        1 P74     -0.108000
      7 N1          1.0290   -0.5650    2.7910 n3        1 P74     -0.258000
      8 O1          4.0030   -1.9800    0.8270 oh        1 P74     -0.245000
      9 C02         2.7060   -1.4580   -1.9290 c1        1 P74     -0.037000
     10 C2          0.8020   -1.6920    1.9030 c2        1 P74     -0.026000
     11 N2          1.3580    1.6980    6.3660 n3        1 P74     -0.278000
     12 C03         2.1610   -0.8670    3.6920 c3        1 P74     -0.069500
     13 C3          0.6370   -1.3040   -0.6980 c2        1 P74     -0.037000
     14 C4          3.4140   -1.5130   -0.7310 c1        1 P74     -0.357000
     15 C7          2.7330   -1.4630    0.4830 c2        1 P74      0.129000
     16 C8          2.3680    0.2100    4.7510 c3        1 P74     -0.158000
     17 C10         1.1170    0.5230    5.4930 c3        1 P74      0.001000
     18 C11         2.5200    1.4520    7.1990 c3        1 P74     -0.056500
     19 C12         3.2480    2.7770    7.4650 c3        1 P74     -0.213000
     20 C13         0.1950    1.9230    7.2100 c3        1 P74     -0.056500
     21 C14        -0.2210    3.4000    7.1260 c3        1 P74     -0.213000
     22 C15        -0.0190    0.8260    4.5800 c3        1 P74     -0.158000
     23 C16        -0.2170   -0.2540    3.5210 c3        1 P74     -0.069500
     24 I2          5.5250   -1.5560   -0.7560 i         1 P74      0.149000
     25 C07        -3.1740   -0.9310   -6.3910 c2        1 P74      0.387000
     26 O01        -2.7090   -0.9390   -7.7300 os        1 P74     -0.282000
     27 C08        -3.5970   -0.3160   -8.6540 c3        1 P74      0.114000
     28 C09        -4.9060   -1.1130   -8.7220 c3        1 P74     -0.232333
     29 C17        -3.8940    1.1200   -8.1910 c3        1 P74     -0.232333
     30 C          -2.9470   -0.2820  -10.0430 c3        1 P74     -0.232333
     31 O          -4.3710   -0.8980   -6.1630 o         1 P74     -0.398000
     32 H02         3.1860   -1.4930   -2.7850 ha        1 P74      0.154000
     33 H3         -0.3440   -1.2620   -0.6870 ha        1 P74      0.165000
     34 H061       -0.5070   -0.5390   -6.1450 h4        1 P74      0.125000
     35 H062       -0.7410   -2.1240   -6.0450 h4        1 P74      0.125000
     36 H          -2.5360   -0.9870   -4.4410 hn        1 P74      0.230000
     37 H21C       -0.1630   -1.8760    1.8460 h4        1 P74      0.093000
     38 H22C        1.2660   -2.4840    2.2540 h4        1 P74      0.093000
     39 H031        2.9790   -0.9470    3.1570 h1        1 P74      0.072250
     40 H032        1.9900   -1.7250    4.1410 h1        1 P74      0.072250
     41 H161       -0.8950    0.0530    2.8770 h1        1 P74      0.072250
     42 H162       -0.5420   -1.0740    3.9600 h1        1 P74      0.072250
     43 H1          3.9270   -2.8440    1.0330 ho        1 P74      0.232000
     44 H10         0.8770   -0.2490    6.0550 h1        1 P74      0.056000
     45 H111        3.1250    0.8320    6.7410 h1        1 P74      0.066750
     46 H112        2.2330    1.0590    8.0540 h1        1 P74      0.066750
     47 H131       -0.5450    1.3570    6.9040 h1        1 P74      0.066750
     48 H132        0.4180    1.6970    8.1420 h1        1 P74      0.066750
     49 H81C        3.0480   -0.0980    5.3900 hc        1 P74      0.094500
     50 H82C        2.6920    1.0300    4.3120 hc        1 P74      0.094500
     51 H151       -0.8420    0.9050    5.1120 hc        1 P74      0.094500
     52 H152        0.1530    1.6840    4.1310 hc        1 P74      0.094500
     53 H121        4.2060    2.6690    7.2670 hc        1 P74      0.077000
     54 H122        2.8730    3.4780    6.8900 hc        1 P74      0.077000
     55 H123        3.1350    3.0300    8.4090 hc        1 P74      0.077000
     56 H141        0.5500    3.9420    6.8530 hc        1 P74      0.077000
     57 H142       -0.9430    3.5000    6.4660 hc        1 P74      0.077000
     58 H143       -0.5380    3.7010    8.0070 hc        1 P74      0.077000
     59 H091       -5.2690   -1.0710   -9.6340 hc        1 P74      0.091778
     60 H092       -5.5570   -0.7290   -8.0920 hc        1 P74      0.091778
     61 H093       -4.7320   -2.0510   -8.4810 hc        1 P74      0.091778
     62 H171       -4.5630    1.1010   -7.4720 hc        1 P74      0.091778
     63 H172       -4.2420    1.6440   -8.9490 hc        1 P74      0.091778
     64 H173       -3.0680    1.5350   -7.8590 hc        1 P74      0.091778
     65 HC1        -2.7900   -1.2020  -10.3540 hc        1 P74      0.091778
     66 HC2        -3.5440    0.1800  -10.6730 hc        1 P74      0.091778
     67 HC3        -2.0910    0.1970   -9.9930 hc        1 P74      0.091778
@<TRIPOS>BOND
     1    1    9 1   
     2    1   13 1   
     3    2    3 1   
     4    4    5 1   
     5    4   34 1   
     6    4   35 1   
     7    5   25 1   
     8    5   36 1   
     9    6   13 1   
    10    6   15 1   
    11    7   10 1   
    12    7   12 1   
    13    7   23 1   
    14    8   15 1   
    15    8   43 1   
    16    9   32 1   
    17   10   37 1   
    18   10   38 1   
    19   11   17 1   
    20   11   18 1   
    21   11   20 1   
    22   12   16 1   
    23   12   39 1   
    24   12   40 1   
    25   13   33 1   
    26   14   15 1   
    27   14   24 1   
    28   16   17 1   
    29   16   49 1   
    30   16   50 1   
    31   17   22 1   
    32   17   44 1   
    33   18   19 1   
    34   18   45 1   
    35   18   46 1   
    36   19   53 1   
    37   19   54 1   
    38   19   55 1   
    39   20   21 1   
    40   20   47 1   
    41   20   48 1   
    42   21   56 1   
    43   21   57 1   
    44   21   58 1   
    45   22   23 1   
    46   22   51 1   
    47   22   52 1   
    48   23   41 1   
    49   23   42 1   
    50   25   26 1   
    51   25   31 1   
    52   26   27 1   
    53   27   28 1   
    54   27   29 1   
    55   27   30 1   
    56   28   59 1   
    57   28   60 1   
    58   28   61 1   
    59   29   62 1   
    60   29   63 1   
    61   29   64 1   
    62   30   65 1   
    63   30   66 1   
    64   30   67 1   
@<TRIPOS>SUBSTRUCTURE
     1 P74         1 TEMP              0 ****  ****    0 ROOT
