@<TRIPOS>MOLECULE
P74
   69    70     1     0     0
SMALL
bcc


@<TRIPOS>ATOM
      1 C01        -1.0960    0.0320   -0.0560 ca        1 P74     -0.087000
      2 C04        -1.7590   -0.0110   -1.2930 cg        1 P74      0.075000
      3 C05        -2.3060   -0.0700   -2.3610 c1        1 P74     -0.291100
      4 C06        -2.9530   -0.0370   -3.6330 c3        1 P74      0.243900
      5 N          -3.0190   -1.4110   -4.2560 n4        1 P74     -0.657800
      6 C1         -1.1500    0.3180    2.3560 ca        1 P74     -0.122300
      7 N1         -1.6870    1.8910    4.1790 n3        1 P74     -0.748600
      8 O1          0.8010    0.0430    3.6460 oh        1 P74     -0.487100
      9 C02         0.2860   -0.2090    0.0010 ca        1 P74     -0.004000
     10 C2         -1.9130    0.5580    3.6290 c3        1 P74      0.234100
     11 N2         -1.7200    5.4980    6.6160 n4        1 P74     -0.689400
     12 C03        -0.9870    1.8790    5.4530 c3        1 P74      0.175300
     13 C3         -1.8030    0.3090    1.1300 ca        1 P74     -0.027000
     14 C4          0.9610   -0.2060    1.2190 ca        1 P74     -0.082100
     15 C7          0.2400    0.0490    2.4000 ca        1 P74      0.222100
     16 C8         -0.6410    3.2850    5.9510 c3        1 P74     -0.098900
     17 C10        -1.9260    4.1110    6.0450 c3        1 P74      0.122500
     18 C11        -0.5380    6.1940    6.0100 c3        1 P74      0.108800
     19 C12        -0.5970    7.7030    6.1290 c3        1 P74     -0.134600
     20 C13        -1.6140    5.4590    8.1140 c3        1 P74      0.108800
     21 C14        -2.9520    5.3420    8.8130 c3        1 P74     -0.134600
     22 C15        -2.5980    4.1530    4.6670 c3        1 P74     -0.098900
     23 C16        -2.8790    2.7220    4.1990 c3        1 P74      0.175300
     24 I2          2.9480   -0.5750    1.1990 i         1 P74     -0.080900
     25 C07        -3.5430   -1.3430   -5.6690 c         1 P74      0.632100
     26 O01        -4.4510   -2.3000   -5.8520 os        1 P74     -0.424900
     27 C08        -5.0790   -2.4720   -7.2060 c3        1 P74      0.204800
     28 C09        -3.9960   -2.7990   -8.2100 c3        1 P74     -0.131433
     29 C17        -6.0000   -3.6540   -6.9480 c3        1 P74     -0.131433
     30 C          -5.8450   -1.2150   -7.5530 c3        1 P74     -0.131433
     31 O          -3.1300   -0.5000   -6.4510 o         1 P74     -0.430000
     32 H02         0.8380   -0.4070   -0.9340 ha        1 P74      0.160000
     33 H3         -2.8850    0.5130    1.0840 ha        1 P74      0.147000
     34 H061       -2.3900    0.6320   -4.3570 hx        1 P74      0.128200
     35 H062       -4.0160    0.3400   -3.5380 hx        1 P74      0.128200
     36 H          -2.0760   -1.8170   -4.2860 hn        1 P74      0.470300
     37 H21C       -3.0120    0.3940    3.4250 h1        1 P74      0.062200
     38 H22C       -1.5900   -0.2340    4.3690 h1        1 P74      0.062200
     39 H031       -0.0210    1.3120    5.3070 h1        1 P74      0.057700
     40 H032       -1.5820    1.3520    6.2560 h1        1 P74      0.057700
     41 H161       -3.6890    2.2860    4.8570 h1        1 P74      0.057700
     42 H162       -3.2810    2.7750    3.1470 h1        1 P74      0.057700
     43 H1          1.7390   -0.2120    3.5740 ho        1 P74      0.450000
     44 H10        -2.6320    3.5910    6.7650 hx        1 P74      0.100700
     45 H111       -0.5000    5.9110    4.9170 hx        1 P74      0.102950
     46 H112        0.3900    5.7970    6.5120 hx        1 P74      0.102950
     47 H131       -1.1070    6.4130    8.4440 hx        1 P74      0.102950
     48 H132       -0.9490    4.5930    8.3920 hx        1 P74      0.102950
     49 H81C       -0.1480    3.1900    6.9530 hc        1 P74      0.071200
     50 H82C        0.0870    3.7630    5.2450 hc        1 P74      0.071200
     51 H151       -1.9390    4.6690    3.9220 hc        1 P74      0.071200
     52 H152       -3.5750    4.7010    4.7150 hc        1 P74      0.071200
     53 H121        0.2990    8.1250    5.6050 hc        1 P74      0.078200
     54 H122       -0.5660    8.0460    7.1920 hc        1 P74      0.078200
     55 H123       -1.5120    8.1220    5.6420 hc        1 P74      0.078200
     56 H141       -3.6310    6.1910    8.5550 hc        1 P74      0.078200
     57 H142       -2.7660    5.3720    9.9180 hc        1 P74      0.078200
     58 H143       -3.4690    4.3800    8.5770 hc        1 P74      0.078200
     59 H091       -3.3930   -3.6740   -7.8700 hc        1 P74      0.074589
     60 H092       -3.3200   -1.9230   -8.3690 hc        1 P74      0.074589
     61 H093       -4.4750   -3.0570   -9.1880 hc        1 P74      0.074589
     62 H171       -5.4140   -4.5490   -6.6290 hc        1 P74      0.074589
     63 H172       -6.7460   -3.4070   -6.1560 hc        1 P74      0.074589
     64 H173       -6.5400   -3.8910   -7.8980 hc        1 P74      0.074589
     65 HC1        -6.4210   -1.3910   -8.4950 hc        1 P74      0.074589
     66 HC2        -5.1490   -0.3560   -7.7200 hc        1 P74      0.074589
     67 HC3        -6.5640   -0.9540   -6.7400 hc        1 P74      0.074589
     68 HN3        -3.6200   -2.0270   -3.6950 hn        1 P74      0.470300
     69 H21        -2.5590    6.0460    6.3780 hn        1 P74      0.442800
@<TRIPOS>BOND
     1    1    2 1   
     2    1    9 ar  
     3    1   13 ar  
     4    2    3 3   
     5    3    4 1   
     6    4    5 1   
     7    4   34 1   
     8    4   35 1   
     9    5   25 1   
    10    5   36 1   
    11    5   68 1   
    12    6   10 1   
    13    6   13 ar  
    14    6   15 ar  
    15    7   10 1   
    16    7   12 1   
    17    7   23 1   
    18    8   15 1   
    19    8   43 1   
    20    9   14 ar  
    21    9   32 1   
    22   10   37 1   
    23   10   38 1   
    24   11   17 1   
    25   11   18 1   
    26   11   20 1   
    27   11   69 1   
    28   12   16 1   
    29   12   39 1   
    30   12   40 1   
    31   13   33 1   
    32   14   15 ar  
    33   14   24 1   
    34   16   17 1   
    35   16   49 1   
    36   16   50 1   
    37   17   22 1   
    38   17   44 1   
    39   18   19 1   
    40   18   45 1   
    41   18   46 1   
    42   19   53 1   
    43   19   54 1   
    44   19   55 1   
    45   20   21 1   
    46   20   47 1   
    47   20   48 1   
    48   21   56 1   
    49   21   57 1   
    50   21   58 1   
    51   22   23 1   
    52   22   51 1   
    53   22   52 1   
    54   23   41 1   
    55   23   42 1   
    56   25   26 1   
    57   25   31 2   
    58   26   27 1   
    59   27   28 1   
    60   27   29 1   
    61   27   30 1   
    62   28   59 1   
    63   28   60 1   
    64   28   61 1   
    65   29   62 1   
    66   29   63 1   
    67   29   64 1   
    68   30   65 1   
    69   30   66 1   
    70   30   67 1   
@<TRIPOS>SUBSTRUCTURE
     1 P74         1 TEMP              0 ****  ****    0 ROOT
