@<TRIPOS>MOLECULE
P74
   67    68     1     0     0
SMALL
bcc


@<TRIPOS>ATOM
      1 C01        -1.7110   -0.2640   -0.5530 ca        1 P74     -0.025000
      2 C04        -2.8350   -0.6150    0.2140 cg        1 P74     -0.086000
      3 C05        -3.7920   -0.9120    0.8720 c1        1 P74     -0.170100
      4 C06        -4.9250   -1.2660    1.6960 c3        1 P74      0.160100
      5 N          -6.1720   -1.4630    0.9940 n         1 P74     -0.509900
      6 C1          0.2970   -0.9190   -1.7570 ca        1 P74     -0.111300
      7 N1          2.3520   -2.2130   -1.3210 n3        1 P74     -0.725600
      8 O1          1.6210    0.6810   -2.8720 oh        1 P74     -0.479100
      9 C02        -1.4700    1.0760   -0.8820 ca        1 P74     -0.032000
     10 C2          1.2430   -1.9830   -2.2380 c3        1 P74      0.226100
     11 N2          5.3120   -4.2610    1.1030 n3        1 P74     -0.737600
     12 C03         3.4900   -2.8330   -1.9830 c3        1 P74      0.169800
     13 C3         -0.8150   -1.2540   -0.9950 ca        1 P74     -0.053000
     14 C4         -0.3620    1.4350   -1.6490 ca        1 P74     -0.073100
     15 C7          0.5230    0.4370   -2.0900 ca        1 P74      0.195100
     16 C8          4.6730   -3.0830   -1.0500 c3        1 P74     -0.078400
     17 C10         4.2400   -3.9360    0.1520 c3        1 P74      0.191500
     18 C11         4.9660   -5.4290    1.9070 c3        1 P74      0.171300
     19 C12         5.9100   -5.6990    3.0680 c3        1 P74     -0.112600
     20 C13         6.6560   -4.3120    0.5640 c3        1 P74      0.171300
     21 C14         7.0140   -5.4730   -0.3520 c3        1 P74     -0.112600
     22 C15         3.1010   -3.1710    0.8540 c3        1 P74     -0.078400
     23 C16         1.9500   -2.9230   -0.1160 c3        1 P74      0.169800
     24 I2         -0.1040    3.3970   -2.0720 i         1 P74     -0.134900
     25 C07        -7.0510   -0.3850    0.8820 c         1 P74      0.731100
     26 O01        -7.9270   -0.5510   -0.1630 os        1 P74     -0.450900
     27 C08        -9.0720    0.3340   -0.2820 c3        1 P74      0.185800
     28 C09        -8.6200    1.7550   -0.5700 c3        1 P74     -0.114100
     29 C17        -9.8170   -0.2420   -1.4850 c3        1 P74     -0.114100
     30 C          -9.9410    0.2640    0.9630 c3        1 P74     -0.114100
     31 O          -7.1240    0.5990    1.6350 o         1 P74     -0.582000
     32 H02        -2.1720    1.8490   -0.5270 ha        1 P74      0.156000
     33 H3         -0.9970   -2.3090   -0.7320 ha        1 P74      0.145000
     34 H061       -4.6950   -2.2420    2.2230 h1        1 P74      0.090200
     35 H062       -5.0740   -0.4630    2.4820 h1        1 P74      0.090200
     36 H          -6.1360   -2.0670    0.2010 hn        1 P74      0.310500
     37 H21C        0.6500   -2.9300   -2.4200 h1        1 P74      0.046200
     38 H22C        1.6690   -1.6510   -3.2300 h1        1 P74      0.046200
     39 H031        3.2030   -3.8130   -2.4680 h1        1 P74      0.029950
     40 H032        3.8280   -2.1340   -2.8010 h1        1 P74      0.029950
     41 H161        1.1730   -2.2920    0.4000 h1        1 P74      0.029950
     42 H162        1.4690   -3.9170   -0.3650 h1        1 P74      0.029950
     43 H1          1.7120    1.6420   -2.9890 ho        1 P74      0.431000
     44 H10         3.7990   -4.8950   -0.2690 h1        1 P74      0.017700
     45 H111        3.9360   -5.2530    2.3300 h1        1 P74      0.038700
     46 H112        4.9090   -6.3630    1.2710 h1        1 P74      0.038700
     47 H131        6.8570   -3.3420    0.0260 h1        1 P74      0.038700
     48 H132        7.3550   -4.3360    1.4510 h1        1 P74      0.038700
     49 H81C        5.4630   -3.6090   -1.6460 hc        1 P74      0.055700
     50 H82C        5.0900   -2.1060   -0.6940 hc        1 P74      0.055700
     51 H151        2.6980   -3.7560    1.7190 hc        1 P74      0.055700
     52 H152        3.4910   -2.1980    1.2490 hc        1 P74      0.055700
     53 H121        6.0920   -4.7760    3.6680 hc        1 P74      0.037533
     54 H122        5.4470   -6.4700    3.7310 hc        1 P74      0.037533
     55 H123        6.8910   -6.0900    2.7060 hc        1 P74      0.037533
     56 H141        7.0000   -6.4390    0.2090 hc        1 P74      0.037533
     57 H142        6.3010   -5.5550   -1.2060 hc        1 P74      0.037533
     58 H143        8.0410   -5.3180   -0.7600 hc        1 P74      0.037533
     59 H091       -7.9060    1.7630   -1.4280 hc        1 P74      0.052144
     60 H092       -9.5060    2.3810   -0.8280 hc        1 P74      0.052144
     61 H093       -8.1130    2.1930    0.3240 hc        1 P74      0.052144
     62 H171      -10.1230   -1.2960   -1.2810 hc        1 P74      0.052144
     63 H172      -10.7250    0.3750   -1.6800 hc        1 P74      0.052144
     64 H173       -9.1600   -0.2280   -2.3870 hc        1 P74      0.052144
     65 HC1        -9.4160    0.7280    1.8330 hc        1 P74      0.052144
     66 HC2       -10.8950    0.8130    0.7790 hc        1 P74      0.052144
     67 HC3       -10.1750   -0.8000    1.2080 hc        1 P74      0.052144
@<TRIPOS>BOND
     1    1    2 1   
     2    1    9 ar  
     3    1   13 ar  
     4    2    3 3   
     5    3    4 1   
     6    4    5 1   
     7    4   34 1   
     8    4   35 1   
     9    5   25 1   
    10    5   36 1   
    11    6   10 1   
    12    6   13 ar  
    13    6   15 ar  
    14    7   10 1   
    15    7   12 1   
    16    7   23 1   
    17    8   15 1   
    18    8   43 1   
    19    9   14 ar  
    20    9   32 1   
    21   10   37 1   
    22   10   38 1   
    23   11   17 1   
    24   11   18 1   
    25   11   20 1   
    26   12   16 1   
    27   12   39 1   
    28   12   40 1   
    29   13   33 1   
    30   14   15 ar  
    31   14   24 1   
    32   16   17 1   
    33   16   49 1   
    34   16   50 1   
    35   17   22 1   
    36   17   44 1   
    37   18   19 1   
    38   18   45 1   
    39   18   46 1   
    40   19   53 1   
    41   19   54 1   
    42   19   55 1   
    43   20   21 1   
    44   20   47 1   
    45   20   48 1   
    46   21   56 1   
    47   21   57 1   
    48   21   58 1   
    49   22   23 1   
    50   22   51 1   
    51   22   52 1   
    52   23   41 1   
    53   23   42 1   
    54   25   26 1   
    55   25   31 2   
    56   26   27 1   
    57   27   28 1   
    58   27   29 1   
    59   27   30 1   
    60   28   59 1   
    61   28   60 1   
    62   28   61 1   
    63   29   62 1   
    64   29   63 1   
    65   29   64 1   
    66   30   65 1   
    67   30   66 1   
    68   30   67 1   
@<TRIPOS>SUBSTRUCTURE
     1 P74         1 TEMP              0 ****  ****    0 ROOT
