@<TRIPOS>MOLECULE
P74
   69    69     1     0     0
SMALL
bcc


@<TRIPOS>ATOM
      1 C01        -9.8660  -48.2400  -66.4300 ca        1 P74     -0.115000
      2 C04       -10.5270  -48.4380  -67.6490 c1        1 P74      0.107000
      3 C05       -11.1180  -48.6150  -68.6800 c1        1 P74     -0.356000
      4 C06       -11.7650  -48.7760  -69.9380 c3        1 P74      0.049000
      5 N         -13.0170  -49.6190  -69.7920 ny        1 P74     -0.089000
      6 C1         -9.7200  -47.1060  -64.2880 ca        1 P74     -0.115000
      7 N1        -10.1340  -44.6660  -63.5170 nx        1 P74     -0.023000
      8 O1         -8.0230  -47.6360  -62.7470 oh        1 P74     -0.230000
      9 C02        -8.7300  -49.0010  -66.1050 ca        1 P74      0.002000
     10 C2        -10.2960  -46.1510  -63.3190 cx        1 P74     -0.013000
     11 N2        -11.8700  -41.8010  -63.0180 n7        1 P74     -0.303000
     12 C03        -9.8260  -43.8330  -62.3460 c3        1 P74     -0.137000
     13 C3        -10.3470  -47.2830  -65.5170 ca        1 P74      0.008000
     14 C4         -8.0820  -48.8300  -64.8850 ca        1 P74     -0.380000
     15 C7         -8.5790  -47.8810  -63.9690 ca        1 P74      0.177000
     16 C8         -9.4860  -42.3880  -62.6780 c3        1 P74     -0.171000
     17 C10       -10.5190  -41.6510  -63.5480 c3        1 P74     -0.015000
     18 C11       -12.8550  -40.9410  -63.6460 c3        1 P74     -0.073000
     19 C12       -14.2880  -41.3550  -63.3540 c3        1 P74     -0.219000
     20 C13        80.7740  433.9360  609.1840 c2        1 P74      0.301000
     21 C14        80.4810  432.9370  608.2270 c3        1 P74     -0.360000
     22 C15       -10.0700  -40.1910  -63.6520 c3        1 P74     -0.215000
     23 C16       -11.4120  -45.2970  -63.7480 cu        1 P74     -0.528000
     24 I2         -6.4550  -49.9690  -64.5100 i         1 P74      0.187000
     25 C07       -13.6250  -49.9190  -71.1300 c2        1 P74      0.350000
     26 O01       -14.8960  -49.5080  -71.1520 os        1 P74     -0.261000
     27 C08       -15.7140  -49.7160  -72.3870 c3        1 P74      0.129000
     28 C09       -17.0430  -49.1110  -71.9620 c3        1 P74     -0.247333
     29 C17       -15.8270  -51.2000  -72.6610 c3        1 P74     -0.247333
     30 C         -15.0830  -48.9550  -73.5320 c3        1 P74     -0.247333
     31 O         -12.9790  -50.4670  -72.0130 o         1 P74     -0.247000
     32 H02        -8.3520  -49.7400  -66.8310 ha        1 P74      0.155000
     33 H3        -11.2330  -46.6540  -65.7400 ha        1 P74      0.196000
     34 H061      -12.0870  -47.7790  -70.3660 hx        1 P74      0.161000
     35 H062      -11.0950  -49.3040  -70.6840 hx        1 P74      0.161000
     36 H         -12.7720  -50.5090  -69.3400 hn        1 P74      0.267000
     37 H21C       -9.6470  -44.3540  -64.3460 hn        1 P74      0.227000
     38 H22C      -10.0860  -46.4500  -62.2610 hx        1 P74      0.123000
     39 H031       -8.9450  -44.2910  -61.8090 hx        1 P74      0.116500
     40 H032      -10.7100  -43.8730  -61.6480 hx        1 P74      0.116500
     41 H161       -8.9970  -40.1570  -63.9610 hc        1 P74      0.084333
     42 H162      -12.3240  -45.0510  -63.2120 hx        1 P74      0.136000
     43 H1         -7.2710  -48.2400  -62.6090 ho        1 P74      0.246000
     44 H10       -10.4560  -42.0860  -64.5970 h1        1 P74      0.046000
     45 H111      -12.6870  -39.9000  -63.2480 h1        1 P74      0.070500
     46 H112      -12.7200  -40.8950  -64.7680 h1        1 P74      0.070500
     47 H131       80.1300  434.8340  609.3030 ha        1 P74      0.190000
     48 H132       81.6530  433.8560  609.8590 ha        1 P74      0.190000
     49 H81C       -9.3730  -41.8460  -61.7020 hc        1 P74      0.103000
     50 H82C       -8.5000  -42.3430  -63.2110 hc        1 P74      0.103000
     51 H151      -10.6740  -39.6470  -64.4160 hc        1 P74      0.084333
     52 H152      -10.1770  -39.6680  -62.6720 hc        1 P74      0.084333
     53 H121      -14.9790  -40.6170  -63.8270 hc        1 P74      0.081000
     54 H122      -14.5090  -42.3670  -63.7710 hc        1 P74      0.081000
     55 H123      -14.4850  -41.3730  -62.2550 hc        1 P74      0.081000
     56 H141       79.7950  432.1650  608.7420 hc        1 P74      0.226333
     57 H142       81.3770  432.3390  607.8880 hc        1 P74      0.226333
     58 H143       79.8850  433.3010  607.3410 hc        1 P74      0.226333
     59 H091      -17.4630  -49.6580  -71.0850 hc        1 P74      0.111556
     60 H092      -17.7560  -49.1930  -72.8190 hc        1 P74      0.111556
     61 H093      -16.9180  -48.0350  -71.6920 hc        1 P74      0.111556
     62 H171      -16.5460  -51.3580  -73.5020 hc        1 P74      0.111556
     63 H172      -16.2090  -51.7390  -71.7600 hc        1 P74      0.111556
     64 H173      -14.8380  -51.6290  -72.9540 hc        1 P74      0.111556
     65 HC1       -14.9180  -47.8870  -73.2510 hc        1 P74      0.111556
     66 HC2       -15.7710  -48.9890  -74.4130 hc        1 P74      0.111556
     67 HC3       -14.1070  -49.4130  -73.8270 hc        1 P74      0.111556
     68 HN3       -13.6990  -49.1290  -69.1990 hn        1 P74      0.267000
     69 H21       -12.1510  -42.7630  -63.0910 hn        1 P74      0.158000
@<TRIPOS>BOND
     1    1    2 1   
     2    1    9 1   
     3    1   13 1   
     4    2    3 1   
     5    3    4 1   
     6    4    5 1   
     7    4   34 1   
     8    4   35 1   
     9    5   25 1   
    10    5   36 1   
    11    5   68 1   
    12    6   10 1   
    13    6   13 1   
    14    6   15 1   
    15    7   10 1   
    16    7   12 1   
    17    7   23 1   
    18    7   37 1   
    19    8   15 1   
    20    8   43 1   
    21    9   14 1   
    22    9   32 1   
    23   10   23 1   
    24   10   38 1   
    25   11   17 1   
    26   11   18 1   
    27   11   69 1   
    28   12   16 1   
    29   12   39 1   
    30   12   40 1   
    31   13   33 1   
    32   14   15 1   
    33   14   24 1   
    34   16   17 1   
    35   16   49 1   
    36   16   50 1   
    37   17   22 1   
    38   17   44 1   
    39   18   19 1   
    40   18   45 1   
    41   18   46 1   
    42   19   53 1   
    43   19   54 1   
    44   19   55 1   
    45   20   21 1   
    46   20   47 1   
    47   20   48 1   
    48   21   56 1   
    49   21   57 1   
    50   21   58 1   
    51   22   41 1   
    52   22   51 1   
    53   22   52 1   
    54   23   42 1   
    55   25   26 1   
    56   25   31 1   
    57   26   27 1   
    58   27   28 1   
    59   27   29 1   
    60   27   30 1   
    61   28   59 1   
    62   28   60 1   
    63   28   61 1   
    64   29   62 1   
    65   29   63 1   
    66   29   64 1   
    67   30   65 1   
    68   30   66 1   
    69   30   67 1   
@<TRIPOS>SUBSTRUCTURE
     1 P74         1 TEMP              0 ****  ****    0 ROOT
