@<TRIPOS>MOLECULE
P74
   69    70     1     0     0
SMALL
bcc


@<TRIPOS>ATOM
      1 C01        -1.9510    1.9300   -0.5450 ca        1 P74     -0.092000
      2 C04        -2.9130    1.4040   -1.4230 cg        1 P74      0.074000
      3 C05        -3.7150    0.9570   -2.1960 c1        1 P74     -0.290100
      4 C06        -4.7390    0.4810   -3.0690 c3        1 P74      0.243900
      5 N          -4.1760   -0.4030   -4.1560 n4        1 P74     -0.658800
      6 C1         -0.8660    1.9560    1.6300 ca        1 P74     -0.198300
      7 N1         -0.7380    2.3560    4.0830 n3        1 P74     -0.760600
      8 O1          1.0400    3.4610    1.9080 oh        1 P74     -0.465100
      9 C02        -1.0790    2.9400   -0.9910 ca        1 P74     -0.010000
     10 C2         -0.7520    1.3690    3.0080 c3        1 P74      0.217100
     11 N2         -1.4460    4.6920    7.6750 n4        1 P74     -0.690400
     12 C03        -0.3640    1.7750    5.3660 c3        1 P74      0.169300
     13 C3         -1.8440    1.4560    0.7720 ca        1 P74     -0.022000
     14 C4         -0.0930    3.4510   -0.1580 ca        1 P74     -0.030100
     15 C7          0.0290    2.9420    1.1560 ca        1 P74      0.230100
     16 C8         -0.1950    2.8380    6.4550 c3        1 P74     -0.099400
     17 C10        -1.4890    3.6460    6.5820 c3        1 P74      0.124500
     18 C11        -0.1800    5.4990    7.6480 c3        1 P74      0.108300
     19 C12        -0.3100    6.8500    8.3200 c3        1 P74     -0.134600
     20 C13        -1.6640    4.0770    9.0290 c3        1 P74      0.108300
     21 C14        -3.1180    3.7780    9.3310 c3        1 P74     -0.134600
     22 C15        -1.8480    4.2600    5.2230 c3        1 P74     -0.099400
     23 C16        -1.9530    3.1490    4.1740 c3        1 P74      0.169300
     24 I2          1.1140    4.8930   -0.9010 i         1 P74     -0.061900
     25 C07        -5.2810   -1.0340   -4.9660 c         1 P74      0.633100
     26 O01        -5.0590   -0.8250   -6.2620 os        1 P74     -0.422900
     27 C08        -6.0100   -1.3970   -7.2760 c3        1 P74      0.204800
     28 C09        -7.3760   -0.7860   -7.0620 c3        1 P74     -0.131433
     29 C17        -5.3650   -0.9280   -8.5700 c3        1 P74     -0.131433
     30 C          -6.0110   -2.9030   -7.1500 c3        1 P74     -0.131433
     31 O          -6.1960   -1.6290   -4.4150 o         1 P74     -0.433000
     32 H02        -1.1820    3.3230   -2.0220 ha        1 P74      0.162000
     33 H3         -2.5380    0.6770    1.1260 ha        1 P74      0.148000
     34 H061       -5.2680    1.3420   -3.5800 hx        1 P74      0.127700
     35 H062       -5.5050   -0.1350   -2.5000 hx        1 P74      0.127700
     36 H          -3.5650    0.1450   -4.7750 hn        1 P74      0.470800
     37 H21C       -1.5850    0.6180    3.1570 h1        1 P74      0.059200
     38 H22C        0.2250    0.8010    3.0640 h1        1 P74      0.059200
     39 H031        0.6250    1.2470    5.2400 h1        1 P74      0.059450
     40 H032       -1.1190    1.0120    5.7170 h1        1 P74      0.059450
     41 H161       -2.8540    2.5100    4.4150 h1        1 P74      0.059450
     42 H162       -2.1280    3.6280    3.1690 h1        1 P74      0.059450
     43 H1          1.1190    2.9700    2.7410 ho        1 P74      0.449000
     44 H10        -2.3230    2.9350    6.8770 hx        1 P74      0.099700
     45 H111        0.1040    5.6510    6.5660 hx        1 P74      0.103450
     46 H112        0.6260    4.8880    8.1460 hx        1 P74      0.103450
     47 H131       -1.2680    4.8020    9.8000 hx        1 P74      0.103450
     48 H132       -1.0490    3.1350    9.0840 hx        1 P74      0.103450
     49 H81C        0.0480    2.3160    7.4170 hc        1 P74      0.074200
     50 H82C        0.6660    3.5070    6.1910 hc        1 P74      0.074200
     51 H151       -1.0710    5.0030    4.9040 hc        1 P74      0.074200
     52 H152       -2.8370    4.7850    5.2720 hc        1 P74      0.074200
     53 H121        0.6670    7.3870    8.2030 hc        1 P74      0.079033
     54 H122       -0.5230    6.7610    9.4130 hc        1 P74      0.079033
     55 H123       -1.1070    7.4740    7.8470 hc        1 P74      0.079033
     56 H141       -3.5430    3.0100    8.6410 hc        1 P74      0.079033
     57 H142       -3.7500    4.6980    9.2830 hc        1 P74      0.079033
     58 H143       -3.1750    3.3740   10.3760 hc        1 P74      0.079033
     59 H091       -7.3160    0.3290   -7.0660 hc        1 P74      0.074589
     60 H092       -7.8220   -1.1290   -6.0970 hc        1 P74      0.074589
     61 H093       -8.0500   -1.1070   -7.8960 hc        1 P74      0.074589
     62 H171       -5.3160    0.1870   -8.6060 hc        1 P74      0.074589
     63 H172       -4.3330   -1.3400   -8.6690 hc        1 P74      0.074589
     64 H173       -5.9880   -1.2930   -9.4240 hc        1 P74      0.074589
     65 HC1        -6.6140   -3.3360   -7.9870 hc        1 P74      0.074589
     66 HC2        -6.4700   -3.2240   -6.1830 hc        1 P74      0.074589
     67 HC3        -4.9720   -3.3070   -7.2170 hc        1 P74      0.074589
     68 HN3        -3.6200   -1.1550   -3.7320 hn        1 P74      0.470800
     69 H21        -2.2290    5.3390    7.4980 hn        1 P74      0.444800
@<TRIPOS>BOND
     1    1    2 1   
     2    1    9 ar  
     3    1   13 ar  
     4    2    3 3   
     5    3    4 1   
     6    4    5 1   
     7    4   34 1   
     8    4   35 1   
     9    5   25 1   
    10    5   36 1   
    11    5   68 1   
    12    6   10 1   
    13    6   13 ar  
    14    6   15 ar  
    15    7   10 1   
    16    7   12 1   
    17    7   23 1   
    18    8   15 1   
    19    8   43 1   
    20    9   14 ar  
    21    9   32 1   
    22   10   37 1   
    23   10   38 1   
    24   11   17 1   
    25   11   18 1   
    26   11   20 1   
    27   11   69 1   
    28   12   16 1   
    29   12   39 1   
    30   12   40 1   
    31   13   33 1   
    32   14   15 ar  
    33   14   24 1   
    34   16   17 1   
    35   16   49 1   
    36   16   50 1   
    37   17   22 1   
    38   17   44 1   
    39   18   19 1   
    40   18   45 1   
    41   18   46 1   
    42   19   53 1   
    43   19   54 1   
    44   19   55 1   
    45   20   21 1   
    46   20   47 1   
    47   20   48 1   
    48   21   56 1   
    49   21   57 1   
    50   21   58 1   
    51   22   23 1   
    52   22   51 1   
    53   22   52 1   
    54   23   41 1   
    55   23   42 1   
    56   25   26 1   
    57   25   31 2   
    58   26   27 1   
    59   27   28 1   
    60   27   29 1   
    61   27   30 1   
    62   28   59 1   
    63   28   60 1   
    64   28   61 1   
    65   29   62 1   
    66   29   63 1   
    67   29   64 1   
    68   30   65 1   
    69   30   66 1   
    70   30   67 1   
@<TRIPOS>SUBSTRUCTURE
     1 P74         1 TEMP              0 ****  ****    0 ROOT
