@<TRIPOS>MOLECULE
P76
   60    59     1     0     0
SMALL
bcc


@<TRIPOS>ATOM
      1 N1        198.7490   15.0930   72.9820 n3        1 P76     -0.396000
      2 C2        199.2840   16.2870   72.3850 c3        1 P76     -0.068000
      3 C3        200.7380   16.5260   72.8080 c2        1 P76      0.245000
      4 O4        201.5720   17.2280   72.2740 o         1 P76     -0.143000
      5 N5        201.2320   15.8370   74.1000 n4        1 P76      0.013000
      6 O6        201.5120   14.5280   73.9180 oh        1 P76     -0.205000
      7 C7        195.4270   17.4860   68.9520 c1        1 P76      0.280000
      8 O8        196.1870   17.3800   69.8440 o         1 P76     -0.278000
      9 N9       -124.4970   -5.5140  -47.5910 n2        1 P76      0.002000
     10 C10      -124.9680   -4.5160  -47.2460 c1        1 P76      0.179000
     11 C11      -125.0870   -9.5130  -45.5760 c3        1 P76     -0.211000
     12 C12      -124.6220   -8.1170  -45.9570 c3        1 P76     -0.067000
     13 C13      -124.6080   -7.9940  -47.4760 c3        1 P76     -0.179000
     14 C14      -123.9010   -6.7450  -47.9920 c3        1 P76     -0.015000
     15 C15      -123.2900   -7.8180  -45.3470 ca        1 P76     -0.124000
     16 C16      -123.1980   -6.9050  -44.2890 ca        1 P76     -0.138500
     17 C17      -121.9710   -6.6300  -43.6940 ca        1 P76     -0.108000
     18 C18      -120.8040   -7.2680  -44.1480 ca        1 P76      0.075000
     19 C19      -120.8990   -8.1980  -45.2000 ca        1 P76     -0.108000
     20 C20      -122.1300   -8.4680  -45.7870 ca        1 P76     -0.138500
     21 C21      -119.5630   -6.9890  -43.5560 c1        1 P76     -0.173000
     22 C22      -118.5020   -6.7570  -43.0450 c1        1 P76     -0.030000
     23 C23      -117.2590   -6.4850  -42.4470 ca        1 P76     -0.007000
     24 C24      -116.0910   -7.0980  -42.9330 ca        1 P76     -0.095500
     25 C25      -114.8630   -6.8270  -42.3360 ca        1 P76     -0.132000
     26 C26      -114.7860   -5.9480  -41.2550 ca        1 P76     -0.102000
     27 C27      -115.9420   -5.3380  -40.7680 ca        1 P76     -0.132000
     28 C28      -117.1760   -5.6010  -41.3570 ca        1 P76     -0.095500
     29 C29       198.5070   17.6160   72.7180 c3        1 P76      0.035000
     30 C30       198.7670   18.6550   71.6490 c3        1 P76     -0.271000
     31 O31       197.1400   17.3170   72.8740 oh        1 P76     -0.312000
     32 HN1       197.9690   15.2960   73.5820 hn        1 P76      0.206000
     33 H2        199.3430   16.1900   71.2540 h1        1 P76      0.163000
     34 HN5       202.1390   16.2640   74.3920 hn        1 P76      0.270500
     35 HO6       200.6740   14.0400   73.7330 ho        1 P76      0.285000
     36 H10      -124.3540  -10.2800  -45.9230 hc        1 P76      0.095000
     37 H10A     -125.4030   -3.5720  -46.9330 ha        1 P76      0.350000
     38 H11      -125.1800   -9.5920  -44.4660 hc        1 P76      0.095000
     39 H11A     -126.0820   -9.7290  -46.0350 hc        1 P76      0.095000
     40 H12      -125.3780   -7.3830  -45.5530 hc        1 P76      0.082000
     41 H13      -122.8340   -6.7250  -47.5980 h1        1 P76      0.171000
     42 H13A     -124.0400   -8.8600  -47.9190 hc        1 P76      0.130500
     43 H14      -123.8920   -6.7400  -49.1250 h1        1 P76      0.171000
     44 H14A     -125.6590   -8.0480  -47.8650 hc        1 P76      0.130500
     45 H16      -124.1070   -6.4200  -43.9000 ha        1 P76      0.132000
     46 H17      -121.9110   -5.9200  -42.8550 ha        1 P76      0.154500
     47 H19      -119.9940   -8.7210  -45.5470 ha        1 P76      0.154500
     48 H20      -122.1950   -9.2210  -46.5890 ha        1 P76      0.132000
     49 H24      -116.1510   -7.7930  -43.7840 ha        1 P76      0.138500
     50 H25      -113.9510   -7.3100  -42.7180 ha        1 P76      0.143000
     51 H26      -113.8130   -5.7380  -40.7850 ha        1 P76      0.144000
     52 H27      -115.8810   -4.6470  -39.9130 ha        1 P76      0.143000
     53 H28      -118.0870   -5.1220  -40.9700 ha        1 P76      0.138500
     54 H29       198.8310   17.9820   73.7340 h1        1 P76      0.113000
     55 H30       199.8630   18.8120   71.5060 hc        1 P76      0.114333
     56 H30A      198.3140   18.3420   70.6750 hc        1 P76      0.114333
     57 H30B      198.3020   19.6250   71.9560 hc        1 P76      0.114333
     58 HO31      196.7010   17.4000   72.0130 ho        1 P76      0.242000
     59 H121      198.4810   14.4220   72.2890 hn        1 P76      0.206000
     60 H52       200.5380   15.9660   74.8550 hn        1 P76      0.270500
@<TRIPOS>BOND
     1    1    2 1   
     2    1   32 1   
     3    1   59 1   
     4    2    3 1   
     5    2   29 1   
     6    2   33 1   
     7    3    4 1   
     8    3    5 1   
     9    5    6 1   
    10    5   34 1   
    11    5   60 1   
    12    6   35 1   
    13    7    8 1   
    14    9   10 1   
    15    9   14 1   
    16   10   37 1   
    17   11   12 1   
    18   11   36 1   
    19   11   38 1   
    20   11   39 1   
    21   12   13 1   
    22   12   15 1   
    23   12   40 1   
    24   13   14 1   
    25   13   42 1   
    26   13   44 1   
    27   14   41 1   
    28   14   43 1   
    29   15   16 1   
    30   15   20 1   
    31   16   17 1   
    32   16   45 1   
    33   17   18 1   
    34   17   46 1   
    35   18   19 1   
    36   18   21 1   
    37   19   20 1   
    38   19   47 1   
    39   20   48 1   
    40   21   22 1   
    41   22   23 1   
    42   23   24 1   
    43   23   28 1   
    44   24   25 1   
    45   24   49 1   
    46   25   26 1   
    47   25   50 1   
    48   26   27 1   
    49   26   51 1   
    50   27   28 1   
    51   27   52 1   
    52   28   53 1   
    53   29   30 1   
    54   29   31 1   
    55   29   54 1   
    56   30   55 1   
    57   30   56 1   
    58   30   57 1   
    59   31   58 1   
@<TRIPOS>SUBSTRUCTURE
     1 P76         1 TEMP              0 ****  ****    0 ROOT
