@<TRIPOS>MOLECULE
P76
   60    62     1     0     0
SMALL
bcc


@<TRIPOS>ATOM
      1 N1          0.0170    0.6380    0.3520 ny        1 P76     -0.670800
      2 C2          1.3550    0.6930   -0.3170 c3        1 P76      0.044500
      3 C3          2.1510   -0.5760   -0.0240 c         1 P76      0.514100
      4 O4          2.4890   -0.9680    1.0790 o         1 P76     -0.356100
      5 N5          2.5650   -1.4250   -1.2100 ny        1 P76     -0.439300
      6 O6          3.0620   -2.6330   -0.8610 oh        1 P76     -0.324300
      7 C7         -0.9090   -0.4260   -0.3060 c         1 P76      0.644100
      8 O8         -0.2620   -1.1630   -1.0770 o         1 P76     -0.622100
      9 N9         -2.1940   -0.5360    0.0950 n         1 P76     -0.342800
     10 C10        -2.9040    0.4210    0.9420 c3        1 P76      0.057500
     11 C11        -3.9200    1.2630    0.1720 c3        1 P76     -0.105900
     12 C12        -4.8880    0.3730   -0.6000 c3        1 P76     -0.008400
     13 C13        -4.1260   -0.5990   -1.4920 c3        1 P76     -0.105900
     14 C14        -3.0930   -1.3960   -0.7040 c3        1 P76      0.057500
     15 C15        -5.8420    1.1990   -1.4000 ca        1 P76     -0.128300
     16 C16        -7.2130    1.1310   -1.1270 ca        1 P76     -0.119000
     17 C17        -8.1180    1.8930   -1.8610 ca        1 P76     -0.108000
     18 C18        -7.6650    2.7400   -2.8870 ca        1 P76      0.088000
     19 C19        -6.2860    2.8070   -3.1600 ca        1 P76     -0.108000
     20 C20        -5.3890    2.0430   -2.4210 ca        1 P76     -0.119000
     21 C21        -8.5740    3.5080   -3.6290 cg        1 P76     -0.179000
     22 C22        -9.3570    4.1620   -4.2620 ch        1 P76     -0.014000
     23 C23       -10.2780    4.9260   -5.0000 ca        1 P76     -0.017000
     24 C24        -9.8340    5.7550   -6.0450 ca        1 P76     -0.094000
     25 C25       -10.7510    6.5090   -6.7730 ca        1 P76     -0.132000
     26 C26       -12.1110    6.4450   -6.4700 ca        1 P76     -0.099000
     27 C27       -12.5570    5.6250   -5.4330 ca        1 P76     -0.132000
     28 C28       -11.6490    4.8660   -4.6980 ca        1 P76     -0.094000
     29 C29         2.1980    1.9250    0.2060 c3        1 P76      0.153100
     30 C30         3.4130    2.1170   -0.6710 c3        1 P76     -0.161100
     31 O31         1.3100    3.0190    0.2080 oh        1 P76     -0.609800
     32 HN1         0.1330    0.4370    1.3530 hn        1 P76      0.488300
     33 H2          1.1670    0.8280   -1.4250 hx        1 P76      0.147700
     34 HN5         1.7090   -1.6470   -1.7850 hn        1 P76      0.512300
     35 HO6         3.6860   -2.5360   -0.0980 ho        1 P76      0.492000
     36 H10        -3.4540   -0.2100    1.7070 h1        1 P76      0.092450
     37 H10A       -2.1980    1.0890    1.5030 h1        1 P76      0.092450
     38 H11        -3.4030    1.9680   -0.5280 hc        1 P76      0.084700
     39 H11A       -4.4910    1.8810    0.9170 hc        1 P76      0.084700
     40 H12        -5.4740   -0.2330    0.1520 hc        1 P76      0.071700
     41 H13        -4.8450   -1.3340   -1.9470 hc        1 P76      0.084700
     42 H13A       -3.6370   -0.0460   -2.3370 hc        1 P76      0.084700
     43 H14        -2.4830   -2.0390   -1.3990 h1        1 P76      0.092450
     44 H14A       -3.6060   -2.0610    0.0510 h1        1 P76      0.092450
     45 H16        -7.5880    0.4720   -0.3290 ha        1 P76      0.122500
     46 H17        -9.1960    1.8320   -1.6410 ha        1 P76      0.155000
     47 H19        -5.9230    3.4660   -3.9630 ha        1 P76      0.155000
     48 H20        -4.3150    2.1050   -2.6500 ha        1 P76      0.122500
     49 H24        -8.7620    5.8060   -6.2870 ha        1 P76      0.138000
     50 H25       -10.4000    7.1560   -7.5910 ha        1 P76      0.144500
     51 H26       -12.8330    7.0430   -7.0480 ha        1 P76      0.146000
     52 H27       -13.6310    5.5750   -5.1940 ha        1 P76      0.144500
     53 H28       -12.0030    4.2190   -3.8820 ha        1 P76      0.138000
     54 H29         2.4870    1.7280    1.2800 h1        1 P76      0.111700
     55 H30         4.0490    1.2000   -0.6760 hc        1 P76      0.084367
     56 H30A        3.1250    2.3780   -1.7200 hc        1 P76      0.084367
     57 H30B        4.0320    2.9600   -0.2630 hc        1 P76      0.084367
     58 HO31        1.6830    3.7500   -0.3110 ho        1 P76      0.476000
     59 H121       -0.4010    1.5830    0.2620 hn        1 P76      0.488300
     60 H52         3.2530   -0.9150   -1.8000 hn        1 P76      0.512300
@<TRIPOS>BOND
     1    1    2 1   
     2    1    7 1   
     3    1   32 1   
     4    1   59 1   
     5    2    3 1   
     6    2   29 1   
     7    2   33 1   
     8    3    4 2   
     9    3    5 1   
    10    5    6 1   
    11    5   34 1   
    12    5   60 1   
    13    6   35 1   
    14    7    8 2   
    15    7    9 1   
    16    9   10 1   
    17    9   14 1   
    18   10   11 1   
    19   10   36 1   
    20   10   37 1   
    21   11   12 1   
    22   11   38 1   
    23   11   39 1   
    24   12   13 1   
    25   12   15 1   
    26   12   40 1   
    27   13   14 1   
    28   13   41 1   
    29   13   42 1   
    30   14   43 1   
    31   14   44 1   
    32   15   16 ar  
    33   15   20 ar  
    34   16   17 ar  
    35   16   45 1   
    36   17   18 ar  
    37   17   46 1   
    38   18   19 ar  
    39   18   21 1   
    40   19   20 ar  
    41   19   47 1   
    42   20   48 1   
    43   21   22 3   
    44   22   23 1   
    45   23   24 ar  
    46   23   28 ar  
    47   24   25 ar  
    48   24   49 1   
    49   25   26 ar  
    50   25   50 1   
    51   26   27 ar  
    52   26   51 1   
    53   27   28 ar  
    54   27   52 1   
    55   28   53 1   
    56   29   30 1   
    57   29   31 1   
    58   29   54 1   
    59   30   55 1   
    60   30   56 1   
    61   30   57 1   
    62   31   58 1   
@<TRIPOS>SUBSTRUCTURE
     1 P76         1 TEMP              0 ****  ****    0 ROOT
