@<TRIPOS>MOLECULE
P76
   58    60     1     0     0
SMALL
bcc


@<TRIPOS>ATOM
      1 N1          4.3650    0.3800   -0.2590 n         1 P76     -0.537900
      2 C2          5.1530   -0.7800    0.0810 c3        1 P76     -0.003300
      3 C3          5.9730   -1.2180   -1.1480 c         1 P76      0.592100
      4 O4          5.4570   -1.3560   -2.2680 o         1 P76     -0.559100
      5 N5          7.3820   -1.3360   -0.9670 n         1 P76     -0.342400
      6 O6          8.0040   -2.0820   -1.8830 oh        1 P76     -0.436100
      7 C7          3.8900    1.1910    0.7900 c         1 P76      0.752100
      8 O8          4.2700    0.9540    1.9660 o         1 P76     -0.655100
      9 N9          3.1200    2.3530    0.5170 n         1 P76     -0.405800
     10 C10         2.5080    2.5550   -0.7820 c3        1 P76      0.060500
     11 C11         1.1190    1.9320   -0.9250 c3        1 P76     -0.108400
     12 C12         0.2010    2.4350    0.1860 c3        1 P76     -0.020400
     13 C13         0.8410    2.2190    1.5530 c3        1 P76     -0.108400
     14 C14         2.2560    2.7970    1.6050 c3        1 P76      0.060500
     15 C15        -1.1410    1.7810    0.1090 ca        1 P76     -0.071300
     16 C16        -2.2830    2.5570   -0.1220 ca        1 P76     -0.129000
     17 C17        -3.5400    1.9640   -0.1980 ca        1 P76     -0.105000
     18 C18        -3.6770    0.5750   -0.0420 ca        1 P76      0.025000
     19 C19        -2.5310   -0.2040    0.1910 ca        1 P76     -0.105000
     20 C20        -1.2790    0.3960    0.2650 ca        1 P76     -0.129000
     21 C21        -4.9440   -0.0280   -0.1170 cg        1 P76     -0.104000
     22 C22        -6.0260   -0.5430   -0.1820 ch        1 P76     -0.100000
     23 C23        -7.2940   -1.1470   -0.2570 ca        1 P76      0.023000
     24 C24        -7.4270   -2.5370   -0.0960 ca        1 P76     -0.106000
     25 C25        -8.6850   -3.1300   -0.1720 ca        1 P76     -0.133000
     26 C26        -9.8170   -2.3500   -0.4070 ca        1 P76     -0.121000
     27 C27        -9.6910   -0.9710   -0.5670 ca        1 P76     -0.133000
     28 C28        -8.4380   -0.3670   -0.4930 ca        1 P76     -0.106000
     29 C29         4.3320   -2.0260    0.5340 c3        1 P76      0.118100
     30 C30         5.2560   -3.0560    1.1570 c3        1 P76     -0.138100
     31 O31         3.3030   -1.6600    1.4290 oh        1 P76     -0.597800
     32 HN1         3.8140    0.2890   -1.0840 hn        1 P76      0.317500
     33 H2          5.8310   -0.4810    0.9380 h1        1 P76      0.103700
     34 HN5         7.6320   -1.6950   -0.0520 hn        1 P76      0.302500
     35 HO6         8.0500   -1.5300   -2.6890 ho        1 P76      0.438000
     36 H10         2.4120    3.6750   -0.9070 h1        1 P76      0.068950
     37 H10A        3.1780    2.1980   -1.6110 h1        1 P76      0.068950
     38 H11         0.6960    2.2140   -1.9230 hc        1 P76      0.058200
     39 H11A        1.1880    0.8140   -0.8870 hc        1 P76      0.058200
     40 H12         0.0720    3.5480    0.0420 hc        1 P76      0.053700
     41 H13         0.2230    2.7200    2.3410 hc        1 P76      0.058200
     42 H13A        0.8690    1.1230    1.7900 hc        1 P76      0.058200
     43 H14         2.7320    2.5320    2.5910 h1        1 P76      0.068950
     44 H14A        2.2020    3.9200    1.5270 h1        1 P76      0.068950
     45 H16        -2.1910    3.6460   -0.2460 ha        1 P76      0.136500
     46 H17        -4.4310    2.5830   -0.3800 ha        1 P76      0.140500
     47 H19        -2.6280   -1.2940    0.3160 ha        1 P76      0.140500
     48 H20        -0.3890   -0.2260    0.4490 ha        1 P76      0.136500
     49 H24        -6.5350   -3.1530    0.0890 ha        1 P76      0.139000
     50 H25        -8.7840   -4.2190   -0.0450 ha        1 P76      0.134000
     51 H26       -10.8090   -2.8230   -0.4650 ha        1 P76      0.133000
     52 H27       -10.5840   -0.3550   -0.7520 ha        1 P76      0.134000
     53 H28        -8.3400    0.7210   -0.6200 ha        1 P76      0.139000
     54 H29         3.7870   -2.4640   -0.3500 h1        1 P76      0.088700
     55 H30         5.8420   -2.6100    1.9970 hc        1 P76      0.050033
     56 H30A        4.6470   -3.8990    1.5650 hc        1 P76      0.050033
     57 H30B        5.9610   -3.4600    0.3930 hc        1 P76      0.050033
     58 HO31        3.7100   -1.1970    2.1770 ho        1 P76      0.426000
@<TRIPOS>BOND
     1    1    2 1   
     2    1    7 1   
     3    1   32 1   
     4    2    3 1   
     5    2   29 1   
     6    2   33 1   
     7    3    4 2   
     8    3    5 1   
     9    5    6 1   
    10    5   34 1   
    11    6   35 1   
    12    7    8 2   
    13    7    9 1   
    14    9   10 1   
    15    9   14 1   
    16   10   11 1   
    17   10   36 1   
    18   10   37 1   
    19   11   12 1   
    20   11   38 1   
    21   11   39 1   
    22   12   13 1   
    23   12   15 1   
    24   12   40 1   
    25   13   14 1   
    26   13   41 1   
    27   13   42 1   
    28   14   43 1   
    29   14   44 1   
    30   15   16 ar  
    31   15   20 ar  
    32   16   17 ar  
    33   16   45 1   
    34   17   18 ar  
    35   17   46 1   
    36   18   19 ar  
    37   18   21 1   
    38   19   20 ar  
    39   19   47 1   
    40   20   48 1   
    41   21   22 3   
    42   22   23 1   
    43   23   24 ar  
    44   23   28 ar  
    45   24   25 ar  
    46   24   49 1   
    47   25   26 ar  
    48   25   50 1   
    49   26   27 ar  
    50   26   51 1   
    51   27   28 ar  
    52   27   52 1   
    53   28   53 1   
    54   29   30 1   
    55   29   31 1   
    56   29   54 1   
    57   30   55 1   
    58   30   56 1   
    59   30   57 1   
    60   31   58 1   
@<TRIPOS>SUBSTRUCTURE
     1 P76         1 TEMP              0 ****  ****    0 ROOT
