@<TRIPOS>MOLECULE
P76
   58    60     1     0     0
SMALL
bcc


@<TRIPOS>ATOM
      1 N1         -0.2910    0.0980   -0.3200 n         1 P76     -0.582900
      2 C2          1.1090    0.4230   -0.4530 c3        1 P76      0.006700
      3 C3          1.7560    0.4850    0.9450 c         1 P76      0.584100
      4 O4          1.2190    1.0820    1.8920 o         1 P76     -0.563100
      5 N5          3.0640   -0.0660    1.0770 n         1 P76     -0.348400
      6 O6          3.4300   -0.3410    2.3310 oh        1 P76     -0.432100
      7 C7         -0.8880   -0.8160   -1.1920 c         1 P76      0.748100
      8 O8         -0.2800   -1.1110   -2.2540 o         1 P76     -0.646100
      9 N9         -2.1220   -1.4500   -0.8780 n         1 P76     -0.406800
     10 C10        -2.9490   -0.9830    0.2190 c3        1 P76      0.059000
     11 C11        -3.9260    0.1310   -0.1580 c3        1 P76     -0.106900
     12 C12        -4.7950   -0.3110   -1.3310 c3        1 P76     -0.020400
     13 C13        -3.9300   -0.7940   -2.4900 c3        1 P76     -0.106900
     14 C14        -2.9220   -1.8480   -2.0310 c3        1 P76      0.059000
     15 C15        -5.7120    0.7880   -1.7630 ca        1 P76     -0.072300
     16 C16        -7.0990    0.6120   -1.6830 ca        1 P76     -0.128500
     17 C17        -7.9670    1.6250   -2.0810 ca        1 P76     -0.104500
     18 C18        -7.4600    2.8400   -2.5690 ca        1 P76      0.027000
     19 C19        -6.0680    3.0180   -2.6500 ca        1 P76     -0.104500
     20 C20        -5.2080    2.0000   -2.2510 ca        1 P76     -0.128500
     21 C21        -8.3320    3.8650   -2.9710 cg        1 P76     -0.107000
     22 C22        -9.0770    4.7410   -3.3150 ch        1 P76     -0.096000
     23 C23        -9.9500    5.7670   -3.7170 ca        1 P76      0.022000
     24 C24        -9.4380    6.9770   -4.2180 ca        1 P76     -0.105500
     25 C25       -10.3070    7.9900   -4.6150 ca        1 P76     -0.133000
     26 C26       -11.6870    7.8110   -4.5200 ca        1 P76     -0.120000
     27 C27       -12.2010    6.6130   -4.0240 ca        1 P76     -0.133000
     28 C28       -11.3410    5.5930   -3.6230 ca        1 P76     -0.105500
     29 C29         1.3350    1.7760   -1.1930 c3        1 P76      0.147100
     30 C30         2.7140    2.3480   -0.9230 c3        1 P76     -0.102100
     31 O31         1.2520    1.5790   -2.5960 oh        1 P76     -0.602800
     32 HN1        -0.7450    0.4080    0.5070 hn        1 P76      0.329500
     33 H2          1.6060   -0.3780   -1.0850 h1        1 P76      0.106700
     34 HN5         3.2020   -0.9040    0.5220 hn        1 P76      0.308500
     35 HO6         3.6340    0.5210    2.7450 ho        1 P76      0.435000
     36 H10        -3.5450   -1.8820    0.5560 h1        1 P76      0.068450
     37 H10A       -2.3260   -0.6660    1.0980 h1        1 P76      0.068450
     38 H11        -4.5720    0.3610    0.7270 hc        1 P76      0.057950
     39 H11A       -3.3670    1.0650   -0.4250 hc        1 P76      0.057950
     40 H12        -5.4180   -1.1870   -0.9820 hc        1 P76      0.054700
     41 H13        -4.5800   -1.2460   -3.2830 hc        1 P76      0.057950
     42 H13A       -3.3900    0.0750   -2.9490 hc        1 P76      0.057950
     43 H14        -2.2370   -2.1080   -2.8880 h1        1 P76      0.068450
     44 H14A       -3.4740   -2.7820   -1.7230 h1        1 P76      0.068450
     45 H16        -7.5110   -0.3360   -1.3030 ha        1 P76      0.135000
     46 H17        -9.0550    1.4750   -2.0140 ha        1 P76      0.141000
     47 H19        -5.6610    3.9650   -3.0320 ha        1 P76      0.141000
     48 H20        -4.1200    2.1520   -2.3210 ha        1 P76      0.135000
     49 H24        -8.3500    7.1190   -4.2940 ha        1 P76      0.139000
     50 H25        -9.9010    8.9350   -5.0060 ha        1 P76      0.135000
     51 H26       -12.3690    8.6140   -4.8350 ha        1 P76      0.134000
     52 H27       -13.2890    6.4710   -3.9480 ha        1 P76      0.135000
     53 H28       -11.7470    4.6480   -3.2330 ha        1 P76      0.139000
     54 H29         0.5460    2.5160   -0.8780 h1        1 P76      0.048700
     55 H30         3.5060    1.5980   -1.1550 hc        1 P76      0.053033
     56 H30A        2.8750    3.2390   -1.5780 hc        1 P76      0.053033
     57 H30B        2.7950    2.6610    0.1440 hc        1 P76      0.053033
     58 HO31        0.5150    0.9790   -2.7750 ho        1 P76      0.425000
@<TRIPOS>BOND
     1    1    2 1   
     2    1    7 1   
     3    1   32 1   
     4    2    3 1   
     5    2   29 1   
     6    2   33 1   
     7    3    4 2   
     8    3    5 1   
     9    5    6 1   
    10    5   34 1   
    11    6   35 1   
    12    7    8 2   
    13    7    9 1   
    14    9   10 1   
    15    9   14 1   
    16   10   11 1   
    17   10   36 1   
    18   10   37 1   
    19   11   12 1   
    20   11   38 1   
    21   11   39 1   
    22   12   13 1   
    23   12   15 1   
    24   12   40 1   
    25   13   14 1   
    26   13   41 1   
    27   13   42 1   
    28   14   43 1   
    29   14   44 1   
    30   15   16 ar  
    31   15   20 ar  
    32   16   17 ar  
    33   16   45 1   
    34   17   18 ar  
    35   17   46 1   
    36   18   19 ar  
    37   18   21 1   
    38   19   20 ar  
    39   19   47 1   
    40   20   48 1   
    41   21   22 3   
    42   22   23 1   
    43   23   24 ar  
    44   23   28 ar  
    45   24   25 ar  
    46   24   49 1   
    47   25   26 ar  
    48   25   50 1   
    49   26   27 ar  
    50   26   51 1   
    51   27   28 ar  
    52   27   52 1   
    53   28   53 1   
    54   29   30 1   
    55   29   31 1   
    56   29   54 1   
    57   30   55 1   
    58   30   56 1   
    59   30   57 1   
    60   31   58 1   
@<TRIPOS>SUBSTRUCTURE
     1 P76         1 TEMP              0 ****  ****    0 ROOT
