@<TRIPOS>MOLECULE
P77
   49    49     1     0     0
SMALL
bcc


@<TRIPOS>ATOM
      1 S          -3.6550   -2.6940   -2.0210 ss        1 P77      0.381000
      2 CL          0.0790    0.1220   -4.5680 cl        1 P77     -0.018000
      3 C1         -0.1110   -1.6090   -4.4330 c2        1 P77     -0.032000
      4 N1         -1.0810   -1.9500   -0.6780 n3        1 P77     -0.237000
      5 C2         -1.3230   -1.8860   -5.0670 c2        1 P77     -0.147000
      6 N2          1.8630    1.5580    0.7840 n3        1 P77     -0.257000
      7 C3         -2.4540   -2.1850   -4.3100 c1        1 P77     -0.080000
      8 N3          3.3760    3.9370    1.2410 n3        1 P77     -0.245000
      9 C4         -2.3750   -2.2080   -2.9090 c1        1 P77     -0.297000
     10 C5         -1.1700   -1.9330   -2.2780 c2        1 P77      0.116000
     11 C6         -0.0310   -1.6310   -3.0430 c2        1 P77     -0.177000
     12 C7         -3.4900   -2.8620   -0.4040 c2        1 P77     -0.296000
     13 C8         -4.5260   -3.4310    0.3540 c2        1 P77     -0.085000
     14 C9         -4.3260   -3.7210    1.7010 c1        1 P77     -0.151000
     15 C10        -3.0970   -3.4460    2.2990 c1        1 P77     -0.137000
     16 C11        -2.0670   -2.8810    1.5490 c1        1 P77     -0.137000
     17 C12        -2.2680   -2.5890    0.1900 c1        1 P77      0.103000
     18 C13        -0.7950   -0.6150   -0.1960 c3        1 P77     -0.019000
     19 C14         0.7040   -0.5080    0.1620 c3        1 P77     -0.191000
     20 C15         0.8970    0.5730    1.2470 c3        1 P77     -0.065000
     21 C16         3.0080    1.5420    1.6400 c3        1 P77     -0.102500
     22 C17         3.9980    2.6510    1.3040 c3        1 P77     -0.075000
     23 C18         2.2300    3.9530    0.3860 c3        1 P77     -0.075000
     24 C19         1.2400    2.8440    0.7210 c3        1 P77     -0.102500
     25 C20         2.9920    4.3530    2.5680 c3        1 P77     -0.128000
     26 H2         -1.3690   -1.9080   -6.0470 ha        1 P77      0.151000
     27 H3         -3.3060   -2.3800   -4.7560 ha        1 P77      0.147000
     28 H6          0.8300   -1.4830   -2.6000 ha        1 P77      0.152000
     29 H8         -5.3910   -3.6250   -0.0670 ha        1 P77      0.143000
     30 H9         -5.0510   -4.1190    2.2310 ha        1 P77      0.137000
     31 H10        -2.9560   -3.6500    3.2490 ha        1 P77      0.135000
     32 H11        -1.2030   -2.6880    1.9690 ha        1 P77      0.135000
     33 H13        -1.3360   -0.4330    0.6040 h1        1 P77      0.110500
     34 H13A       -1.0130    0.0400   -0.8960 h1        1 P77      0.110500
     35 H14         1.0220   -1.3730    0.5020 hc        1 P77      0.093000
     36 H14A        1.2150   -0.2620   -0.6390 hc        1 P77      0.093000
     37 H15         1.2280    0.1530    2.0750 h1        1 P77      0.073000
     38 H15A        0.0380    1.0160    1.4260 h1        1 P77      0.073000
     39 H16         3.4610    0.6720    1.5490 h1        1 P77      0.073250
     40 H16A        2.7120    1.6520    2.5700 h1        1 P77      0.073250
     41 H17         4.7000    2.6710    1.9940 h1        1 P77      0.098750
     42 H17A        4.4130    2.4550    0.4340 h1        1 P77      0.098750
     43 H18         2.5280    3.8440   -0.5460 h1        1 P77      0.098750
     44 H18A        1.7780    4.8220    0.4760 h1        1 P77      0.098750
     45 H19         0.8250    3.0400    1.5910 h1        1 P77      0.073250
     46 H19A        0.5390    2.8240    0.0310 h1        1 P77      0.073250
     47 H20         3.7750    4.3120    3.1630 h1        1 P77      0.071000
     48 H20A        2.6510    5.2760    2.5370 h1        1 P77      0.071000
     49 H20B        2.2920    3.7570    2.9080 h1        1 P77      0.071000
@<TRIPOS>BOND
     1    1    9 1   
     2    1   12 1   
     3    2    3 1   
     4    3    5 1   
     5    3   11 1   
     6    4   10 1   
     7    4   17 1   
     8    4   18 1   
     9    5    7 1   
    10    5   26 1   
    11    6   20 1   
    12    6   21 1   
    13    6   24 1   
    14    7   27 1   
    15    8   22 1   
    16    8   23 1   
    17    8   25 1   
    18    9   10 1   
    19   10   11 1   
    20   11   28 1   
    21   12   13 1   
    22   12   17 1   
    23   13   14 1   
    24   13   29 1   
    25   14   30 1   
    26   15   16 1   
    27   15   31 1   
    28   16   32 1   
    29   18   19 1   
    30   18   33 1   
    31   18   34 1   
    32   19   20 1   
    33   19   35 1   
    34   19   36 1   
    35   20   37 1   
    36   20   38 1   
    37   21   22 1   
    38   21   39 1   
    39   21   40 1   
    40   22   41 1   
    41   22   42 1   
    42   23   24 1   
    43   23   43 1   
    44   23   44 1   
    45   24   45 1   
    46   24   46 1   
    47   25   47 1   
    48   25   48 1   
    49   25   49 1   
@<TRIPOS>SUBSTRUCTURE
     1 P77         1 TEMP              0 ****  ****    0 ROOT
