@<TRIPOS>MOLECULE
P77
   49    52     1     0     0
SMALL
bcc


@<TRIPOS>ATOM
      1 S          -0.0050   -0.0770   -0.0450 ss        1 P77     -0.157800
      2 CL          6.1560    0.2220   -0.3250 cl        1 P77     -0.092400
      3 C1          4.4590    0.1530   -0.2180 ca        1 P77      0.046400
      4 N1          1.8340   -0.1510    2.4160 na        1 P77     -0.167100
      5 C2          3.6930    0.1730   -1.3840 ca        1 P77     -0.146000
      6 N2          4.8550    1.1630    6.1990 n3        1 P77     -0.728600
      7 C3          2.3080    0.1260   -1.2730 ca        1 P77     -0.081000
      8 N3          5.8530    2.7920    8.4050 n3        1 P77     -0.732600
      9 C4          1.6830    0.0330   -0.0290 ca        1 P77     -0.025100
     10 C5          2.4570    0.0050    1.1600 ca        1 P77      0.087700
     11 C6          3.8620    0.0830    1.0420 ca        1 P77     -0.175000
     12 C7         -0.4100    0.3420    1.5450 ca        1 P77     -0.025100
     13 C8         -1.7340    0.7250    1.7650 ca        1 P77     -0.085000
     14 C9         -2.1840    1.0440    3.0420 ca        1 P77     -0.150000
     15 C10        -1.2900    1.0010    4.1090 ca        1 P77     -0.099000
     16 C11         0.0390    0.6400    3.9100 ca        1 P77     -0.175000
     17 C12         0.5080    0.2910    2.6230 ca        1 P77      0.075700
     18 C13         2.6480   -0.4650    3.5690 c3        1 P77      0.036300
     19 C14         3.3240    0.7160    4.2720 c3        1 P77     -0.119400
     20 C15         3.9410    0.2140    5.5770 c3        1 P77      0.172800
     21 C16         4.2140    2.4200    6.5570 c3        1 P77      0.167300
     22 C17         5.1590    3.3980    7.2790 c3        1 P77      0.167800
     23 C18         6.5060    1.5440    8.0370 c3        1 P77      0.167800
     24 C19         5.5590    0.5610    7.3240 c3        1 P77      0.167300
     25 C20         6.7530    3.7140    9.0600 c3        1 P77      0.157100
     26 H2          4.1710    0.2310   -2.3730 ha        1 P77      0.151000
     27 H3          1.6870    0.1570   -2.1830 ha        1 P77      0.147000
     28 H6          4.5110    0.0840    1.9310 ha        1 P77      0.155000
     29 H8         -2.4280    0.7700    0.9090 ha        1 P77      0.143000
     30 H9         -3.2330    1.3310    3.2040 ha        1 P77      0.138000
     31 H10        -1.6320    1.2570    5.1240 ha        1 P77      0.134000
     32 H11         0.7100    0.6290    4.7820 ha        1 P77      0.138000
     33 H13         3.4420   -1.1980    3.2410 h1        1 P77      0.061700
     34 H13A        1.9900   -1.0060    4.3110 h1        1 P77      0.061700
     35 H14         4.1130    1.1630    3.6140 hc        1 P77      0.060700
     36 H14A        2.5790    1.5250    4.4860 hc        1 P77      0.060700
     37 H15         4.5330   -0.7200    5.3580 h1        1 P77      0.031200
     38 H15A        3.1000   -0.0750    6.2770 h1        1 P77      0.031200
     39 H16         3.8770    2.9160    5.6040 h1        1 P77      0.037450
     40 H16A        3.3030    2.2530    7.2030 h1        1 P77      0.037450
     41 H17         5.8830    3.8240    6.5230 h1        1 P77      0.037450
     42 H17A        4.5350    4.2470    7.6760 h1        1 P77      0.037450
     43 H18         7.4050    1.7220    7.3780 h1        1 P77      0.037450
     44 H18A        6.8630    1.0510    8.9840 h1        1 P77      0.037450
     45 H19         6.1830   -0.2870    6.9260 h1        1 P77      0.037450
     46 H19A        4.8400    0.1360    8.0850 h1        1 P77      0.037450
     47 H20         7.1870    3.2120    9.9650 h1        1 P77      0.032367
     48 H20A        7.5980    4.0580    8.4020 h1        1 P77      0.032367
     49 H20B        6.1700    4.6130    9.3910 h1        1 P77      0.032367
@<TRIPOS>BOND
     1    1    9 1   
     2    1   12 1   
     3    2    3 1   
     4    3    5 ar  
     5    3   11 ar  
     6    4   10 1   
     7    4   17 1   
     8    4   18 1   
     9    5    7 ar  
    10    5   26 1   
    11    6   20 1   
    12    6   21 1   
    13    6   24 1   
    14    7    9 ar  
    15    7   27 1   
    16    8   22 1   
    17    8   23 1   
    18    8   25 1   
    19    9   10 ar  
    20   10   11 ar  
    21   11   28 1   
    22   12   13 ar  
    23   12   17 ar  
    24   13   14 ar  
    25   13   29 1   
    26   14   15 ar  
    27   14   30 1   
    28   15   16 ar  
    29   15   31 1   
    30   16   17 ar  
    31   16   32 1   
    32   18   19 1   
    33   18   33 1   
    34   18   34 1   
    35   19   20 1   
    36   19   35 1   
    37   19   36 1   
    38   20   37 1   
    39   20   38 1   
    40   21   22 1   
    41   21   39 1   
    42   21   40 1   
    43   22   41 1   
    44   22   42 1   
    45   23   24 1   
    46   23   43 1   
    47   23   44 1   
    48   24   45 1   
    49   24   46 1   
    50   25   47 1   
    51   25   48 1   
    52   25   49 1   
@<TRIPOS>SUBSTRUCTURE
     1 P77         1 TEMP              0 ****  ****    0 ROOT
