@<TRIPOS>MOLECULE
P77
   49    52     1     0     0
SMALL
bcc


@<TRIPOS>ATOM
      1 S          -4.3560    0.9060   -0.0130 ss        1 P77     -0.157800
      2 CL         -1.4290   -4.5040   -0.5510 cl        1 P77     -0.092400
      3 C1         -2.2070   -2.9980   -0.4070 ca        1 P77      0.046400
      4 N1         -1.4020    0.4690    0.7090 na        1 P77     -0.167100
      5 C2         -3.5580   -2.8860   -0.7380 ca        1 P77     -0.146000
      6 N2          3.5720   -0.1310    0.4500 n3        1 P77     -0.728600
      7 C3         -4.1710   -1.6430   -0.6220 ca        1 P77     -0.081000
      8 N3          6.2910    0.3220   -0.5100 n3        1 P77     -0.732600
      9 C4         -3.4700   -0.5280   -0.1610 ca        1 P77     -0.025100
     10 C5         -2.0980   -0.6380    0.1840 ca        1 P77      0.087700
     11 C6         -1.4740   -1.8970    0.0370 ca        1 P77     -0.175000
     12 C7         -3.1370    2.0790    0.0510 ca        1 P77     -0.025100
     13 C8         -3.5280    3.3920   -0.2170 ca        1 P77     -0.085000
     14 C9         -2.6150    4.4390   -0.1450 ca        1 P77     -0.150000
     15 C10        -1.2880    4.1650    0.1770 ca        1 P77     -0.099000
     16 C11        -0.8720    2.8610    0.4280 ca        1 P77     -0.175000
     17 C12        -1.7900    1.7880    0.3830 ca        1 P77      0.075700
     18 C13        -0.1070    0.2590    1.3180 c3        1 P77      0.036300
     19 C14         1.0950    0.2040    0.3690 c3        1 P77     -0.119400
     20 C15         2.3740    0.2090    1.2050 c3        1 P77      0.173800
     21 C16         3.8420    0.7990   -0.6370 c3        1 P77      0.167300
     22 C17         5.1460    0.4860   -1.3940 c3        1 P77      0.167800
     23 C18         6.0210   -0.6210    0.5650 c3        1 P77      0.167800
     24 C19         4.7220   -0.3020    1.3290 c3        1 P77      0.167300
     25 C20         7.5040    0.0070   -1.2300 c3        1 P77      0.157100
     26 H2         -4.1280   -3.7580   -1.0900 ha        1 P77      0.151000
     27 H3         -5.2340   -1.5320   -0.8950 ha        1 P77      0.147000
     28 H6         -0.4080   -2.0360    0.2720 ha        1 P77      0.155000
     29 H8         -4.5780    3.5930   -0.4850 ha        1 P77      0.143000
     30 H9         -2.9390    5.4700   -0.3450 ha        1 P77      0.138000
     31 H10        -0.5550    4.9840    0.2300 ha        1 P77      0.134000
     32 H11         0.1880    2.6920    0.6700 ha        1 P77      0.138000
     33 H13         0.0540    1.0900    2.0660 h1        1 P77      0.061700
     34 H13A       -0.1530   -0.7040    1.9040 h1        1 P77      0.061700
     35 H14         1.0480   -0.7160   -0.2680 hc        1 P77      0.060700
     36 H14A        1.0880    1.0840   -0.3260 hc        1 P77      0.060700
     37 H15         2.2700   -0.5620    2.0230 h1        1 P77      0.031200
     38 H15A        2.4670    1.2200    1.7040 h1        1 P77      0.031200
     39 H16         2.9950    0.7190   -1.3750 h1        1 P77      0.037450
     40 H16A        3.8840    1.8670   -0.2710 h1        1 P77      0.037450
     41 H17         5.3620    1.3520   -2.0790 h1        1 P77      0.037450
     42 H17A        4.9800   -0.4290   -2.0350 h1        1 P77      0.037450
     43 H18         5.9650   -1.6830    0.1850 h1        1 P77      0.037450
     44 H18A        6.8730   -0.5610    1.2980 h1        1 P77      0.037450
     45 H19         4.8950    0.6110    1.9700 h1        1 P77      0.037450
     46 H19A        4.5050   -1.1700    2.0130 h1        1 P77      0.037450
     47 H20         7.6960    0.8150   -1.9830 h1        1 P77      0.032367
     48 H20A        8.3570   -0.0210   -0.5030 h1        1 P77      0.032367
     49 H20B        7.4610   -0.9810   -1.7680 h1        1 P77      0.032367
@<TRIPOS>BOND
     1    1    9 1   
     2    1   12 1   
     3    2    3 1   
     4    3    5 ar  
     5    3   11 ar  
     6    4   10 1   
     7    4   17 1   
     8    4   18 1   
     9    5    7 ar  
    10    5   26 1   
    11    6   20 1   
    12    6   21 1   
    13    6   24 1   
    14    7    9 ar  
    15    7   27 1   
    16    8   22 1   
    17    8   23 1   
    18    8   25 1   
    19    9   10 ar  
    20   10   11 ar  
    21   11   28 1   
    22   12   13 ar  
    23   12   17 ar  
    24   13   14 ar  
    25   13   29 1   
    26   14   15 ar  
    27   14   30 1   
    28   15   16 ar  
    29   15   31 1   
    30   16   17 ar  
    31   16   32 1   
    32   18   19 1   
    33   18   33 1   
    34   18   34 1   
    35   19   20 1   
    36   19   35 1   
    37   19   36 1   
    38   20   37 1   
    39   20   38 1   
    40   21   22 1   
    41   21   39 1   
    42   21   40 1   
    43   22   41 1   
    44   22   42 1   
    45   23   24 1   
    46   23   43 1   
    47   23   44 1   
    48   24   45 1   
    49   24   46 1   
    50   25   47 1   
    51   25   48 1   
    52   25   49 1   
@<TRIPOS>SUBSTRUCTURE
     1 P77         1 TEMP              0 ****  ****    0 ROOT
