@<TRIPOS>MOLECULE
P77
   49    52     1     0     0
SMALL
bcc


@<TRIPOS>ATOM
      1 S          -0.0050   -0.0710   -0.0460 ss        1 P77     -0.157800
      2 Cl          6.1560    0.2220   -0.3240 cl        1 P77     -0.092400
      3 C1          4.4590    0.1550   -0.2180 ca        1 P77      0.046400
      4 N1          1.8330   -0.1480    2.4150 na        1 P77     -0.167100
      5 C2          3.6940    0.1760   -1.3850 ca        1 P77     -0.146000
      6 N2          4.8540    1.1590    6.1990 n3        1 P77     -0.728600
      7 C3          2.3080    0.1300   -1.2730 ca        1 P77     -0.081000
      8 N3          5.8540    2.7880    8.4060 n3        1 P77     -0.732600
      9 C4          1.6830    0.0370   -0.0290 ca        1 P77     -0.025100
     10 C5          2.4560    0.0080    1.1600 ca        1 P77      0.087700
     11 C6          3.8620    0.0840    1.0410 ca        1 P77     -0.175000
     12 C7         -0.4100    0.3480    1.5440 ca        1 P77     -0.025100
     13 C8         -1.7340    0.7330    1.7640 ca        1 P77     -0.085000
     14 C9         -2.1840    1.0510    3.0410 ca        1 P77     -0.150000
     15 C10        -1.2910    1.0060    4.1080 ca        1 P77     -0.099000
     16 C11         0.0380    0.6440    3.9090 ca        1 P77     -0.175000
     17 C12         0.5080    0.2950    2.6230 ca        1 P77      0.075700
     18 C13         2.6460   -0.4650    3.5680 c3        1 P77      0.036300
     19 C14         3.3240    0.7150    4.2720 c3        1 P77     -0.119400
     20 C15         3.9380    0.2130    5.5780 c3        1 P77      0.173800
     21 C16         4.2160    2.4180    6.5560 c3        1 P77      0.167300
     22 C17         5.1630    3.3950    7.2780 c3        1 P77      0.167800
     23 C18         6.5040    1.5370    8.0400 c3        1 P77      0.167800
     24 C19         5.5550    0.5570    7.3270 c3        1 P77      0.167300
     25 C20         6.7560    3.7070    9.0610 c3        1 P77      0.157100
     26 H2          4.1720    0.2350   -2.3730 ha        1 P77      0.151000
     27 H3          1.6880    0.1630   -2.1840 ha        1 P77      0.147000
     28 H6          4.5100    0.0840    1.9310 ha        1 P77      0.155000
     29 H8         -2.4270    0.7780    0.9080 ha        1 P77      0.143000
     30 H9         -3.2320    1.3400    3.2020 ha        1 P77      0.138000
     31 H10        -1.6320    1.2620    5.1230 ha        1 P77      0.134000
     32 H11         0.7100    0.6310    4.7810 ha        1 P77      0.138000
     33 H13         1.9880   -1.0050    4.3090 h1        1 P77      0.061700
     34 H13A        3.4390   -1.1980    3.2400 h1        1 P77      0.061700
     35 H14         4.1140    1.1620    3.6150 hc        1 P77      0.060700
     36 H14A        2.5790    1.5260    4.4850 hc        1 P77      0.060700
     37 H15         3.0970   -0.0750    6.2770 h1        1 P77      0.031200
     38 H15A        4.5290   -0.7230    5.3590 h1        1 P77      0.031200
     39 H16         3.8820    2.9150    5.6020 h1        1 P77      0.037450
     40 H16A        3.3040    2.2550    7.2010 h1        1 P77      0.037450
     41 H17         4.5420    4.2460    7.6740 h1        1 P77      0.037450
     42 H17A        5.8890    3.8180    6.5230 h1        1 P77      0.037450
     43 H18         6.8590    1.0440    8.9870 h1        1 P77      0.037450
     44 H18A        7.4050    1.7120    7.3820 h1        1 P77      0.037450
     45 H19         6.1770   -0.2940    6.9300 h1        1 P77      0.037450
     46 H19A        4.8340    0.1340    8.0870 h1        1 P77      0.037450
     47 H20         7.1880    3.2050    9.9660 h1        1 P77      0.032367
     48 H20A        6.1760    4.6090    9.3900 h1        1 P77      0.032367
     49 H20B        7.6030    4.0480    8.4040 h1        1 P77      0.032367
@<TRIPOS>BOND
     1    1    9 1   
     2    1   12 1   
     3    2    3 1   
     4    3    5 ar  
     5    3   11 ar  
     6    4   10 1   
     7    4   17 1   
     8    4   18 1   
     9    5    7 ar  
    10    5   26 1   
    11    6   20 1   
    12    6   21 1   
    13    6   24 1   
    14    7    9 ar  
    15    7   27 1   
    16    8   22 1   
    17    8   23 1   
    18    8   25 1   
    19    9   10 ar  
    20   10   11 ar  
    21   11   28 1   
    22   12   13 ar  
    23   12   17 ar  
    24   13   14 ar  
    25   13   29 1   
    26   14   15 ar  
    27   14   30 1   
    28   15   16 ar  
    29   15   31 1   
    30   16   17 ar  
    31   16   32 1   
    32   18   19 1   
    33   18   33 1   
    34   18   34 1   
    35   19   20 1   
    36   19   35 1   
    37   19   36 1   
    38   20   37 1   
    39   20   38 1   
    40   21   22 1   
    41   21   39 1   
    42   21   40 1   
    43   22   41 1   
    44   22   42 1   
    45   23   24 1   
    46   23   43 1   
    47   23   44 1   
    48   24   45 1   
    49   24   46 1   
    50   25   47 1   
    51   25   48 1   
    52   25   49 1   
@<TRIPOS>SUBSTRUCTURE
     1 P77         1 TEMP              0 ****  ****    0 ROOT
