@<TRIPOS>MOLECULE
P77
   49    52     1     0     0
SMALL
bcc


@<TRIPOS>ATOM
      1 S          -0.0050   -0.0790   -0.0440 ss        1 P77     -0.157800
      2 CL          6.1560    0.2150   -0.3240 cl        1 P77     -0.092400
      3 C1          4.4590    0.1470   -0.2170 ca        1 P77      0.046400
      4 N1          1.8330   -0.1510    2.4170 na        1 P77     -0.167100
      5 C2          3.6930    0.1670   -1.3840 ca        1 P77     -0.146000
      6 N2          4.8540    1.1630    6.2000 n3        1 P77     -0.728600
      7 C3          2.3080    0.1200   -1.2720 ca        1 P77     -0.081000
      8 N3          5.8530    2.7950    8.4030 n3        1 P77     -0.732600
      9 C4          1.6830    0.0290   -0.0280 ca        1 P77     -0.025100
     10 C5          2.4570    0.0030    1.1610 ca        1 P77      0.087700
     11 C6          3.8620    0.0790    1.0420 ca        1 P77     -0.175000
     12 C7         -0.4100    0.3430    1.5450 ca        1 P77     -0.025100
     13 C8         -1.7340    0.7280    1.7650 ca        1 P77     -0.085000
     14 C9         -2.1830    1.0490    3.0410 ca        1 P77     -0.150000
     15 C10        -1.2900    1.0050    4.1090 ca        1 P77     -0.099000
     16 C11         0.0390    0.6430    3.9100 ca        1 P77     -0.175000
     17 C12         0.5080    0.2920    2.6240 ca        1 P77      0.075700
     18 C13         2.6470   -0.4660    3.5700 c3        1 P77      0.036300
     19 C14         3.3250    0.7150    4.2720 c3        1 P77     -0.119400
     20 C15         3.9380    0.2150    5.5800 c3        1 P77      0.172800
     21 C16         4.2170    2.4230    6.5520 c3        1 P77      0.167300
     22 C17         5.1640    3.4000    7.2730 c3        1 P77      0.167800
     23 C18         6.5020    1.5440    8.0410 c3        1 P77      0.167800
     24 C19         5.5530    0.5620    7.3290 c3        1 P77      0.167300
     25 C20         6.7550    3.7160    9.0580 c3        1 P77      0.157100
     26 H2          4.1720    0.2230   -2.3720 ha        1 P77      0.151000
     27 H3          1.6870    0.1510   -2.1830 ha        1 P77      0.147000
     28 H6          4.5110    0.0800    1.9320 ha        1 P77      0.155000
     29 H8         -2.4270    0.7720    0.9090 ha        1 P77      0.143000
     30 H9         -3.2310    1.3370    3.2030 ha        1 P77      0.138000
     31 H10        -1.6310    1.2630    5.1230 ha        1 P77      0.134000
     32 H11         0.7110    0.6320    4.7810 ha        1 P77      0.138000
     33 H13         3.4400   -1.2000    3.2430 h1        1 P77      0.061700
     34 H13A        1.9890   -1.0050    4.3120 h1        1 P77      0.061700
     35 H14         2.5800    1.5260    4.4830 hc        1 P77      0.060700
     36 H14A        4.1160    1.1600    3.6150 hc        1 P77      0.060700
     37 H15         4.5280   -0.7220    5.3630 h1        1 P77      0.031200
     38 H15A        3.0960   -0.0710    6.2790 h1        1 P77      0.031200
     39 H16         3.3040    2.2610    7.1970 h1        1 P77      0.037450
     40 H16A        3.8840    2.9170    5.5970 h1        1 P77      0.037450
     41 H17         4.5420    4.2530    7.6670 h1        1 P77      0.037450
     42 H17A        5.8910    3.8210    6.5180 h1        1 P77      0.037450
     43 H18         7.4040    1.7160    7.3830 h1        1 P77      0.037450
     44 H18A        6.8560    1.0520    8.9900 h1        1 P77      0.037450
     45 H19         6.1750   -0.2900    6.9350 h1        1 P77      0.037450
     46 H19A        4.8310    0.1420    8.0890 h1        1 P77      0.037450
     47 H20         6.1740    4.6180    9.3840 h1        1 P77      0.032367
     48 H20A        7.1850    3.2150    9.9640 h1        1 P77      0.032367
     49 H20B        7.6030    4.0550    8.4010 h1        1 P77      0.032367
@<TRIPOS>BOND
     1    1    9 1   
     2    1   12 1   
     3    2    3 1   
     4    3    5 ar  
     5    3   11 ar  
     6    4   10 1   
     7    4   17 1   
     8    4   18 1   
     9    5    7 ar  
    10    5   26 1   
    11    6   20 1   
    12    6   21 1   
    13    6   24 1   
    14    7    9 ar  
    15    7   27 1   
    16    8   22 1   
    17    8   23 1   
    18    8   25 1   
    19    9   10 ar  
    20   10   11 ar  
    21   11   28 1   
    22   12   13 ar  
    23   12   17 ar  
    24   13   14 ar  
    25   13   29 1   
    26   14   15 ar  
    27   14   30 1   
    28   15   16 ar  
    29   15   31 1   
    30   16   17 ar  
    31   16   32 1   
    32   18   19 1   
    33   18   33 1   
    34   18   34 1   
    35   19   20 1   
    36   19   35 1   
    37   19   36 1   
    38   20   37 1   
    39   20   38 1   
    40   21   22 1   
    41   21   39 1   
    42   21   40 1   
    43   22   41 1   
    44   22   42 1   
    45   23   24 1   
    46   23   43 1   
    47   23   44 1   
    48   24   45 1   
    49   24   46 1   
    50   25   47 1   
    51   25   48 1   
    52   25   49 1   
@<TRIPOS>SUBSTRUCTURE
     1 P77         1 TEMP              0 ****  ****    0 ROOT
