@<TRIPOS>MOLECULE
P78
   60    63     1     0     0
SMALL
bcc


@<TRIPOS>ATOM
      1 C1          1.8060   -2.6470    0.0360 cc        1 P78     -0.163400
      2 O1          6.4870    2.8250   -1.3700 o         1 P78     -0.649300
      3 S1          6.2860    1.9730   -0.2780 s6        1 P78      1.328000
      4 C2         -7.5000    2.5030   -0.5030 ca        1 P78     -0.124000
      5 S2          0.1550   -2.3750   -0.0350 ss        1 P78      0.166200
      6 C3          0.3050   -0.7080    0.2000 cc        1 P78      0.079500
      7 C4          1.6600   -0.3390    0.3030 cd        1 P78     -0.255600
      8 C5          2.5140   -1.4790    0.2250 cd        1 P78     -0.110000
      9 C6          2.3940   -4.0090   -0.0860 c3        1 P78      0.024300
     10 C7          3.1640   -4.3560    1.1840 c3        1 P78     -0.088767
     11 C8          1.2870   -5.0380   -0.2930 c3        1 P78     -0.088767
     12 C9          3.3460   -4.0580   -1.2780 c3        1 P78     -0.088767
     13 C10         2.0910    1.0440    0.5600 c         1 P78      0.720700
     14 C11        -8.6420   -0.0370   -0.1770 ca        1 P78     -0.110000
     15 O11         1.4430    1.7800    1.3410 o         1 P78     -0.635100
     16 C12        -9.4290    1.0410   -0.4990 ca        1 P78     -0.132000
     17 N12        -0.7450    0.1960    0.2530 n         1 P78     -0.435100
     18 C13        -2.0870   -0.2500    0.2770 c         1 P78      0.768100
     19 C14        -8.8510    2.3240   -0.6640 ca        1 P78     -0.120000
     20 O14        -2.3360   -1.4590    0.0540 o         1 P78     -0.619100
     21 N15        -3.0780    0.7020    0.5600 n         1 P78     -0.451100
     22 C16        -4.4530    0.4850    0.3300 ca        1 P78      0.067600
     23 C17        -5.0460   -0.8070    0.4960 ca        1 P78     -0.128000
     24 C18        -6.3970   -0.9720    0.3290 ca        1 P78     -0.100000
     25 C19        -7.2400    0.1200   -0.0040 ca        1 P78     -0.051000
     26 C20        -6.6600    1.4030   -0.1690 ca        1 P78     -0.014000
     27 C21        -5.2630    1.5670   -0.0040 ca        1 P78     -0.174000
     28 N26         3.1960    1.5810   -0.0940 n         1 P78     -0.481800
     29 C27         3.7680    2.8330    0.3480 c3        1 P78      0.121500
     30 C28         5.2110    2.6930    0.8330 c3        1 P78     -0.348100
     31 C31         5.3770    0.6120   -0.7700 c3        1 P78     -0.348100
     32 C32         3.9280    0.9220   -1.1450 c3        1 P78      0.121500
     33 H2         -7.0430    3.4960   -0.6290 ha        1 P78      0.132000
     34 H5          3.6000   -1.4190    0.3280 ha        1 P78      0.151000
     35 H7          2.4810   -4.3520    2.0670 hc        1 P78      0.039922
     36 H7A         3.6200   -5.3700    1.0870 hc        1 P78      0.039922
     37 H7B         3.9770   -3.6110    1.3580 hc        1 P78      0.039922
     38 H8          0.7160   -4.8160   -1.2270 hc        1 P78      0.039922
     39 H8A         1.7290   -6.0590   -0.3810 hc        1 P78      0.039922
     40 H8B         0.5800   -5.0300    0.5730 hc        1 P78      0.039922
     41 H9          4.1620   -3.3080   -1.1500 hc        1 P78      0.039922
     42 H9A         3.8010   -5.0740   -1.3590 hc        1 P78      0.039922
     43 H9B         2.7980   -3.8350   -2.2230 hc        1 P78      0.039922
     44 H11        -9.0810   -1.0380   -0.0470 ha        1 P78      0.134000
     45 H12       -10.5140    0.9240   -0.6340 ha        1 P78      0.133000
     46 HN12       -0.5110    1.1060    0.6030 hn        1 P78      0.349500
     47 H14        -9.5020    3.1730   -0.9220 ha        1 P78      0.133000
     48 HN15       -2.8070    1.6620    0.5930 hn        1 P78      0.318500
     49 H17        -4.4100   -1.6710    0.7520 ha        1 P78      0.171000
     50 H18        -6.8500   -1.9680    0.4560 ha        1 P78      0.139000
     51 H21        -4.8440    2.5770   -0.1410 ha        1 P78      0.133000
     52 H27         3.7510    3.5590   -0.5170 h1        1 P78      0.077950
     53 H27A        3.1380    3.2630    1.1780 h1        1 P78      0.077950
     54 H28         5.2130    2.1380    1.8090 h1        1 P78      0.125450
     55 H28A        5.5620    3.7310    1.0870 h1        1 P78      0.125450
     56 H31         5.8500    0.1440   -1.6760 h1        1 P78      0.125450
     57 H31A        5.3950   -0.1860    0.0180 h1        1 P78      0.125450
     58 H32         3.4050   -0.0240   -1.4560 h1        1 P78      0.077950
     59 H32A        3.9420    1.6120   -2.0430 h1        1 P78      0.077950
     60 O33         7.4200    1.5260    0.4130 o         1 P78     -0.649300
@<TRIPOS>BOND
     1    1    5 1   
     2    1    8 2   
     3    1    9 1   
     4    2    3 2   
     5    3   30 1   
     6    3   31 1   
     7    3   60 2   
     8    4   19 ar  
     9    4   26 ar  
    10    4   33 1   
    11    5    6 1   
    12    6    7 2   
    13    6   17 1   
    14    7    8 1   
    15    7   13 1   
    16    8   34 1   
    17    9   10 1   
    18    9   11 1   
    19    9   12 1   
    20   10   35 1   
    21   10   36 1   
    22   10   37 1   
    23   11   38 1   
    24   11   39 1   
    25   11   40 1   
    26   12   41 1   
    27   12   42 1   
    28   12   43 1   
    29   13   15 2   
    30   13   28 1   
    31   14   16 ar  
    32   14   25 ar  
    33   14   44 1   
    34   16   19 ar  
    35   16   45 1   
    36   17   18 1   
    37   17   46 1   
    38   18   20 2   
    39   18   21 1   
    40   19   47 1   
    41   21   22 1   
    42   21   48 1   
    43   22   23 ar  
    44   22   27 ar  
    45   23   24 ar  
    46   23   49 1   
    47   24   25 ar  
    48   24   50 1   
    49   25   26 ar  
    50   26   27 ar  
    51   27   51 1   
    52   28   29 1   
    53   28   32 1   
    54   29   30 1   
    55   29   52 1   
    56   29   53 1   
    57   30   54 1   
    58   30   55 1   
    59   31   32 1   
    60   31   56 1   
    61   31   57 1   
    62   32   58 1   
    63   32   59 1   
@<TRIPOS>SUBSTRUCTURE
     1 P78         1 TEMP              0 ****  ****    0 ROOT
