@<TRIPOS>MOLECULE
P78
   60    54     1     0     0
SMALL
bcc


@<TRIPOS>ATOM
      1 C1         -2.2830    0.7970   -1.7500 c1        1 P78     -0.304500
      2 O1         -6.1160    0.3690    4.5380 o         1 P78     -0.928500
      3 S1         -5.5130    1.6030    4.2000 ss        1 P78      2.808000
      4 C2          6.6570   -3.2600    0.8070 c1        1 P78     -0.124000
      5 S2         -0.7370    0.7580   -1.6960 ss        1 P78      0.706000
      6 C3         -0.3230    0.7180   -0.2070 c1        1 P78     -0.304500
      7 C4         -1.5370    0.7310    0.5950 c1        1 P78     -0.172500
      8 C5         -2.7790    0.7820   -0.3850 c1        1 P78     -0.172500
      9 C6         -2.9980    0.9560   -3.1200 c2        1 P78      0.017000
     10 C7         -3.5390    2.3590   -3.2480 c3        1 P78     -0.206667
     11 C8         -2.0090    0.6940   -4.2430 c3        1 P78     -0.206667
     12 C9         -4.1480   -0.0380   -3.2130 c3        1 P78     -0.206667
     13 C10        -1.6010    0.8010    2.1410 c1        1 P78      0.394000
     14 C11         8.1090   -2.7330   -1.5360 c1        1 P78     -0.110000
     15 O11        -0.5970    0.8500    2.7720 o         1 P78     -0.396000
     16 C12         8.6130   -3.6520   -0.5820 c1        1 P78     -0.126000
     17 N12         1.0200    0.5600    0.2950 n2        1 P78     -0.289000
     18 C13         2.0620    0.0450   -0.5690 c2        1 P78      0.395000
     19 C14         7.8940   -3.9130    0.5770 c1        1 P78     -0.126000
     20 O14         1.8100   -0.2480   -1.7050 o         1 P78     -0.380000
     21 N15         3.3610   -0.2130   -0.0380 n         1 P78     -0.305000
     22 C16         4.3780   -0.8300   -0.8710 c2        1 P78      0.075000
     23 C17         5.1000   -0.5610   -2.0470 c2        1 P78     -0.128000
     24 C18         6.3510   -1.1870   -2.2670 c1        1 P78     -0.100000
     25 C19         6.8720   -2.0810   -1.3060 c1        1 P78     -0.051000
     26 C20         6.1540   -2.3460   -0.1410 c2        1 P78     -0.014000
     27 C21         4.8960   -1.7150    0.0810 c2        1 P78     -0.174000
     28 N26        -2.9280    0.7060    2.8460 n3        1 P78     -0.340000
     29 C27        -3.0330    0.6650    4.3550 c3        1 P78      0.005500
     30 C28        -4.0040    1.7160    4.9570 c2        1 P78     -0.887500
     31 C31        -5.3040    1.6850    2.5240 c2        1 P78     -0.887500
     32 C32        -4.2580    0.6370    2.0790 c3        1 P78      0.005500
     33 O33        -6.3720    2.7060    4.6440 o         1 P78     -0.928500
     34 H2          6.1590   -3.4410    1.6100 ha        1 P78      0.132000
     35 H5         -3.7130    0.7990   -0.1180 DU        1 P78      0.151000
     36 H7         -4.2680    2.4840   -2.6200 hc        1 P78      0.079222
     37 H7A        -3.8700    2.5010   -4.1700 hc        1 P78      0.079222
     38 H7B        -2.8310    2.9990   -3.0550 hc        1 P78      0.079222
     39 H8         -2.4760    0.6900   -5.0880 hc        1 P78      0.079222
     40 H8A        -1.5820   -0.1680   -4.1050 hc        1 P78      0.079222
     41 H8B        -1.3430    1.3830   -4.2500 hc        1 P78      0.079222
     42 H9         -4.8550    0.2190   -2.5790 hc        1 P78      0.079222
     43 H9A        -4.5110   -0.0350   -4.1300 hc        1 P78      0.079222
     44 H9B        -3.8250   -0.9290   -2.9950 hc        1 P78      0.079222
     45 H11         8.6150   -2.5480   -2.3550 ha        1 P78      0.134000
     46 H12         9.4510   -4.0940   -0.7370 ha        1 P78      0.133000
     47 HN12        1.2080    0.7630    1.1690 hn        1 P78      0.263000
     48 H14         8.2370   -4.5380    1.2270 ha        1 P78      0.133000
     49 HN15        3.5480    0.0040    0.8000 hn        1 P78      0.232000
     50 H17         4.7050    0.0330   -2.7520 ha        1 P78      0.171000
     51 H18         6.8530   -1.0000   -3.0850 ha        1 P78      0.139000
     52 H21         4.3980   -1.8770    0.9390 ha        1 P78      0.133000
     53 H27        -2.1190    0.8190    4.7400 h1        1 P78      0.117250
     54 H27A       -3.3450   -0.2490    4.6290 h1        1 P78      0.117250
     55 H28        -3.9890    1.5680    5.9400 ha        1 P78      0.164750
     56 H28A       -3.6850    2.6580    4.8970 ha        1 P78      0.164750
     57 H31        -5.0480    2.5490    2.1740 ha        1 P78      0.164750
     58 H31A       -6.1880    1.5570    2.0860 ha        1 P78      0.164750
     59 H32        -4.6490   -0.2720    2.2030 h1        1 P78      0.117250
     60 H32A       -4.0750    0.7670    1.1380 h1        1 P78      0.117250
@<TRIPOS>BOND
     1    1    5 1   
     2    1    8 1   
     3    2    3 1   
     4    3   33 1   
     5    4   26 1   
     6    4   34 1   
     7    5    6 1   
     8    6    7 1   
     9    7    8 1   
    10    9   10 1   
    11    9   11 1   
    12    9   12 1   
    13   10   36 1   
    14   10   37 1   
    15   10   38 1   
    16   11   39 1   
    17   11   40 1   
    18   11   41 1   
    19   12   42 1   
    20   12   43 1   
    21   12   44 1   
    22   13   15 1   
    23   13   28 1   
    24   14   25 1   
    25   14   45 1   
    26   16   19 1   
    27   16   46 1   
    28   17   18 1   
    29   17   47 1   
    30   18   20 1   
    31   18   21 1   
    32   19   48 1   
    33   21   22 1   
    34   21   49 1   
    35   22   23 1   
    36   22   27 1   
    37   23   24 1   
    38   23   50 1   
    39   24   51 1   
    40   25   26 1   
    41   26   27 1   
    42   27   52 1   
    43   28   29 1   
    44   28   32 1   
    45   29   30 1   
    46   29   53 1   
    47   29   54 1   
    48   30   55 1   
    49   30   56 1   
    50   31   32 1   
    51   31   57 1   
    52   31   58 1   
    53   32   59 1   
    54   32   60 1   
@<TRIPOS>SUBSTRUCTURE
     1 P78         1 TEMP              0 ****  ****    0 ROOT
