@<TRIPOS>MOLECULE
P78
   60    62     1     0     0
SMALL
bcc


@<TRIPOS>ATOM
      1 C1         -0.5560   -0.8870    0.0100 c2        1 P78     -0.350000
      2 O1         -3.4340   -0.6110    6.0170 o         1 P78     -0.933500
      3 S1         -2.9370    0.0100    4.8610 s6        1 P78      2.808000
      4 C2          9.8680   -1.5930    1.2090 c3        1 P78      0.017000
      5 S2          1.1360   -0.6570   -0.5090 ss        1 P78      0.604000
      6 C3          1.7830   -1.1490    0.8800 c2        1 P78     -0.195000
      7 C4          0.6850   -1.6320    1.8840 c3        1 P78     -0.084000
      8 C5         -0.6010   -1.3540    1.2390 c1        1 P78     -0.326000
      9 C6         -1.6090   -0.5320   -0.9710 c3        1 P78      0.030000
     10 C7         -2.5420    0.5150   -0.3700 c3        1 P78     -0.204000
     11 C8         -0.9690    0.0340   -2.2360 c3        1 P78     -0.204000
     12 C9         -2.4180   -1.7740   -1.3330 c3        1 P78     -0.204000
     13 C10         0.8060   -0.9920    3.2580 c2        1 P78      0.340000
     14 C11        10.8460    1.1810    2.4920 c3        1 P78      0.027000
     15 O11         1.8000   -0.2880    3.5460 o         1 P78     -0.404000
     16 C12        11.4170   -0.1360    2.4090 c1        1 P78     -0.173000
     17 N12         3.0830   -1.2440    1.2680 n         1 P78     -0.256000
     18 C13         4.1890   -0.8890    0.4380 c2        1 P78      0.392000
     19 C14        11.0480   -1.1860    1.9220 c1        1 P78     -0.182000
     20 O14         4.0230   -0.6710   -0.7810 o         1 P78     -0.345000
     21 N15         5.4510   -0.8440    1.0350 n         1 P78     -0.320000
     22 C16         6.5810   -0.5140    0.2730 c2        1 P78      0.059000
     23 C17         8.1870    3.2030    1.2330 c2        1 P78     -0.159000
     24 C18         8.8450    2.1110    1.4650 c1        1 P78     -0.138000
     25 C19         9.5250    1.0120    1.7050 c2        1 P78     -0.048000
     26 C20         9.0130   -0.3010    1.2250 c2        1 P78      0.054000
     27 C21         7.7870   -0.4100    0.7770 c1        1 P78     -0.277000
     28 N26        -0.1440   -1.2720    4.2340 n         1 P78     -0.295000
     29 C27        -0.2650   -0.3660    5.3620 c3        1 P78      0.002000
     30 C28        -1.3870    0.6560    5.1970 c3        1 P78     -0.899000
     31 C31        -2.5740   -1.1570    3.6890 c3        1 P78     -0.899000
     32 C32        -1.3520   -2.0270    3.9680 c3        1 P78      0.002000
     33 H2          9.3110   -2.4260    1.7110 hc        1 P78      0.117000
     34 H5          0.8110   -2.7500    1.9930 hc        1 P78      0.162000
     35 H7         -1.9810    1.4520   -0.1430 hc        1 P78      0.077444
     36 H7A        -2.9880    0.1270    0.5770 hc        1 P78      0.077444
     37 H7B        -3.3620    0.7520   -1.0890 hc        1 P78      0.077444
     38 H8         -0.3820    0.9560   -1.9990 hc        1 P78      0.077444
     39 H8A        -1.7590    0.3010   -2.9770 hc        1 P78      0.077444
     40 H8B        -0.2880   -0.7200   -2.7030 hc        1 P78      0.077444
     41 H9         -1.7650   -2.5380   -1.8160 hc        1 P78      0.077444
     42 H9A        -3.2370   -1.5030   -2.0410 hc        1 P78      0.077444
     43 H9B        -2.8650   -2.2160   -0.4110 hc        1 P78      0.077444
     44 H11        11.4820    1.9690    2.0110 hc        1 P78      0.115500
     45 H12        10.6250    1.4910    3.5460 hc        1 P78      0.115500
     46 HN12        3.2350   -1.3450    2.2570 hn        1 P78      0.269000
     47 H14        10.0820   -1.8910    0.1500 hc        1 P78      0.117000
     48 HN15        5.5560   -0.9570    2.0180 hn        1 P78      0.245000
     49 H17         7.4260    3.5900    1.9270 ha        1 P78      0.140500
     50 H18         8.3510    3.8050    0.3260 ha        1 P78      0.140500
     51 H21         6.3770   -0.3540   -0.8080 h4        1 P78      0.189000
     52 H27        -0.4700   -0.9900    6.2790 h1        1 P78      0.119000
     53 H27A        0.7120    0.1740    5.5140 h1        1 P78      0.119000
     54 H28        -1.4260    1.2460    6.1530 h1        1 P78      0.177750
     55 H28A       -1.0900    1.3960    4.4060 h1        1 P78      0.177750
     56 H31        -2.4180   -0.7080    2.6590 h1        1 P78      0.177750
     57 H31A       -3.4430   -1.8580    3.5570 h1        1 P78      0.177750
     58 H32        -1.1950   -2.7170    3.0920 h1        1 P78      0.119000
     59 H32A       -1.5520   -2.6550    4.8860 h1        1 P78      0.119000
     60 O33        -3.7240    1.0210    4.2930 o         1 P78     -0.933500
@<TRIPOS>BOND
     1    1    5 1   
     2    1    8 1   
     3    1    9 1   
     4    2    3 1   
     5    3   30 1   
     6    3   31 1   
     7    3   60 1   
     8    4   19 1   
     9    4   26 1   
    10    4   33 1   
    11    4   47 1   
    12    5    6 1   
    13    6    7 1   
    14    6   17 1   
    15    7    8 1   
    16    7   13 1   
    17    7   34 1   
    18    9   10 1   
    19    9   11 1   
    20    9   12 1   
    21   10   35 1   
    22   10   36 1   
    23   10   37 1   
    24   11   38 1   
    25   11   39 1   
    26   11   40 1   
    27   12   41 1   
    28   12   42 1   
    29   12   43 1   
    30   13   15 1   
    31   13   28 1   
    32   14   16 1   
    33   14   25 1   
    34   14   44 1   
    35   14   45 1   
    36   16   19 1   
    37   17   18 1   
    38   17   46 1   
    39   18   20 1   
    40   18   21 1   
    41   21   22 1   
    42   21   48 1   
    43   22   27 1   
    44   22   51 1   
    45   23   24 1   
    46   23   49 1   
    47   23   50 1   
    48   24   25 1   
    49   25   26 1   
    50   26   27 1   
    51   28   29 1   
    52   28   32 1   
    53   29   30 1   
    54   29   52 1   
    55   29   53 1   
    56   30   54 1   
    57   30   55 1   
    58   31   32 1   
    59   31   56 1   
    60   31   57 1   
    61   32   58 1   
    62   32   59 1   
@<TRIPOS>SUBSTRUCTURE
     1 P78         1 TEMP              0 ****  ****    0 ROOT
