@<TRIPOS>MOLECULE
P78
   60    62     1     0     0
SMALL
bcc


@<TRIPOS>ATOM
      1 C1         -0.2270    0.0800   -0.4780 c2        1 P78     -0.257000
      2 O1         -1.0000   -2.9400    6.1900 o         1 P78     -0.932000
      3 S1         -1.5410   -1.8650    5.4670 s6        1 P78      2.797000
      4 C2          6.3000   -1.9200    3.1950 c3        1 P78     -0.018000
      5 S2          1.1690    1.2340   -0.7740 ss        1 P78      0.315000
      6 C3          2.0850    0.6570    0.4510 c2        1 P78     -0.109000
      7 C4          1.3760   -0.5350    1.1710 c3        1 P78     -0.038000
      8 C5          0.0710   -0.6920    0.5290 c1        1 P78     -0.356000
      9 C6         -1.4000    0.2120   -1.3710 c3        1 P78      0.032000
     10 C7         -2.5660    0.8270   -0.6000 c3        1 P78     -0.200667
     11 C8         -1.0650    1.1040   -2.5620 c3        1 P78     -0.200667
     12 C9         -1.8130   -1.1660   -1.8800 c3        1 P78     -0.200667
     13 C10         1.2340   -0.2550    2.6560 c2        1 P78      0.357000
     14 C11         8.8440   -1.6700    1.4310 c2        1 P78      0.035000
     15 O11         1.1910    0.9070    3.1090 o         1 P78     -0.384000
     16 C12         8.2930   -2.7930    2.0870 c1        1 P78     -0.158000
     17 N12         3.2790    1.0030    0.9480 n2        1 P78     -0.328000
     18 C13         4.0190    2.0150    0.4270 c2        1 P78      0.313000
     19 C14         7.2930   -2.8750    2.7850 c1        1 P78     -0.136000
     20 O14         4.1250    2.6480   -0.6310 o         1 P78     -0.310000
     21 N15         5.1150    2.5100    1.4530 n4        1 P78     -0.053000
     22 C16         6.1490    1.5120    1.6970 c2        1 P78     -0.098000
     23 C17         7.4270    1.6850    1.0150 c2        1 P78     -0.158000
     24 C18         8.3440    0.6970    1.0580 c2        1 P78     -0.066000
     25 C19         8.0980   -0.5550    1.7430 c2        1 P78     -0.120000
     26 C20         6.9940   -0.5460    2.7940 c3        1 P78     -0.055000
     27 C21         5.9280    0.4460    2.5060 c2        1 P78     -0.073000
     28 N26         1.2000   -1.3260    3.5560 n         1 P78     -0.302000
     29 C27         1.0100   -1.0300    4.9610 c3        1 P78      0.017000
     30 C28        -0.4070   -0.6080    5.3530 c3        1 P78     -0.896000
     31 C31         0.4100   -3.2220    2.1900 c2        1 P78     -0.231000
     32 C32         1.1320   -2.6850    3.1820 c2        1 P78     -0.090000
     33 H2          6.0910   -1.9110    4.2930 hc        1 P78      0.122000
     34 H5          1.9960   -1.4610    0.9960 hc        1 P78      0.151000
     35 H7         -2.8140    0.1920    0.2830 hc        1 P78      0.074000
     36 H7A        -3.4640    0.9010   -1.2590 hc        1 P78      0.074000
     37 H7B        -2.2980    1.8490   -0.2420 hc        1 P78      0.074000
     38 H8         -1.9630    1.2240   -3.2140 hc        1 P78      0.074000
     39 H8A        -0.2420    0.6530   -3.1680 hc        1 P78      0.074000
     40 H8B        -0.7420    2.1170   -2.2140 hc        1 P78      0.074000
     41 H9         -0.9990   -1.6100   -2.4990 hc        1 P78      0.074000
     42 H9A        -2.7360   -1.0830   -2.5030 hc        1 P78      0.074000
     43 H9B        -2.0130   -1.8440   -1.0150 hc        1 P78      0.074000
     44 H11         9.3040    0.7970    0.5250 ha        1 P78      0.149000
     45 H12         9.6930   -1.6940    0.7410 ha        1 P78      0.164000
     46 HN12        4.9580    0.2780    3.0100 ha        1 P78      0.174000
     47 H14         5.3340   -2.0650    2.6450 hc        1 P78      0.122000
     48 HN15        4.6530    2.7420    2.3340 hn        1 P78      0.241500
     49 H17         5.5370    3.3520    1.0510 hn        1 P78      0.241500
     50 H18         7.6170    2.6140    0.4570 ha        1 P78      0.148000
     51 H21         7.5160   -0.2030    3.7430 hc        1 P78      0.125000
     52 H27         1.7040   -0.1820    5.2280 h1        1 P78      0.108500
     53 H27A        1.2960   -1.9370    5.5690 h1        1 P78      0.108500
     54 H28        -0.3220   -0.0940    6.3510 h1        1 P78      0.174500
     55 H28A       -0.7380    0.2040    4.6460 h1        1 P78      0.174500
     56 H31        -1.6090   -2.1620    4.2860 hs        1 P78     -0.474000
     57 H31A       -0.2370   -2.6360    1.5100 ha        1 P78      0.156500
     58 H32         0.4650   -4.3010    1.9960 ha        1 P78      0.156500
     59 H32A        1.7590   -3.3220    3.8400 h4        1 P78      0.126000
     60 O33        -2.7720   -1.3490    5.8960 o         1 P78     -0.932000
@<TRIPOS>BOND
     1    1    5 1   
     2    1    8 1   
     3    1    9 1   
     4    2    3 1   
     5    3   30 1   
     6    3   56 1   
     7    3   60 1   
     8    4   19 1   
     9    4   26 1   
    10    4   33 1   
    11    4   47 1   
    12    5    6 1   
    13    6    7 1   
    14    6   17 1   
    15    7    8 1   
    16    7   13 1   
    17    7   34 1   
    18    9   10 1   
    19    9   11 1   
    20    9   12 1   
    21   10   35 1   
    22   10   36 1   
    23   10   37 1   
    24   11   38 1   
    25   11   39 1   
    26   11   40 1   
    27   12   41 1   
    28   12   42 1   
    29   12   43 1   
    30   13   15 1   
    31   13   28 1   
    32   14   16 1   
    33   14   25 1   
    34   14   45 1   
    35   16   19 1   
    36   17   18 1   
    37   18   20 1   
    38   18   21 1   
    39   21   22 1   
    40   21   48 1   
    41   21   49 1   
    42   22   23 1   
    43   22   27 1   
    44   23   24 1   
    45   23   50 1   
    46   24   25 1   
    47   24   44 1   
    48   25   26 1   
    49   26   27 1   
    50   26   51 1   
    51   27   46 1   
    52   28   29 1   
    53   28   32 1   
    54   29   30 1   
    55   29   52 1   
    56   29   53 1   
    57   30   54 1   
    58   30   55 1   
    59   31   32 1   
    60   31   57 1   
    61   31   58 1   
    62   32   59 1   
@<TRIPOS>SUBSTRUCTURE
     1 P78         1 TEMP              0 ****  ****    0 ROOT
