@<TRIPOS>MOLECULE
P79
   63    66     1     0     0
SMALL
bcc


@<TRIPOS>ATOM
      1 C1         -0.0350    0.5080    0.2310 cc        1 P79     -0.279300
      2 C2          1.2790    0.0530    0.6520 cc        1 P79      0.352600
      3 N3         -0.0650   -0.4090    2.3090 na        1 P79      0.050400
      4 N4          1.2270   -0.4410    1.9160 nd        1 P79     -0.527800
      5 C5          2.5030    0.1280   -0.2080 c3        1 P79     -0.079300
      6 C6         -0.8810    0.2450    1.3220 cd        1 P79      0.049300
      7 C7         -0.4830   -0.6450    3.6660 c3        1 P79     -0.014700
      8 C8         -0.8190    0.6390    4.4470 c         1 P79      0.639100
      9 N9          0.1670    1.3960    5.0460 n         1 P79     -0.455800
     10 O10        -2.0170    0.9970    4.4880 o         1 P79     -0.625100
     11 C11        -3.1370    0.4260    0.4100 c         1 P79      0.781100
     12 N12        -4.5080    0.5080    0.7270 n         1 P79     -0.458100
     13 O13        -2.7190    0.2690   -0.7560 o         1 P79     -0.601100
     14 C14        -5.5120    0.7130   -0.2420 ca        1 P79      0.054600
     15 C15        -6.7130    1.3840    0.1770 ca        1 P79     -0.163000
     16 C16        -7.7520    1.5580   -0.6960 ca        1 P79     -0.095000
     17 C17        -7.6730    1.0910   -2.0360 ca        1 P79     -0.055000
     18 C18        -6.4910    0.4330   -2.4570 ca        1 P79     -0.016000
     19 C19        -5.4190    0.2470   -1.5460 ca        1 P79     -0.133000
     20 N20        -2.2340    0.5140    1.4960 n         1 P79     -0.470100
     21 C21         2.7360    1.5840   -0.6000 c3        1 P79     -0.085100
     22 C22         3.7390   -0.3970    0.5100 c3        1 P79     -0.085100
     23 C23         2.2660   -0.7040   -1.4640 c3        1 P79     -0.085100
     24 C24        -8.7400    1.2670   -2.9570 ca        1 P79     -0.113000
     25 C25        -8.6290    0.8040   -4.2450 ca        1 P79     -0.131000
     26 C26        -7.4490    0.1470   -4.6690 ca        1 P79     -0.124000
     27 C27        -6.4030   -0.0350   -3.7980 ca        1 P79     -0.117000
     28 C28        -0.1890    2.5480    5.8510 c3        1 P79      0.113500
     29 C29         0.0900    2.3550    7.3400 c3        1 P79     -0.350600
     30 S30         1.6910    1.9120    7.7310 s6        1 P79      1.330000
     31 C31         1.9530    0.6560    6.6010 c3        1 P79     -0.350600
     32 C32         1.5470    0.9880    5.1660 c3        1 P79      0.113500
     33 O33         1.7060    1.3640    9.0190 o         1 P79     -0.645300
     34 O34         2.5590    2.9760    7.4630 o         1 P79     -0.645300
     35 H1         -0.3160    0.9300   -0.7290 ha        1 P79      0.192000
     36 H7          0.2890   -1.2580    4.2110 h1        1 P79      0.093200
     37 H7A        -1.4410   -1.2460    3.6280 h1        1 P79      0.093200
     38 HN12       -4.7570    0.7950    1.6490 hn        1 P79      0.314500
     39 H15        -6.7980    1.7580    1.2090 ha        1 P79      0.130000
     40 H16        -8.6710    2.0710   -0.3710 ha        1 P79      0.135000
     41 H19        -4.5120   -0.2660   -1.9080 ha        1 P79      0.172000
     42 HN20       -2.5750    0.5810    2.4330 hn        1 P79      0.343500
     43 H21         1.8410    1.9930   -1.1260 hc        1 P79      0.039922
     44 H21A        3.6180    1.6550   -1.2810 hc        1 P79      0.039922
     45 H21B        2.9330    2.2040    0.3070 hc        1 P79      0.039922
     46 H22         3.9430    0.2010    1.4300 hc        1 P79      0.039922
     47 H22A        3.6010   -1.4660    0.7990 hc        1 P79      0.039922
     48 H22B        4.6250   -0.3230   -0.1660 hc        1 P79      0.039922
     49 H23         1.3590   -0.3410   -2.0050 hc        1 P79      0.039922
     50 H23A        3.1480   -0.6220   -2.1440 hc        1 P79      0.039922
     51 H23B        2.1170   -1.7770   -1.1960 hc        1 P79      0.039922
     52 H24        -9.6520    1.7800   -2.6170 ha        1 P79      0.131000
     53 H25        -9.4530    0.9380   -4.9620 ha        1 P79      0.132000
     54 H26        -7.3830   -0.2140   -5.7060 ha        1 P79      0.133000
     55 H27        -5.4810   -0.5430   -4.1190 ha        1 P79      0.139000
     56 H28         0.4140    3.4280    5.4810 h1        1 P79      0.085200
     57 H28A       -1.2820    2.7840    5.7050 h1        1 P79      0.085200
     58 H29        -0.1690    3.3290    7.8390 h1        1 P79      0.127450
     59 H29A       -0.6440    1.6130    7.7550 h1        1 P79      0.127450
     60 H31         3.0470    0.3950    6.5700 h1        1 P79      0.127450
     61 H31A        1.4380   -0.2870    6.9260 h1        1 P79      0.127450
     62 H32         2.1900    1.8460    4.8040 h1        1 P79      0.085200
     63 H32A        1.7660    0.1050    4.5070 h1        1 P79      0.085200
@<TRIPOS>BOND
     1    1    2 1   
     2    1    6 2   
     3    1   35 1   
     4    2    4 2   
     5    2    5 1   
     6    3    4 1   
     7    3    6 1   
     8    3    7 1   
     9    5   21 1   
    10    5   22 1   
    11    5   23 1   
    12    6   20 1   
    13    7    8 1   
    14    7   36 1   
    15    7   37 1   
    16    8    9 1   
    17    8   10 2   
    18    9   28 1   
    19    9   32 1   
    20   11   12 1   
    21   11   13 2   
    22   11   20 1   
    23   12   14 1   
    24   12   38 1   
    25   14   15 ar  
    26   14   19 ar  
    27   15   16 ar  
    28   15   39 1   
    29   16   17 ar  
    30   16   40 1   
    31   17   18 ar  
    32   17   24 ar  
    33   18   19 ar  
    34   18   27 ar  
    35   19   41 1   
    36   20   42 1   
    37   21   43 1   
    38   21   44 1   
    39   21   45 1   
    40   22   46 1   
    41   22   47 1   
    42   22   48 1   
    43   23   49 1   
    44   23   50 1   
    45   23   51 1   
    46   24   25 ar  
    47   24   52 1   
    48   25   26 ar  
    49   25   53 1   
    50   26   27 ar  
    51   26   54 1   
    52   27   55 1   
    53   28   29 1   
    54   28   56 1   
    55   28   57 1   
    56   29   30 1   
    57   29   58 1   
    58   29   59 1   
    59   30   31 1   
    60   30   33 2   
    61   30   34 2   
    62   31   32 1   
    63   31   60 1   
    64   31   61 1   
    65   32   62 1   
    66   32   63 1   
@<TRIPOS>SUBSTRUCTURE
     1 P79         1 TEMP              0 ****  ****    0 ROOT
