@<TRIPOS>MOLECULE
P79
   63    66     1     0     0
SMALL
bcc


@<TRIPOS>ATOM
      1 C1         -0.0300    0.5350    0.2330 cc        1 P79     -0.279300
      2 C2          1.2860    0.0860    0.6520 cc        1 P79      0.352600
      3 N3         -0.0580   -0.4090    2.2990 na        1 P79      0.050400
      4 N4          1.2340   -0.4250    1.9090 nd        1 P79     -0.527800
      5 C5          2.5120    0.1810   -0.2040 c3        1 P79     -0.079300
      6 C6         -0.8770    0.2510    1.3180 cd        1 P79      0.049300
      7 C7         -0.4780   -0.6650    3.6510 c3        1 P79     -0.014700
      8 C8         -0.8270    0.6070    4.4480 c         1 P79      0.639100
      9 N9          0.1520    1.3640    5.0590 n         1 P79     -0.455800
     10 O10        -2.0270    0.9560    4.4890 o         1 P79     -0.625100
     11 C11        -3.1320    0.4240    0.4020 c         1 P79      0.781100
     12 N12        -4.5040    0.4920    0.7150 ns        1 P79     -0.458100
     13 O13        -2.7090    0.2850   -0.7650 o         1 P79     -0.601100
     14 C14        -5.5080    0.7000   -0.2530 ca        1 P79      0.054600
     15 C15        -6.7150    1.3550    0.1710 ca        1 P79     -0.163000
     16 C16        -7.7540    1.5320   -0.7030 ca        1 P79     -0.095000
     17 C17        -7.6670    1.0830   -2.0480 ca        1 P79     -0.055000
     18 C18        -6.4790    0.4400   -2.4740 ca        1 P79     -0.016000
     19 C19        -5.4070    0.2510   -1.5630 ca        1 P79     -0.133000
     20 N20        -2.2320    0.5070    1.4910 ns        1 P79     -0.470100
     21 C21         2.7330    1.6430   -0.5790 c3        1 P79     -0.085100
     22 C22         3.7510   -0.3410    0.5120 c3        1 P79     -0.085100
     23 C23         2.2860   -0.6390   -1.4700 c3        1 P79     -0.085100
     24 C24        -8.7330    1.2610   -2.9700 ca        1 P79     -0.113000
     25 C25        -8.6150    0.8160   -4.2640 ca        1 P79     -0.131000
     26 C26        -7.4280    0.1740   -4.6930 ca        1 P79     -0.124000
     27 C27        -6.3830   -0.0110   -3.8210 ca        1 P79     -0.117000
     28 C28        -0.2150    2.5030    5.8770 c3        1 P79      0.113500
     29 C29         0.0610    2.2940    7.3640 c3        1 P79     -0.350600
     30 S30         1.6640    1.8590    7.7550 s6        1 P79      1.330000
     31 C31         1.9390    0.6190    6.6100 c3        1 P79     -0.350600
     32 C32         1.5350    0.9650    5.1780 c3        1 P79      0.113500
     33 O33         1.6800    1.2950    9.0360 o         1 P79     -0.645300
     34 O34         2.5250    2.9320    7.5020 o         1 P79     -0.645300
     35 H1         -0.3130    0.9660   -0.7230 ha        1 P79      0.192000
     36 H7          0.2970   -1.2770    4.1920 h1        1 P79      0.093200
     37 H7A        -1.4310   -1.2720    3.6030 h1        1 P79      0.093200
     38 HN12       -4.7590    0.7650    1.6400 hn        1 P79      0.314500
     39 H15        -6.8060    1.7150    1.2070 ha        1 P79      0.130000
     40 H16        -8.6780    2.0330   -0.3740 ha        1 P79      0.135000
     41 H19        -4.4950   -0.2500   -1.9290 ha        1 P79      0.172000
     42 HN20       -2.5760    0.5590    2.4280 hn        1 P79      0.343500
     43 H21         2.9220    2.2550    0.3360 hc        1 P79      0.039922
     44 H21A        3.6160    1.7300   -1.2570 hc        1 P79      0.039922
     45 H21B        1.8350    2.0500   -1.1030 hc        1 P79      0.039922
     46 H22         3.9460    0.2480    1.4390 hc        1 P79      0.039922
     47 H22A        4.6380   -0.2510   -0.1610 hc        1 P79      0.039922
     48 H22B        3.6210   -1.4140    0.7880 hc        1 P79      0.039922
     49 H23         1.3770   -0.2780   -2.0090 hc        1 P79      0.039922
     50 H23A        2.1460   -1.7160   -1.2150 hc        1 P79      0.039922
     51 H23B        3.1690   -0.5420   -2.1460 hc        1 P79      0.039922
     52 H24        -9.6500    1.7620   -2.6270 ha        1 P79      0.131000
     53 H25        -9.4370    0.9520   -4.9820 ha        1 P79      0.132000
     54 H26        -7.3560   -0.1730   -5.7340 ha        1 P79      0.133000
     55 H27        -5.4550   -0.5070   -4.1460 ha        1 P79      0.139000
     56 H28         0.3830    3.3930    5.5200 h1        1 P79      0.085200
     57 H28A       -1.3090    2.7320    5.7310 h1        1 P79      0.085200
     58 H29        -0.6680    1.5410    7.7680 h1        1 P79      0.127450
     59 H29A       -0.2070    3.2600    7.8750 h1        1 P79      0.127450
     60 H31         3.0350    0.3670    6.5790 h1        1 P79      0.127450
     61 H31A        1.4300   -0.3320    6.9210 h1        1 P79      0.127450
     62 H32         2.1730    1.8330    4.8290 h1        1 P79      0.085200
     63 H32A        1.7630    0.0920    4.5080 h1        1 P79      0.085200
@<TRIPOS>BOND
     1    1    2 1   
     2    1    6 2   
     3    1   35 1   
     4    2    4 2   
     5    2    5 1   
     6    3    4 1   
     7    3    6 1   
     8    3    7 1   
     9    5   21 1   
    10    5   22 1   
    11    5   23 1   
    12    6   20 1   
    13    7    8 1   
    14    7   36 1   
    15    7   37 1   
    16    8    9 1   
    17    8   10 2   
    18    9   28 1   
    19    9   32 1   
    20   11   12 1   
    21   11   13 2   
    22   11   20 1   
    23   12   14 1   
    24   12   38 1   
    25   14   15 ar  
    26   14   19 ar  
    27   15   16 ar  
    28   15   39 1   
    29   16   17 ar  
    30   16   40 1   
    31   17   18 ar  
    32   17   24 ar  
    33   18   19 ar  
    34   18   27 ar  
    35   19   41 1   
    36   20   42 1   
    37   21   43 1   
    38   21   44 1   
    39   21   45 1   
    40   22   46 1   
    41   22   47 1   
    42   22   48 1   
    43   23   49 1   
    44   23   50 1   
    45   23   51 1   
    46   24   25 ar  
    47   24   52 1   
    48   25   26 ar  
    49   25   53 1   
    50   26   27 ar  
    51   26   54 1   
    52   27   55 1   
    53   28   29 1   
    54   28   56 1   
    55   28   57 1   
    56   29   30 1   
    57   29   58 1   
    58   29   59 1   
    59   30   31 1   
    60   30   33 2   
    61   30   34 2   
    62   31   32 1   
    63   31   60 1   
    64   31   61 1   
    65   32   62 1   
    66   32   63 1   
@<TRIPOS>SUBSTRUCTURE
     1 P79         1 TEMP              0 ****  ****    0 ROOT
