@<TRIPOS>MOLECULE
P79
   63    56     1     0     0
SMALL
bcc


@<TRIPOS>ATOM
      1 C1          0.9850    0.5430   -1.9320 c1        1 P79     -0.227000
      2 C2          2.3390    0.7990   -2.0170 c1        1 P79      0.006000
      3 N3          1.7520    0.7960    0.1200 n2        1 P79     -0.130000
      4 N4          2.8120    0.9540   -0.7620 n2        1 P79     -0.130000
      5 C5          3.1870    0.7910   -3.3140 c2        1 P79      0.015000
      6 C6          0.6370    0.5450   -0.6050 c1        1 P79      0.006000
      7 C7          1.8310    0.8480    1.5640 c2        1 P79     -0.021000
      8 C8          3.0160   -0.0310    2.0560 c2        1 P79      0.282000
      9 N9          3.2430   -0.2260    3.5190 n         1 P79     -0.314000
     10 O10         3.7990   -0.5020    1.2510 o         1 P79     -0.385000
     11 C11        -1.7860    0.1750   -0.9810 c1        1 P79      0.414000
     12 N12        -3.0900   -0.1440   -0.4620 n2        1 P79     -0.316000
     13 O13        -1.5940    0.1680   -2.1850 o         1 P79     -0.363000
     14 C14        -4.1770   -0.4760   -1.3800 c2        1 P79      0.067000
     15 C15        -4.5290   -1.4310   -0.4270 c2        1 P79     -0.164000
     16 C16        -5.8300   -1.9640   -0.4120 c1        1 P79     -0.094000
     17 C17        -6.7800   -1.5320   -1.3620 c1        1 P79     -0.035500
     18 C18        -6.4320   -0.5860   -2.3060 c1        1 P79     -0.035500
     19 C19        -5.1170   -0.0480   -2.3210 c1        1 P79     -0.136000
     20 N20        -0.6810    0.3650   -0.0830 n2        1 P79     -0.326000
     21 C21         3.0670   -0.5610   -3.9880 c3        1 P79     -0.202667
     22 C22         2.6900    1.8570   -4.2480 c3        1 P79     -0.202667
     23 C23         4.6380    1.0600   -2.9700 c3        1 P79     -0.202667
     24 C24        -8.0930   -2.0680   -1.3480 c1        1 P79     -0.115500
     25 C25        -9.0340   -1.6410   -2.2870 c1        1 P79     -0.127000
     26 C26        -8.6830   -0.6830   -3.2420 c1        1 P79     -0.127000
     27 C27        -7.3900   -0.1530   -3.2600 c1        1 P79     -0.115500
     28 C28         4.4320   -1.0020    4.0490 c3        1 P79     -0.007000
     29 C29         5.2680   -0.2520    5.0890 c3        1 P79     -0.890000
     30 S30         4.2540    0.3080    6.3210 s4        1 P79      2.027800
     31 C31         2.9740    1.1860    5.6360 c2        1 P79     -0.892000
     32 C32         2.2990    0.3390    4.5620 c3        1 P79      0.002000
     33 O33         3.7500   -0.7910    7.0930 o         1 P79     -0.534400
     34 O34         5.0060    1.1820    7.1780 o         1 P79     -0.534400
     35 H1          0.3810    0.3890   -2.6820 DU        1 P79      0.195000
     36 H7          0.9920    0.5110    1.9490 ha        1 P79      0.135000
     37 H7A         1.9720    1.7750    1.8500 ha        1 P79      0.135000
     38 HN12       -3.2590   -0.0550    0.4330 hn        1 P79      0.230000
     39 H15        -3.8820   -1.7040    0.2550 ha        1 P79      0.130000
     40 H16        -6.0750   -2.6280    0.2510 ha        1 P79      0.135000
     41 H19        -4.8790    0.6480   -2.9710 ha        1 P79      0.173000
     42 HN20       -0.8220    0.3780    0.8220 hn        1 P79      0.258000
     43 H21         3.6940   -0.6080   -4.7410 hc        1 P79      0.079222
     44 H21A        3.2790   -1.2710   -3.3400 hc        1 P79      0.079222
     45 H21B        2.1510   -0.6820   -4.3170 hc        1 P79      0.079222
     46 H22         2.5550    2.6960   -3.7480 hc        1 P79      0.079222
     47 H22A        3.3470    2.0010   -4.9560 hc        1 P79      0.079222
     48 H22B        1.8400    1.5730   -4.6450 hc        1 P79      0.079222
     49 H23         5.2120    0.8350   -3.7500 hc        1 P79      0.079222
     50 H23A        4.8970    0.5150   -2.2090 hc        1 P79      0.079222
     51 H23B        4.7500    2.0070   -2.7460 hc        1 P79      0.079222
     52 H24        -8.3400   -2.7390   -0.6780 ha        1 P79      0.134500
     53 H25        -9.9420   -2.0120   -2.2750 ha        1 P79      0.132500
     54 H26        -9.3450   -0.3830   -3.9020 ha        1 P79      0.132500
     55 H27        -7.1500    0.5070   -3.9200 ha        1 P79      0.134500
     56 H28         5.0110   -1.2350    3.2960 h1        1 P79      0.124000
     57 H28A        4.1010   -1.8360    4.4590 h1        1 P79      0.124000
     58 H29         5.8920    0.4340    4.7500 h1        1 P79      0.168500
     59 H29A        5.9070   -0.8970    5.4690 h1        1 P79      0.168500
     60 H31         3.1300    2.1010    5.3020 ha        1 P79      0.172500
     61 H31A        2.3510    1.3750    6.3860 ha        1 P79      0.172500
     62 H32         1.8360   -0.4110    5.0030 h1        1 P79      0.118000
     63 H32A        1.6340    0.8890    4.1100 h1        1 P79      0.118000
@<TRIPOS>BOND
     1    1    2 1   
     2    1    6 1   
     3    2    4 1   
     4    3    4 1   
     5    3    6 1   
     6    5   21 1   
     7    5   22 1   
     8    5   23 1   
     9    7    8 1   
    10    7   36 1   
    11    7   37 1   
    12    8    9 1   
    13    8   10 1   
    14    9   28 1   
    15    9   32 1   
    16   11   13 1   
    17   11   20 1   
    18   12   14 1   
    19   12   38 1   
    20   14   15 1   
    21   14   19 1   
    22   15   16 1   
    23   15   39 1   
    24   16   40 1   
    25   17   18 1   
    26   17   24 1   
    27   18   27 1   
    28   19   41 1   
    29   20   42 1   
    30   21   43 1   
    31   21   44 1   
    32   21   45 1   
    33   22   46 1   
    34   22   47 1   
    35   22   48 1   
    36   23   49 1   
    37   23   50 1   
    38   23   51 1   
    39   24   52 1   
    40   25   26 1   
    41   25   53 1   
    42   26   54 1   
    43   27   55 1   
    44   28   29 1   
    45   28   56 1   
    46   28   57 1   
    47   29   30 1   
    48   29   58 1   
    49   29   59 1   
    50   30   33 1   
    51   30   34 1   
    52   31   32 1   
    53   31   60 1   
    54   31   61 1   
    55   32   62 1   
    56   32   63 1   
@<TRIPOS>SUBSTRUCTURE
     1 P79         1 TEMP              0 ****  ****    0 ROOT
