@<TRIPOS>MOLECULE
P79
   63    66     1     0     0
SMALL
bcc


@<TRIPOS>ATOM
      1 C1         -0.4570   -2.3530   -0.1140 cc        1 P79     -0.279300
      2 C2          0.5980   -3.2480    0.3290 cc        1 P79      0.352600
      3 N3          1.0770   -1.2990    1.1880 na        1 P79      0.050400
      4 N4          1.5190   -2.5690    1.0610 nd        1 P79     -0.527800
      5 C5          0.6390   -4.7110    0.0120 c3        1 P79     -0.079300
      6 C6         -0.1140   -1.0940    0.4090 cd        1 P79      0.049300
      7 C7          1.8880   -0.2300    1.7080 c3        1 P79     -0.014700
      8 C8          2.4690    0.6970    0.6230 c         1 P79      0.639100
      9 N9          3.6190    0.3670   -0.0650 n         1 P79     -0.455800
     10 O10         1.8400    1.7450    0.3560 o         1 P79     -0.625100
     11 C11        -2.1490    0.2370    0.1990 c         1 P79      0.781100
     12 N12        -2.6920    1.5350    0.2670 n         1 P79     -0.458100
     13 O13        -2.8540   -0.7890    0.1000 o         1 P79     -0.601100
     14 C14        -4.0330    1.8280   -0.0570 ca        1 P79      0.054600
     15 C15        -4.3240    3.1450   -0.5560 ca        1 P79     -0.163000
     16 C16        -5.6120    3.5160   -0.8300 ca        1 P79     -0.095000
     17 C17        -6.6930    2.6140   -0.6380 ca        1 P79     -0.055000
     18 C18        -6.4140    1.3130   -0.1510 ca        1 P79     -0.016000
     19 C19        -5.0770    0.9350    0.1400 ca        1 P79     -0.133000
     20 N20        -0.7380    0.1400    0.2650 n         1 P79     -0.470100
     21 C21         0.6350   -4.8820   -1.5040 c3        1 P79     -0.085100
     22 C22         1.8790   -5.3850    0.5850 c3        1 P79     -0.085100
     23 C23        -0.6040   -5.3710    0.6010 c3        1 P79     -0.085100
     24 C24        -8.0360    2.9790   -0.9210 ca        1 P79     -0.113000
     25 C25        -9.0570    2.0820   -0.7250 ca        1 P79     -0.131000
     26 C26        -8.7810    0.7810   -0.2400 ca        1 P79     -0.124000
     27 C27        -7.4910    0.4020    0.0410 ca        1 P79     -0.117000
     28 C28         4.1910    1.3010   -1.0140 c3        1 P79      0.113500
     29 C29         5.5230    1.8910   -0.5550 c3        1 P79     -0.350600
     30 S30         6.7240    0.7500   -0.1470 s6        1 P79      1.330000
     31 C31         5.8250   -0.3100    0.8470 c3        1 P79     -0.350600
     32 C32         4.4780   -0.7440    0.2700 c3        1 P79      0.113500
     33 O33         7.6980    1.3800    0.6370 o         1 P79     -0.645300
     34 O34         7.1480    0.0730   -1.2960 o         1 P79     -0.645300
     35 H1         -1.3400   -2.6020   -0.6940 ha        1 P79      0.192000
     36 H7          1.2230    0.4220    2.3490 h1        1 P79      0.093200
     37 H7A         2.7050   -0.6420    2.3640 h1        1 P79      0.093200
     38 HN12       -2.0670    2.3070    0.1810 hn        1 P79      0.314500
     39 H15        -3.5030    3.8620   -0.7160 ha        1 P79      0.130000
     40 H16        -5.8300    4.5260   -1.2100 ha        1 P79      0.135000
     41 H19        -4.8940   -0.0870    0.5140 ha        1 P79      0.172000
     42 HN20       -0.1810    0.9580    0.4030 hn        1 P79      0.343500
     43 H21         1.5500   -4.4230   -1.9500 hc        1 P79      0.039922
     44 H21A        0.6170   -5.9680   -1.7610 hc        1 P79      0.039922
     45 H21B       -0.2650   -4.3920   -1.9480 hc        1 P79      0.039922
     46 H22         1.9020   -5.2860    1.6960 hc        1 P79      0.039922
     47 H22A        1.8680   -6.4710    0.3240 hc        1 P79      0.039922
     48 H22B        2.8050   -4.9280    0.1630 hc        1 P79      0.039922
     49 H23        -1.5270   -4.8870    0.2000 hc        1 P79      0.039922
     50 H23A       -0.6190   -6.4550    0.3330 hc        1 P79      0.039922
     51 H23B       -0.6040   -5.2760    1.7130 hc        1 P79      0.039922
     52 H24        -8.2390    3.9930   -1.2990 ha        1 P79      0.131000
     53 H25       -10.0990    2.3600   -0.9430 ha        1 P79      0.132000
     54 H26        -9.6140    0.0780   -0.0920 ha        1 P79      0.133000
     55 H27        -7.2660   -0.6070    0.4170 ha        1 P79      0.139000
     56 H28         4.3560    0.7500   -1.9860 h1        1 P79      0.085200
     57 H28A        3.4600    2.1380   -1.2040 h1        1 P79      0.085200
     58 H29         5.8870    2.5440   -1.3960 h1        1 P79      0.127450
     59 H29A        5.3340    2.5970    0.2980 h1        1 P79      0.127450
     60 H31         6.4120   -1.2530    1.0270 h1        1 P79      0.127450
     61 H31A        5.6680    0.1350    1.8660 h1        1 P79      0.127450
     62 H32         3.9740   -1.4420    0.9930 h1        1 P79      0.085200
     63 H32A        4.6700   -1.3270   -0.6810 h1        1 P79      0.085200
@<TRIPOS>BOND
     1    1    2 1   
     2    1    6 2   
     3    1   35 1   
     4    2    4 2   
     5    2    5 1   
     6    3    4 1   
     7    3    6 1   
     8    3    7 1   
     9    5   21 1   
    10    5   22 1   
    11    5   23 1   
    12    6   20 1   
    13    7    8 1   
    14    7   36 1   
    15    7   37 1   
    16    8    9 1   
    17    8   10 2   
    18    9   28 1   
    19    9   32 1   
    20   11   12 1   
    21   11   13 2   
    22   11   20 1   
    23   12   14 1   
    24   12   38 1   
    25   14   15 ar  
    26   14   19 ar  
    27   15   16 ar  
    28   15   39 1   
    29   16   17 ar  
    30   16   40 1   
    31   17   18 ar  
    32   17   24 ar  
    33   18   19 ar  
    34   18   27 ar  
    35   19   41 1   
    36   20   42 1   
    37   21   43 1   
    38   21   44 1   
    39   21   45 1   
    40   22   46 1   
    41   22   47 1   
    42   22   48 1   
    43   23   49 1   
    44   23   50 1   
    45   23   51 1   
    46   24   25 ar  
    47   24   52 1   
    48   25   26 ar  
    49   25   53 1   
    50   26   27 ar  
    51   26   54 1   
    52   27   55 1   
    53   28   29 1   
    54   28   56 1   
    55   28   57 1   
    56   29   30 1   
    57   29   58 1   
    58   29   59 1   
    59   30   31 1   
    60   30   33 2   
    61   30   34 2   
    62   31   32 1   
    63   31   60 1   
    64   31   61 1   
    65   32   62 1   
    66   32   63 1   
@<TRIPOS>SUBSTRUCTURE
     1 P79         1 TEMP              0 ****  ****    0 ROOT
