@<TRIPOS>MOLECULE
P79
   65    68     1     0     0
SMALL
bcc


@<TRIPOS>ATOM
      1 C1         -0.0290   -0.2710   -0.2580 cc        1 P79     -0.175300
      2 C2          1.3960   -0.4950   -0.2260 cc        1 P79      0.369600
      3 N3          0.8690    0.1970    1.7900 na        1 P79      0.141400
      4 N4          1.8840   -0.1860    1.0190 nd        1 P79     -0.400800
      5 C5          2.2460   -0.9860   -1.3620 c3        1 P79     -0.084300
      6 C6         -0.3430    0.1950    1.0430 cd        1 P79     -0.145700
      7 C7          1.0300    0.6360    3.1630 c3        1 P79     -0.034700
      8 C8          0.4490    2.0290    3.4480 c         1 P79      0.640100
      9 N9          0.4080    2.4760    4.7630 n         1 P79     -0.455800
     10 O10         0.0100    2.7490    2.5240 o         1 P79     -0.607100
     11 C11        -2.3000   -0.3790    2.3920 c         1 P79      0.539100
     12 N12        -3.7950   -0.3150    2.4960 n4        1 P79     -0.490200
     13 O13        -1.6770   -1.2150    3.0260 o         1 P79     -0.354100
     14 C14        -4.4520    0.0170    1.2320 ca        1 P79     -0.148400
     15 C15        -4.3770   -0.9260    0.1600 ca        1 P79     -0.174000
     16 C16        -5.0600   -0.6710   -1.0010 ca        1 P79     -0.047000
     17 C17        -5.8380    0.5120   -1.1570 ca        1 P79     -0.005000
     18 C18        -5.9080    1.4430   -0.0800 ca        1 P79     -0.055000
     19 C19        -5.2100    1.1750    1.1230 ca        1 P79     -0.033000
     20 N20        -1.6320    0.6380    1.5170 n4        1 P79     -0.452200
     21 C21         3.3060    0.0610   -1.6900 c3        1 P79     -0.096100
     22 C22         2.9240   -2.2920   -0.9600 c3        1 P79     -0.096100
     23 C23         1.3760   -1.2260   -2.5890 c3        1 P79     -0.096100
     24 C24        -6.5560    0.7760   -2.3490 ca        1 P79     -0.120000
     25 C25        -7.3170    1.9200   -2.4620 ca        1 P79     -0.055000
     26 C26        -7.3870    2.8460   -1.3940 ca        1 P79     -0.083000
     27 C27        -6.6970    2.6170   -0.2250 ca        1 P79     -0.107000
     28 C28        -0.3090    3.7070    5.0560 c3        1 P79      0.107000
     29 C29        -1.7610    3.4380    5.4960 c3        1 P79     -0.369600
     30 S30        -2.2500    1.8250    5.5430 s6        1 P79      1.343000
     31 C31        -0.9330    1.0650    6.2920 c3        1 P79     -0.369600
     32 C32         0.4650    1.5680    5.8890 c3        1 P79      0.107000
     33 O33        -2.3370    1.3100    4.1850 o         1 P79     -0.711300
     34 O34        -3.4450    1.6310    6.2230 o         1 P79     -0.711300
     35 H1         -0.6930   -0.4220   -1.1060 ha        1 P79      0.198000
     36 H7          2.1350    0.6510    3.4210 h1        1 P79      0.127200
     37 H7A         0.5080   -0.1300    3.8130 h1        1 P79      0.127200
     38 HN12       -4.0150    0.3960    3.2260 hn        1 P79      0.507800
     39 H15        -3.8110   -1.8640    0.2740 ha        1 P79      0.157000
     40 H16        -5.0260   -1.3950   -1.8350 ha        1 P79      0.182000
     41 H19        -5.3060    1.8980    1.9530 ha        1 P79      0.161000
     42 HN20       -1.5310    1.5160    2.0930 hn        1 P79      0.518800
     43 H21         3.9090   -0.2850   -2.5650 hc        1 P79      0.053922
     44 H21A        2.8290    1.0350   -1.9500 hc        1 P79      0.053922
     45 H21B        3.9940    0.2130   -0.8250 hc        1 P79      0.053922
     46 H22         2.1650   -3.0610   -0.6840 hc        1 P79      0.053922
     47 H22A        3.6120   -2.1310   -0.0960 hc        1 P79      0.053922
     48 H22B        3.5240   -2.6770   -1.8210 hc        1 P79      0.053922
     49 H23         0.5990   -1.9980   -2.3790 hc        1 P79      0.053922
     50 H23A        2.0170   -1.5910   -3.4290 hc        1 P79      0.053922
     51 H23B        0.8790   -0.2800   -2.9130 hc        1 P79      0.053922
     52 H24        -6.5040    0.0510   -3.1790 ha        1 P79      0.169000
     53 H25        -7.8830    2.1250   -3.3890 ha        1 P79      0.178000
     54 H26        -8.0060    3.7530   -1.5090 ha        1 P79      0.177000
     55 H27        -6.7550    3.3330    0.6100 ha        1 P79      0.156000
     56 H28        -0.2990    4.3760    4.1470 h1        1 P79      0.107950
     57 H28A        0.2440    4.2400    5.8810 h1        1 P79      0.107950
     58 H29        -1.9020    3.9370    6.5000 h1        1 P79      0.157700
     59 H29A       -2.4290    4.0360    4.8120 h1        1 P79      0.157700
     60 H31        -0.9670   -0.0460    6.1050 h1        1 P79      0.157700
     61 H31A       -1.0010    1.1430    7.4170 h1        1 P79      0.157700
     62 H32         1.1440    0.6980    5.6710 h1        1 P79      0.107950
     63 H32A        0.9240    2.1290    6.7570 h1        1 P79      0.107950
     64 H122       -4.1250   -1.2430    2.8220 hn        1 P79      0.507800
     65 H202       -2.2140    0.8400    0.6850 hn        1 P79      0.518800
@<TRIPOS>BOND
     1    1    2 1   
     2    1    6 2   
     3    1   35 1   
     4    2    4 2   
     5    2    5 1   
     6    3    4 1   
     7    3    6 1   
     8    3    7 1   
     9    5   21 1   
    10    5   22 1   
    11    5   23 1   
    12    6   20 1   
    13    7    8 1   
    14    7   36 1   
    15    7   37 1   
    16    8    9 1   
    17    8   10 2   
    18    9   28 1   
    19    9   32 1   
    20   11   12 1   
    21   11   13 2   
    22   11   20 1   
    23   12   14 1   
    24   12   38 1   
    25   12   64 1   
    26   14   15 ar  
    27   14   19 ar  
    28   15   16 ar  
    29   15   39 1   
    30   16   17 ar  
    31   16   40 1   
    32   17   18 ar  
    33   17   24 ar  
    34   18   19 ar  
    35   18   27 ar  
    36   19   41 1   
    37   20   42 1   
    38   20   65 1   
    39   21   43 1   
    40   21   44 1   
    41   21   45 1   
    42   22   46 1   
    43   22   47 1   
    44   22   48 1   
    45   23   49 1   
    46   23   50 1   
    47   23   51 1   
    48   24   25 ar  
    49   24   52 1   
    50   25   26 ar  
    51   25   53 1   
    52   26   27 ar  
    53   26   54 1   
    54   27   55 1   
    55   28   29 1   
    56   28   56 1   
    57   28   57 1   
    58   29   30 1   
    59   29   58 1   
    60   29   59 1   
    61   30   31 1   
    62   30   33 2   
    63   30   34 2   
    64   31   32 1   
    65   31   60 1   
    66   31   61 1   
    67   32   62 1   
    68   32   63 1   
@<TRIPOS>SUBSTRUCTURE
     1 P79         1 TEMP              0 ****  ****    0 ROOT
