@<TRIPOS>MOLECULE
P7A
   58    52     1     0     0
SMALL
bcc


@<TRIPOS>ATOM
      1 C1         -0.0760    0.1620    1.5180 c1        1 P7A      0.396000
      2 N1         -1.9760    0.3790   -2.2620 n3        1 P7A     -0.207000
      3 O1          0.9670    0.7780    1.4430 o         1 P7A     -0.369000
      4 S1          0.4890    0.0250   -3.2620 ss        1 P7A      0.500000
      5 C2         -0.6040    0.0480   -2.1600 c2        1 P7A     -0.365000
      6 N2         -0.6980   -0.0320    2.7800 n2        1 P7A     -0.321000
      7 O2         -5.6980    1.6340   -4.0170 o         1 P7A     -0.929000
      8 S2         -4.3010    1.3050   -3.9460 ss        1 P7A      2.807000
      9 C3         -0.1000    0.4960    3.9520 c2        1 P7A      0.069000
     10 O3         -3.7010    1.4840   -5.2380 o         1 P7A     -0.929000
     11 C4         -0.1210   -0.3270    5.0940 c1        1 P7A     -0.052000
     12 C5          0.5150    0.0770    6.2440 c1        1 P7A     -0.023000
     13 C6          1.1870    1.3140    6.2790 c1        1 P7A     -0.125000
     14 C7          1.2080    2.1250    5.1520 c1        1 P7A     -0.108000
     15 C8          0.5640    1.7150    3.9870 c2        1 P7A     -0.129000
     16 N9         -0.6360   -0.4290    0.3550 n3        1 P7A     -0.293000
     17 C10         0.0260   -0.2970   -0.8990 c2        1 P7A      0.080000
     18 C13         1.8310   -0.3590   -2.5830 c1        1 P7A     -0.320000
     19 C14         1.5740   -0.5560   -1.1670 c1        1 P7A     -0.159000
     20 C16         3.1440   -0.6250   -3.2950 c2        1 P7A      0.008000
     21 C17         3.5670   -2.0530   -3.0520 c3        1 P7A     -0.207333
     22 C18         2.9670   -0.3960   -4.7840 c3        1 P7A     -0.207333
     23 C19         4.2050    0.3130   -2.7630 c3        1 P7A     -0.207333
     24 C20        -2.6600   -0.5870   -3.2100 c3        1 P7A     -0.034500
     25 C21        -4.1270   -0.2920   -3.4650 c2        1 P7A     -0.863000
     26 C23        -3.5460    2.3090   -2.8360 c2        1 P7A     -0.863000
     27 C24        -2.1170    1.8450   -2.6220 c3        1 P7A     -0.034500
     28 C31        -0.8000   -1.5600    5.0630 c1        1 P7A     -0.128000
     29 C32        -0.8270   -2.3670    6.1910 c1        1 P7A     -0.125000
     30 C33        -0.1830   -1.9580    7.3560 c1        1 P7A     -0.125000
     31 C34         0.4870   -0.7420    7.3880 c1        1 P7A     -0.125000
     32 HN2        -1.4950   -0.4700    2.8330 hn        1 P7A      0.225000
     33 H6          1.6390    1.6010    7.0940 ha        1 P7A      0.135000
     34 H7          1.6740    2.9810    5.1760 ha        1 P7A      0.138000
     35 H8          0.5780    2.2850    3.1960 ha        1 P7A      0.165000
     36 HN9        -1.4070   -0.9150    0.4160 hn        1 P7A      0.236000
     37 H14         2.2370   -0.8050   -0.4950 DU        1 P7A      0.192000
     38 H17         2.9320   -2.6600   -3.4860 hc        1 P7A      0.080889
     39 H17A        3.5820   -2.2300   -2.0880 hc        1 P7A      0.080889
     40 H17B        4.4620   -2.1960   -3.4240 hc        1 P7A      0.080889
     41 H18         2.8400    0.5610   -4.9550 hc        1 P7A      0.080889
     42 H18A        2.1820   -0.8910   -5.1000 hc        1 P7A      0.080889
     43 H18B        3.7640   -0.7100   -5.2600 hc        1 P7A      0.080889
     44 H19         4.3480    0.1370   -1.8090 hc        1 P7A      0.080889
     45 H19A        5.0430    0.1690   -3.2510 hc        1 P7A      0.080889
     46 H19B        3.9120    1.2400   -2.8840 hc        1 P7A      0.080889
     47 H20        -2.5870   -1.4900   -2.8380 h1        1 P7A      0.098500
     48 H20A       -2.1880   -0.5660   -4.0660 h1        1 P7A      0.098500
     49 H21        -4.6600   -0.8410   -4.0740 ha        1 P7A      0.163250
     50 H21A       -4.5740   -0.4840   -2.6150 ha        1 P7A      0.163250
     51 H23        -3.7120    3.2430   -3.0770 ha        1 P7A      0.163250
     52 H23A       -3.9800    2.2720   -1.9590 ha        1 P7A      0.163250
     53 H24        -1.7230    2.3790   -1.9020 h1        1 P7A      0.098500
     54 H24A       -1.6120    2.0110   -3.4430 h1        1 P7A      0.098500
     55 H31        -1.2510   -1.8470    4.2470 ha        1 P7A      0.119000
     56 H32        -1.2980   -3.2210    6.1690 ha        1 P7A      0.134000
     57 H33        -0.2020   -2.5260    8.1490 ha        1 P7A      0.134000
     58 H34         0.9380   -0.4560    8.2050 ha        1 P7A      0.135000
@<TRIPOS>BOND
     1    1    3 1   
     2    1   16 1   
     3    2    5 1   
     4    2   24 1   
     5    2   27 1   
     6    4    5 1   
     7    4   18 1   
     8    5   17 1   
     9    6    9 1   
    10    6   32 1   
    11    7    8 1   
    12    8   10 1   
    13    9   11 1   
    14    9   15 1   
    15   11   28 1   
    16   12   13 1   
    17   12   31 1   
    18   13   33 1   
    19   14   15 1   
    20   14   34 1   
    21   15   35 1   
    22   16   17 1   
    23   16   36 1   
    24   17   19 1   
    25   18   19 1   
    26   20   21 1   
    27   20   22 1   
    28   20   23 1   
    29   21   38 1   
    30   21   39 1   
    31   21   40 1   
    32   22   41 1   
    33   22   42 1   
    34   22   43 1   
    35   23   44 1   
    36   23   45 1   
    37   23   46 1   
    38   24   25 1   
    39   24   47 1   
    40   24   48 1   
    41   25   49 1   
    42   25   50 1   
    43   26   27 1   
    44   26   51 1   
    45   26   52 1   
    46   27   53 1   
    47   27   54 1   
    48   28   55 1   
    49   29   30 1   
    50   29   56 1   
    51   30   57 1   
    52   31   58 1   
@<TRIPOS>SUBSTRUCTURE
     1 P7A         1 TEMP              0 ****  ****    0 ROOT
