@<TRIPOS>MOLECULE
P7A
   58    61     1     0     0
SMALL
bcc


@<TRIPOS>ATOM
      1 C1         -0.2630    0.0630    0.3000 c2        1 P7A      0.375000
      2 N1         -1.7590    1.0190   -3.6490 nh        1 P7A     -0.206000
      3 O1          0.7450   -0.6600    0.4790 o         1 P7A     -0.393000
      4 S1          0.5650   -0.1220   -4.6430 ss        1 P7A      0.497000
      5 C2         -0.5030    0.4200   -3.4280 c2        1 P7A     -0.367000
      6 N2         -1.1770    0.3320    1.3610 ns        1 P7A     -0.260000
      7 S2         -4.3190    2.2160   -4.9860 s6        1 P7A      2.807000
      8 C3         -0.6670    0.3450    2.6950 c2        1 P7A     -0.113000
      9 O3         -4.1340    2.0920   -6.3690 o         1 P7A     -0.929500
     10 C4         -0.3890   -0.8290    3.3860 c2        1 P7A      0.096000
     11 C5          0.0570   -0.7620    4.7680 c2        1 P7A     -0.199000
     12 C6          0.2180    0.4490    5.3850 c2        1 P7A      0.031000
     13 C7         -0.0750    1.7120    4.6860 c3        1 P7A     -0.218000
     14 C8         -0.5410    1.6180    3.3140 c1        1 P7A     -0.137000
     15 N9         -0.5760    0.5860   -0.9700 ns        1 P7A     -0.296000
     16 C10         0.0470    0.1950   -2.1510 c2        1 P7A      0.087000
     17 C13         1.7200   -0.6550   -3.5510 c2        1 P7A     -0.320000
     18 C14         1.3420   -0.4350   -2.2460 c2        1 P7A     -0.164000
     19 C16         3.0000   -1.2860   -3.9790 c3        1 P7A      0.009000
     20 C17         3.0910   -2.6990   -3.4080 c3        1 P7A     -0.207000
     21 C18         3.0720   -1.3590   -5.5000 c3        1 P7A     -0.207000
     22 C19         4.1760   -0.4610   -3.4640 c3        1 P7A     -0.207000
     23 C20        -2.7330    0.1200   -4.2640 c3        1 P7A     -0.034000
     24 C21        -4.1440    0.6940   -4.2370 c3        1 P7A     -0.863000
     25 C23        -3.0070    3.0600   -4.2960 c3        1 P7A     -0.863000
     26 C24        -1.6780    2.3150   -4.3190 c3        1 P7A     -0.034000
     27 C31        -0.5280   -2.1660    2.7560 c3        1 P7A     -0.171000
     28 C32        -0.2760   -3.3270    3.6340 c2        1 P7A     -0.049000
     29 C33         0.1270   -3.2080    4.9180 c2        1 P7A     -0.230000
     30 C34         0.3400   -1.9410    5.5380 c1        1 P7A     -0.043000
     31 HN2        -1.7620    1.1370    1.2130 hn        1 P7A      0.215000
     32 H6         -0.8520    2.2970    5.2680 hc        1 P7A      0.177000
     33 H7          0.5710    0.4920    6.4310 ha        1 P7A      0.160000
     34 H8          0.8500    2.3670    4.6780 hc        1 P7A      0.177000
     35 HN9        -1.4400    1.0700   -1.0850 hn        1 P7A      0.243000
     36 H14         1.9370   -0.7020   -1.3650 ha        1 P7A      0.192000
     37 H17         2.2570   -3.3290   -3.7960 hc        1 P7A      0.080556
     38 H17A        4.0610   -3.1650   -3.7030 hc        1 P7A      0.080556
     39 H17B        3.0290   -2.6680   -2.2930 hc        1 P7A      0.080556
     40 H18         4.0340   -1.8340   -5.8110 hc        1 P7A      0.080556
     41 H18A        2.2280   -1.9700   -5.9030 hc        1 P7A      0.080556
     42 H18B        3.0220   -0.3360   -5.9440 hc        1 P7A      0.080556
     43 H19         5.1370   -0.9450   -3.7610 hc        1 P7A      0.080556
     44 H19A        4.1450    0.5690   -3.8910 hc        1 P7A      0.080556
     45 H19B        4.1370   -0.3890   -2.3500 hc        1 P7A      0.080556
     46 H20        -2.4650   -0.1130   -5.3380 h1        1 P7A      0.098000
     47 H20A       -2.7190   -0.8470   -3.6890 h1        1 P7A      0.098000
     48 H21        -4.8080   -0.0610   -4.7390 h1        1 P7A      0.163500
     49 H21A       -4.4980    0.7350   -3.1710 h1        1 P7A      0.163500
     50 H23        -3.2390    3.3550   -3.2370 h1        1 P7A      0.163500
     51 H23A       -2.8420    4.0290   -4.8420 h1        1 P7A      0.163500
     52 H24        -0.9030    2.9310   -3.7820 h1        1 P7A      0.098000
     53 H24A       -1.3480    2.2080   -5.3950 h1        1 P7A      0.098000
     54 H31        -1.5620   -2.2570    2.3110 hc        1 P7A      0.160000
     55 H32         0.1950   -2.2160    1.8800 hc        1 P7A      0.160000
     56 H33        -0.4270   -4.3120    3.1590 ha        1 P7A      0.132000
     57 H34         0.3140   -4.0990    5.5400 ha        1 P7A      0.150000
     58 O2         -5.5140    2.8010   -4.5450 o         1 P7A     -0.929500
@<TRIPOS>BOND
     1    1    3 1   
     2    1    6 1   
     3    1   15 1   
     4    2    5 1   
     5    2   23 1   
     6    2   26 1   
     7    4    5 1   
     8    4   17 1   
     9    5   16 1   
    10    6    8 1   
    11    6   31 1   
    12    7    9 1   
    13    7   24 1   
    14    7   25 1   
    15    7   58 1   
    16    8   10 1   
    17    8   14 1   
    18   10   11 1   
    19   10   27 1   
    20   11   12 1   
    21   11   30 1   
    22   12   13 1   
    23   12   33 1   
    24   13   14 1   
    25   13   32 1   
    26   13   34 1   
    27   15   16 1   
    28   15   35 1   
    29   16   18 1   
    30   17   18 1   
    31   17   19 1   
    32   18   36 1   
    33   19   20 1   
    34   19   21 1   
    35   19   22 1   
    36   20   37 1   
    37   20   38 1   
    38   20   39 1   
    39   21   40 1   
    40   21   41 1   
    41   21   42 1   
    42   22   43 1   
    43   22   44 1   
    44   22   45 1   
    45   23   24 1   
    46   23   46 1   
    47   23   47 1   
    48   24   48 1   
    49   24   49 1   
    50   25   26 1   
    51   25   50 1   
    52   25   51 1   
    53   26   52 1   
    54   26   53 1   
    55   27   28 1   
    56   27   54 1   
    57   27   55 1   
    58   28   29 1   
    59   28   56 1   
    60   29   30 1   
    61   29   57 1   
@<TRIPOS>SUBSTRUCTURE
     1 P7A         1 TEMP              0 ****  ****    0 ROOT
