@<TRIPOS>MOLECULE
P7A
   60    61     1     0     0
SMALL
bcc


@<TRIPOS>ATOM
      1 C1        -29.2100    2.4850  266.1110 c2        1 P7A      0.286000
      2 N1         15.7640   -1.6150 -167.4940 nh        1 P7A     -0.052000
      3 O1        -30.3970    2.7070  265.9980 o         1 P7A     -0.169000
      4 S1         17.6510   -1.0900 -165.6620 ss        1 P7A      0.545000
      5 C2         16.2410   -0.8050 -166.5580 c2        1 P7A     -0.088000
      6 N2        -28.7030    1.1810  265.4780 n4        1 P7A     -0.065000
      7 S2         14.6300   -4.6390 -166.9050 s6        1 P7A      2.804000
      8 C3        -27.8750    1.5480  264.3270 c2        1 P7A     -0.273000
      9 O3         14.3760   -5.1360 -168.1800 o         1 P7A     -0.909500
     10 C4        -27.2750    0.6160  263.4820 c2        1 P7A      0.145000
     11 C5        -26.5000    1.1110  262.3720 c2        1 P7A     -0.225000
     12 C6        -26.3740    2.4670  262.1540 c2        1 P7A      0.108000
     13 C7        -27.0120    3.4590  263.0340 c3        1 P7A     -0.228000
     14 C8        -27.7700    2.9380  264.1510 c1        1 P7A     -0.129000
     15 N9         14.5390    0.9530 -166.6790 n2        1 P7A     -0.112000
     16 C10        15.6160    0.5140 -166.1460 c2        1 P7A     -0.001000
     17 C13        17.5470    0.3850 -164.7650 c2        1 P7A     -0.235000
     18 C14        16.4680    1.1160 -165.0920 c2        1 P7A     -0.171000
     19 C16        18.6100    0.6750 -163.7610 c3        1 P7A     -0.009000
     20 C17        17.9970    0.6890 -162.3630 c3        1 P7A     -0.215333
     21 C18        19.6820   -0.4070 -163.8380 c3        1 P7A     -0.215333
     22 C19        19.2390    2.0340 -164.0530 c3        1 P7A     -0.215333
     23 C20        16.4750   -2.8530 -167.8340 c3        1 P7A     -0.041000
     24 C21        16.2390   -4.0060 -166.8700 c3        1 P7A     -0.880000
     25 C23        14.4260   -1.0250 -169.4610 c2        1 P7A     -0.133000
     26 C24        14.5230   -1.3870 -168.1770 c2        1 P7A     -0.125000
     27 C31       -27.4060   -0.8490  263.6770 c3        1 P7A     -0.178000
     28 C32       -26.6860   -1.6920  262.6900 c2        1 P7A     -0.065000
     29 C33       -25.9660   -1.1780  261.6710 c2        1 P7A     -0.201000
     30 C34       -25.8330    0.2290  261.4520 c1        1 P7A      0.012000
     31 HN2       -28.1520    0.6500  266.1560 hn        1 P7A      0.237500
     32 H6        -26.2300    4.1820  263.4380 hc        1 P7A      0.219000
     33 H7        -25.7760    2.8250  261.2910 ha        1 P7A      0.197000
     34 H8        -27.7060    4.1280  262.4260 hc        1 P7A      0.219000
     35 HN9       -28.4030    3.0530  266.6150 hx        1 P7A      0.238000
     36 H14        16.1950    2.0820 -164.6480 ha        1 P7A      0.198000
     37 H17        17.1890    1.4560 -162.3010 hc        1 P7A      0.094000
     38 H17A       18.7870    0.9380 -161.6130 hc        1 P7A      0.094000
     39 H17B       17.5690   -0.3100 -162.1110 hc        1 P7A      0.094000
     40 H18        20.4430   -0.2410 -163.0360 hc        1 P7A      0.094000
     41 H18A       19.2330   -1.4210 -163.6850 hc        1 P7A      0.094000
     42 H18B       20.2040   -0.3780 -164.8250 hc        1 P7A      0.094000
     43 H19        20.0350    2.2440 -163.2970 hc        1 P7A      0.094000
     44 H19A       19.7000    2.0450 -165.0690 hc        1 P7A      0.094000
     45 H19B       18.4680    2.8390 -163.9950 hc        1 P7A      0.094000
     46 H20        17.5820   -2.6220 -167.8700 h1        1 P7A      0.149000
     47 H20A       16.1440   -3.1600 -168.8730 h1        1 P7A      0.149000
     48 H21        16.9800   -4.8040 -167.1600 h1        1 P7A      0.175000
     49 H21A       16.5290   -3.7000 -165.8290 h1        1 P7A      0.175000
     50 H23        14.8200   -5.5330 -166.1030 hs        1 P7A     -0.462000
     51 H23A       13.4290   -0.8990 -169.9140 ha        1 P7A      0.157000
     52 H24        15.2770   -0.8380 -170.1300 ha        1 P7A      0.157000
     53 H24A       13.6460   -1.5570 -167.5120 h4        1 P7A      0.216000
     54 H31       -27.0320   -1.1190  264.7090 hc        1 P7A      0.144000
     55 H32       -28.5030   -1.1260  263.6380 hc        1 P7A      0.144000
     56 H33       -26.7850   -2.7810  262.8500 ha        1 P7A      0.162000
     57 H34       -25.4420   -1.8370  260.9540 ha        1 P7A      0.184000
     58 O2         13.7850   -3.6600 -166.3750 o         1 P7A     -0.909500
     59 H22       -29.4920    0.6040  265.1660 hn        1 P7A      0.237500
     60 H92        14.1900    1.8320 -166.3500 hn        1 P7A      0.204000
@<TRIPOS>BOND
     1    1    3 1   
     2    1    6 1   
     3    1   35 1   
     4    2    5 1   
     5    2   23 1   
     6    2   26 1   
     7    4    5 1   
     8    4   17 1   
     9    5   16 1   
    10    6    8 1   
    11    6   31 1   
    12    6   59 1   
    13    7    9 1   
    14    7   24 1   
    15    7   50 1   
    16    7   58 1   
    17    8   10 1   
    18    8   14 1   
    19   10   11 1   
    20   10   27 1   
    21   11   12 1   
    22   11   30 1   
    23   12   13 1   
    24   12   33 1   
    25   13   14 1   
    26   13   32 1   
    27   13   34 1   
    28   15   16 1   
    29   15   60 1   
    30   16   18 1   
    31   17   18 1   
    32   17   19 1   
    33   18   36 1   
    34   19   20 1   
    35   19   21 1   
    36   19   22 1   
    37   20   37 1   
    38   20   38 1   
    39   20   39 1   
    40   21   40 1   
    41   21   41 1   
    42   21   42 1   
    43   22   43 1   
    44   22   44 1   
    45   22   45 1   
    46   23   24 1   
    47   23   46 1   
    48   23   47 1   
    49   24   48 1   
    50   24   49 1   
    51   25   26 1   
    52   25   51 1   
    53   25   52 1   
    54   26   53 1   
    55   27   28 1   
    56   27   54 1   
    57   27   55 1   
    58   28   29 1   
    59   28   56 1   
    60   29   30 1   
    61   29   57 1   
@<TRIPOS>SUBSTRUCTURE
     1 P7A         1 TEMP              0 ****  ****    0 ROOT
