@<TRIPOS>MOLECULE
P7A
   58    61     1     0     0
SMALL
bcc


@<TRIPOS>ATOM
      1 C1          1.6710   -0.5220   -0.2280 c         1 P7A      0.769100
      2 N1         -2.4770    0.6290    0.0160 nh        1 P7A     -0.605000
      3 O1          2.0090   -1.6940   -0.5040 o         1 P7A     -0.608100
      4 S1         -3.0700   -2.0810    0.0690 ss        1 P7A     -0.039800
      5 C2         -2.0500   -0.7140    0.0640 cc        1 P7A     -0.013500
      6 N2          2.5760    0.5560   -0.3380 n         1 P7A     -0.467100
      7 S2         -4.2190    3.2210   -0.1400 s6        1 P7A      1.327000
      8 C3          3.9640    0.3580   -0.5010 ca        1 P7A      0.061600
      9 O3         -5.5520    2.8010   -0.2190 o         1 P7A     -0.649800
     10 C4          4.8960    1.2060    0.2070 ca        1 P7A     -0.052000
     11 C5          6.2810    1.0650   -0.0670 ca        1 P7A     -0.023000
     12 C6          6.7310    0.0820   -0.9880 ca        1 P7A     -0.136000
     13 C7          5.8300   -0.7350   -1.6200 ca        1 P7A     -0.108000
     14 C8          4.4460   -0.5990   -1.3870 ca        1 P7A     -0.129000
     15 N9          0.3620   -0.2070    0.2090 n         1 P7A     -0.439100
     16 C10        -0.6990   -1.1070    0.1240 cd        1 P7A      0.072600
     17 C13        -1.7980   -3.1720    0.1290 cc        1 P7A     -0.057400
     18 C14        -0.5740   -2.5430    0.1560 cd        1 P7A     -0.159000
     19 C16        -2.0060   -4.6480    0.1500 c3        1 P7A      0.015300
     20 C17        -1.3930   -5.2340    1.4190 c3        1 P7A     -0.089433
     21 C18        -3.4950   -4.9730    0.1210 c3        1 P7A     -0.089433
     22 C19        -1.3340   -5.2770   -1.0670 c3        1 P7A     -0.089433
     23 C20        -3.2640    1.0320    1.1790 c3        1 P7A      0.202300
     24 C21        -3.4750    2.5400    1.2370 c3        1 P7A     -0.323600
     25 C23        -3.3040    2.4980   -1.3850 c3        1 P7A     -0.323600
     26 C24        -3.1070    0.9930   -1.2510 c3        1 P7A      0.202300
     27 C31         4.4980    2.1750    1.1710 ca        1 P7A     -0.128000
     28 C32         5.4230    2.9700    1.8030 ca        1 P7A     -0.123000
     29 C33         6.8000    2.8420    1.5090 ca        1 P7A     -0.127000
     30 C34         7.2180    1.9060    0.5970 ca        1 P7A     -0.114000
     31 HN2         2.3140    1.4310    0.0570 hn        1 P7A      0.311500
     32 H6          7.8110   -0.0110   -1.1760 ha        1 P7A      0.135000
     33 H7          6.1700   -1.5080   -2.3260 ha        1 P7A      0.138000
     34 H8          3.7540   -1.2790   -1.9120 ha        1 P7A      0.165000
     35 HN9         0.0940    0.7540    0.2320 hn        1 P7A      0.322500
     36 H14         0.3960   -3.0530    0.1870 ha        1 P7A      0.192000
     37 H17        -1.8870   -4.8060    2.3240 hc        1 P7A      0.041589
     38 H17A       -1.5260   -6.3420    1.4270 hc        1 P7A      0.041589
     39 H17B       -0.3020   -5.0010    1.4620 hc        1 P7A      0.041589
     40 H18        -3.9670   -4.5630   -0.8040 hc        1 P7A      0.041589
     41 H18A       -3.6410   -6.0800    0.1340 hc        1 P7A      0.041589
     42 H18B       -4.0080   -4.5380    1.0130 hc        1 P7A      0.041589
     43 H19        -0.2440   -5.0380   -1.0720 hc        1 P7A      0.041589
     44 H19A       -1.4610   -6.3860   -1.0390 hc        1 P7A      0.041589
     45 H19B       -1.7900   -4.8870   -2.0080 hc        1 P7A      0.041589
     46 H20        -4.2770    0.5300    1.1910 h1        1 P7A      0.059200
     47 H20A       -2.7080    0.7040    2.1010 h1        1 P7A      0.059200
     48 H21        -2.4880    3.0370    1.4380 h1        1 P7A      0.123950
     49 H21A       -4.0990    2.7420    2.1500 h1        1 P7A      0.123950
     50 H23        -3.8030    2.6690   -2.3780 h1        1 P7A      0.123950
     51 H23A       -2.2980    2.9890   -1.4730 h1        1 P7A      0.123950
     52 H24        -2.4380    0.6350   -2.0830 h1        1 P7A      0.059200
     53 H24A       -4.1120    0.4890   -1.3760 h1        1 P7A      0.059200
     54 H31         3.4390    2.2930    1.4450 ha        1 P7A      0.119000
     55 H32         5.1030    3.7130    2.5480 ha        1 P7A      0.133000
     56 H33         7.5220    3.4940    2.0210 ha        1 P7A      0.135000
     57 H34         8.2860    1.7860    0.3610 ha        1 P7A      0.135000
     58 O2         -3.9740    4.6010   -0.1450 o         1 P7A     -0.649800
@<TRIPOS>BOND
     1    1    3 2   
     2    1    6 1   
     3    1   15 1   
     4    2    5 1   
     5    2   23 1   
     6    2   26 1   
     7    4    5 1   
     8    4   17 1   
     9    5   16 2   
    10    6    8 1   
    11    6   31 1   
    12    7    9 2   
    13    7   24 1   
    14    7   25 1   
    15    7   58 2   
    16    8   10 ar  
    17    8   14 ar  
    18   10   11 ar  
    19   10   27 ar  
    20   11   12 ar  
    21   11   30 ar  
    22   12   13 ar  
    23   12   32 1   
    24   13   14 ar  
    25   13   33 1   
    26   14   34 1   
    27   15   16 1   
    28   15   35 1   
    29   16   18 1   
    30   17   18 2   
    31   17   19 1   
    32   18   36 1   
    33   19   20 1   
    34   19   21 1   
    35   19   22 1   
    36   20   37 1   
    37   20   38 1   
    38   20   39 1   
    39   21   40 1   
    40   21   41 1   
    41   21   42 1   
    42   22   43 1   
    43   22   44 1   
    44   22   45 1   
    45   23   24 1   
    46   23   46 1   
    47   23   47 1   
    48   24   48 1   
    49   24   49 1   
    50   25   26 1   
    51   25   50 1   
    52   25   51 1   
    53   26   52 1   
    54   26   53 1   
    55   27   28 ar  
    56   27   54 1   
    57   28   29 ar  
    58   28   55 1   
    59   29   30 ar  
    60   29   56 1   
    61   30   57 1   
@<TRIPOS>SUBSTRUCTURE
     1 P7A         1 TEMP              0 ****  ****    0 ROOT
