@<TRIPOS>MOLECULE
P7A
   58    60     1     0     0
SMALL
bcc


@<TRIPOS>ATOM
      1 C1          0.2870    0.0260    0.0730 c2        1 P7A      0.393000
      2 N1         -1.4500    1.2580   -3.6920 nh        1 P7A     -0.214000
      3 O1          1.5040   -0.2410    0.1680 o         1 P7A     -0.368000
      4 S1          0.8820    0.3760   -4.8730 ss        1 P7A      0.514000
      5 C2         -0.2020    0.6190   -3.5810 c2        1 P7A     -0.347000
      6 N2         -0.5000    0.3040    1.2130 n         1 P7A     -0.320000
      7 S2         -4.2600   -0.1080   -3.0640 s6        1 P7A      2.809000
      8 C3         -0.0470    0.0140    2.5210 ca        1 P7A      0.026000
      9 O3         -4.9250    1.0990   -3.3140 o         1 P7A     -0.928000
     10 C4         -0.9270   -0.5380    3.4830 ca        1 P7A     -0.065000
     11 C5         -0.4770   -0.7490    4.8070 ca        1 P7A     -0.135000
     12 C6          0.8430   -0.4210    5.1590 ca        1 P7A     -0.028000
     13 C7          1.7080    0.1080    4.2070 ca        1 P7A     -0.160000
     14 C8          1.2760    0.3290    2.9040 ca        1 P7A     -0.068000
     15 N9         -0.3740    0.0640   -1.1790 n         1 P7A     -0.292000
     16 C10         0.3180    0.0750   -2.3900 c2        1 P7A      0.059000
     17 C13         2.0140   -0.4180   -3.9240 c2        1 P7A     -0.325000
     18 C14         1.6130   -0.5190   -2.6120 c2        1 P7A     -0.153000
     19 C16         3.2950   -0.9440   -4.4740 c3        1 P7A      0.009000
     20 C17         3.3730   -2.4500   -4.2480 c3        1 P7A     -0.207333
     21 C18         3.3840   -0.6600   -5.9700 c3        1 P7A     -0.207333
     22 C19         4.4690   -0.2700   -3.7690 c3        1 P7A     -0.207333
     23 C20        -2.3180    0.7570   -4.7440 c3        1 P7A     -0.011000
     24 C21        -3.1470   -0.4470   -4.3000 c3        1 P7A     -0.875000
     25 C23        -2.5450    3.4350   -3.4220 c2        1 P7A     -0.285000
     26 C24        -1.4610    2.6440   -3.4190 c2        1 P7A     -0.060000
     27 C31        -2.3280   -0.8910    3.1230 c3        1 P7A     -0.135000
     28 C32        -3.1250   -1.5090    4.2080 c2        1 P7A     -0.076000
     29 C33        -2.6410   -1.6960    5.4540 c2        1 P7A     -0.210000
     30 C34        -1.3180   -1.2990    5.8320 c1        1 P7A     -0.040000
     31 HN2        -1.4900    0.3150    1.1040 hn        1 P7A      0.220000
     32 H6          1.9810    0.7400    2.1600 ha        1 P7A      0.167000
     33 H7          1.1730   -0.5950    6.1950 ha        1 P7A      0.160000
     34 H8          2.7450    0.3570    4.4810 ha        1 P7A      0.143000
     35 HN9        -1.2790    0.4870   -1.2120 hn        1 P7A      0.233000
     36 H14         2.1960   -0.9850   -1.8090 ha        1 P7A      0.193000
     37 H17         2.5370   -2.9670   -4.7760 hc        1 P7A      0.081000
     38 H17A        3.3040   -2.6800   -3.1570 hc        1 P7A      0.081000
     39 H17B        4.3420   -2.8430   -4.6390 hc        1 P7A      0.081000
     40 H18         4.3510   -1.0460   -6.3720 hc        1 P7A      0.081000
     41 H18A        2.5480   -1.1620   -6.5140 hc        1 P7A      0.081000
     42 H18B        3.3340    0.4390   -6.1640 hc        1 P7A      0.081000
     43 H19         5.4310   -0.6830   -4.1560 hc        1 P7A      0.081000
     44 H19A        4.4520    0.8310   -3.9500 hc        1 P7A      0.081000
     45 H19B        4.4130   -0.4530   -2.6690 hc        1 P7A      0.081000
     46 H20        -3.0250    1.5750   -5.0710 h1        1 P7A      0.108500
     47 H20A       -1.7110    0.4480   -5.6450 h1        1 P7A      0.108500
     48 H21        -3.6880   -0.8210   -5.2130 h1        1 P7A      0.168500
     49 H21A       -2.4500   -1.2820   -4.0160 h1        1 P7A      0.168500
     50 H23        -3.4750    0.0450   -2.1340 hs        1 P7A     -0.495000
     51 H23A       -2.4520    4.4900   -3.1370 ha        1 P7A      0.137000
     52 H24        -3.5610    3.1070   -3.6830 ha        1 P7A      0.137000
     53 H24A       -0.4720    3.0440   -3.1140 h4        1 P7A      0.143000
     54 H31        -2.8740    0.0400    2.7910 hc        1 P7A      0.118000
     55 H32        -2.3180   -1.6060    2.2500 hc        1 P7A      0.118000
     56 H33        -4.1510   -1.8000    3.9270 ha        1 P7A      0.129000
     57 H34        -3.2590   -2.1600    6.2400 ha        1 P7A      0.148000
     58 O2         -5.0340   -1.2450   -2.8030 o         1 P7A     -0.928000
@<TRIPOS>BOND
     1    1    3 1   
     2    1    6 1   
     3    1   15 1   
     4    2    5 1   
     5    2   23 1   
     6    2   26 1   
     7    4    5 1   
     8    4   17 1   
     9    5   16 1   
    10    6    8 1   
    11    6   31 1   
    12    7    9 1   
    13    7   24 1   
    14    7   50 1   
    15    7   58 1   
    16    8   10 1   
    17    8   14 1   
    18   10   11 1   
    19   10   27 1   
    20   11   12 1   
    21   11   30 1   
    22   12   13 1   
    23   12   33 1   
    24   13   14 1   
    25   13   34 1   
    26   14   32 1   
    27   15   16 1   
    28   15   35 1   
    29   16   18 1   
    30   17   18 1   
    31   17   19 1   
    32   18   36 1   
    33   19   20 1   
    34   19   21 1   
    35   19   22 1   
    36   20   37 1   
    37   20   38 1   
    38   20   39 1   
    39   21   40 1   
    40   21   41 1   
    41   21   42 1   
    42   22   43 1   
    43   22   44 1   
    44   22   45 1   
    45   23   24 1   
    46   23   46 1   
    47   23   47 1   
    48   24   48 1   
    49   24   49 1   
    50   25   26 1   
    51   25   51 1   
    52   25   52 1   
    53   26   53 1   
    54   27   28 1   
    55   27   54 1   
    56   27   55 1   
    57   28   29 1   
    58   28   56 1   
    59   29   30 1   
    60   29   57 1   
@<TRIPOS>SUBSTRUCTURE
     1 P7A         1 TEMP              0 ****  ****    0 ROOT
