@<TRIPOS>MOLECULE
P7B
   61    64     1     0     0
SMALL
bcc


@<TRIPOS>ATOM
      1 C1          2.0890   -2.5330   -0.1480 cc        1 P7B     -0.165400
      2 S2          0.4470   -2.4270    0.1730 ss        1 P7B      0.156200
      3 C3          0.4340   -0.7360    0.1300 cc        1 P7B      0.088500
      4 C4          1.7290   -0.2330   -0.1010 cd        1 P7B     -0.256600
      5 C5          2.6690   -1.2900   -0.2790 cd        1 P7B     -0.110000
      6 C6          2.7910   -3.8390   -0.2750 c3        1 P7B      0.025300
      7 C7          3.9020   -3.9350    0.7660 c3        1 P7B     -0.088100
      8 C8          1.8070   -4.9840   -0.0570 c3        1 P7B     -0.088100
      9 C9          3.3990   -3.9650   -1.6690 c3        1 P7B     -0.088100
     10 C10         2.0120    1.2060   -0.2370 c         1 P7B      0.714700
     11 O11         1.1970    1.9580   -0.8240 o         1 P7B     -0.645100
     12 N12        -0.6800    0.0650    0.3090 n         1 P7B     -0.442100
     13 C13        -1.9690   -0.4900    0.4730 c         1 P7B      0.776100
     14 O14        -2.0940   -1.7320    0.6010 o         1 P7B     -0.623100
     15 N15        -3.0470    0.4000    0.5370 n         1 P7B     -0.467100
     16 C16        -4.3910   -0.0120    0.6290 ca        1 P7B      0.069600
     17 C17        -4.7530   -1.1400    1.3570 ca        1 P7B     -0.138000
     18 C18        -6.1090   -1.5020    1.4990 ca        1 P7B     -0.107000
     19 C19        -7.1010   -0.7420    0.9340 ca        1 P7B     -0.135000
     20 C20        -6.7720    0.4130    0.1760 ca        1 P7B     -0.022000
     21 C21        -5.4150    0.7870   -0.0060 ca        1 P7B     -0.052000
     22 C22        -7.8010    1.1970   -0.4170 ca        1 P7B     -0.116000
     23 C23        -7.4970    2.3000   -1.1740 ca        1 P7B     -0.126000
     24 C24        -6.1460    2.6630   -1.3760 ca        1 P7B     -0.123000
     25 C25        -5.1330    1.9270   -0.8100 ca        1 P7B     -0.126000
     26 N26         3.1620    1.7620    0.3140 n         1 P7B     -0.471800
     27 C27         4.0540    1.0510    1.1880 c3        1 P7B      0.068000
     28 C28         5.4560    0.7810    0.5870 c3        1 P7B      0.080000
     29 N29         6.3270    1.9140    0.5440 n         1 P7B     -0.579900
     30 C30         6.0570    3.0930   -0.1220 c         1 P7B      0.693500
     31 C31         4.7700    3.2530   -0.8980 c3        1 P7B     -0.169400
     32 C32         3.5300    3.1220   -0.0140 c3        1 P7B      0.091000
     33 O33         6.9040    4.0100   -0.0750 o         1 P7B     -0.647500
     34 H5          3.7230   -1.1160   -0.5140 ha        1 P7B      0.151000
     35 H7          3.4770   -3.8730    1.7960 hc        1 P7B      0.039589
     36 H7A         4.4410   -4.9070    0.6580 hc        1 P7B      0.039589
     37 H7B         4.6320   -3.1020    0.6280 hc        1 P7B      0.039589
     38 H8          0.9860   -4.9430   -0.8150 hc        1 P7B      0.039589
     39 H8A         2.3340   -5.9630   -0.1580 hc        1 P7B      0.039589
     40 H8B         1.3590   -4.9250    0.9650 hc        1 P7B      0.039589
     41 H9          4.1180   -3.1320   -1.8530 hc        1 P7B      0.039589
     42 H9A         3.9420   -4.9360   -1.7610 hc        1 P7B      0.039589
     43 H9B         2.6000   -3.9250   -2.4470 hc        1 P7B      0.039589
     44 HN12       -0.5640    1.0330    0.0840 hn        1 P7B      0.353500
     45 HN15       -2.8920    1.3640    0.3480 hn        1 P7B      0.327500
     46 H17        -3.9870   -1.7800    1.8250 ha        1 P7B      0.166000
     47 H18        -6.3530   -2.4050    2.0790 ha        1 P7B      0.138000
     48 H19        -8.1600   -1.0130    1.0530 ha        1 P7B      0.136000
     49 H22        -8.8470    0.8940   -0.2560 ha        1 P7B      0.135000
     50 H23        -8.2920    2.9080   -1.6320 ha        1 P7B      0.135000
     51 H24        -5.9150    3.5410   -1.9980 ha        1 P7B      0.135000
     52 H25        -4.0960    2.2310   -1.0100 ha        1 P7B      0.123000
     53 H27         4.1720    1.6550    2.1370 h1        1 P7B      0.066200
     54 H27A        3.6060    0.0590    1.4750 h1        1 P7B      0.066200
     55 H28         5.9410   -0.0100    1.2260 h1        1 P7B      0.051700
     56 H28A        5.3380    0.3620   -0.4550 h1        1 P7B      0.051700
     57 HN29        7.1650    1.8740    1.0780 hn        1 P7B      0.320500
     58 H31         4.7740    4.2850   -1.3430 hc        1 P7B      0.083200
     59 H31A        4.7500    2.5150   -1.7420 hc        1 P7B      0.083200
     60 H32         2.6670    3.6140   -0.5510 h1        1 P7B      0.073200
     61 H32A        3.7070    3.6850    0.9480 h1        1 P7B      0.073200
@<TRIPOS>BOND
     1    1    2 1   
     2    1    5 2   
     3    1    6 1   
     4    2    3 1   
     5    3    4 2   
     6    3   12 1   
     7    4    5 1   
     8    4   10 1   
     9    5   34 1   
    10    6    7 1   
    11    6    8 1   
    12    6    9 1   
    13    7   35 1   
    14    7   36 1   
    15    7   37 1   
    16    8   38 1   
    17    8   39 1   
    18    8   40 1   
    19    9   41 1   
    20    9   42 1   
    21    9   43 1   
    22   10   11 2   
    23   10   26 1   
    24   12   13 1   
    25   12   44 1   
    26   13   14 2   
    27   13   15 1   
    28   15   16 1   
    29   15   45 1   
    30   16   17 ar  
    31   16   21 ar  
    32   17   18 ar  
    33   17   46 1   
    34   18   19 ar  
    35   18   47 1   
    36   19   20 ar  
    37   19   48 1   
    38   20   21 ar  
    39   20   22 ar  
    40   21   25 ar  
    41   22   23 ar  
    42   22   49 1   
    43   23   24 ar  
    44   23   50 1   
    45   24   25 ar  
    46   24   51 1   
    47   25   52 1   
    48   26   27 1   
    49   26   32 1   
    50   27   28 1   
    51   27   53 1   
    52   27   54 1   
    53   28   29 1   
    54   28   55 1   
    55   28   56 1   
    56   29   30 1   
    57   29   57 1   
    58   30   31 1   
    59   30   33 2   
    60   31   32 1   
    61   31   58 1   
    62   31   59 1   
    63   32   60 1   
    64   32   61 1   
@<TRIPOS>SUBSTRUCTURE
     1 P7B         1 TEMP              0 ****  ****    0 ROOT
