@<TRIPOS>MOLECULE
P7B
   63    66     1     0     0
SMALL
bcc


@<TRIPOS>ATOM
      1 C1          0.1010   -0.4590   -0.1870 cc        1 P7B     -0.035400
      2 S2          1.6540   -0.5620   -0.7190 ss        1 P7B      0.304200
      3 C3          2.2950    0.1410    0.6660 cc        1 P7B     -0.221500
      4 C4          1.2640    0.5450    1.5630 cd        1 P7B     -0.081600
      5 C5          0.0060    0.1530    1.0700 cd        1 P7B     -0.127000
      6 C6         -1.0420   -0.9760   -0.9970 c3        1 P7B     -0.006700
      7 C7         -1.9970    0.1680   -1.3230 c3        1 P7B     -0.100100
      8 C8         -0.5050   -1.5760   -2.2920 c3        1 P7B     -0.100100
      9 C9         -1.7850   -2.0500   -0.2080 c3        1 P7B     -0.100100
     10 C10         1.5660    1.2110    2.8570 c         1 P7B      0.697700
     11 O11         2.7590    1.0790    3.2920 o         1 P7B     -0.792100
     12 N12         3.6960    0.2170    0.9700 n4        1 P7B     -0.421200
     13 C13         4.1920    1.6380    1.0320 c         1 P7B      0.501100
     14 O14         3.8640    2.4820    0.2150 o         1 P7B     -0.329100
     15 N15         5.1520    1.9790    2.1360 n4        1 P7B     -0.489200
     16 C16         6.3910    1.2090    2.0110 ca        1 P7B     -0.148400
     17 C17         7.4190    1.7320    1.2240 ca        1 P7B     -0.037000
     18 C18         8.6310    1.0360    1.1080 ca        1 P7B     -0.143000
     19 C19         8.8140   -0.1600    1.7720 ca        1 P7B      0.001000
     20 C20         7.7880   -0.7030    2.5880 ca        1 P7B     -0.055000
     21 C21         6.5490   -0.0160    2.7400 ca        1 P7B     -0.011000
     22 C22         7.9990   -1.9280    3.2830 ca        1 P7B     -0.064000
     23 C23         7.0260   -2.4450    4.1030 ca        1 P7B     -0.114000
     24 C24         5.8060   -1.7500    4.2720 ca        1 P7B     -0.029000
     25 C25         5.5680   -0.5670    3.6050 ca        1 P7B     -0.247000
     26 N26         0.6780    1.9710    3.5490 n         1 P7B     -0.390800
     27 C27        -0.5980    2.4340    3.0410 c3        1 P7B      0.035000
     28 C28        -1.8250    1.7600    3.7060 c3        1 P7B      0.095000
     29 N29        -2.1260    2.2440    5.0100 n         1 P7B     -0.585900
     30 C30        -1.2880    2.1410    6.1080 c         1 P7B      0.686500
     31 C31         0.1010    1.5590    5.9530 c3        1 P7B     -0.174400
     32 C32         0.9550    2.3180    4.9420 c3        1 P7B      0.077000
     33 O33        -1.6930    2.5390    7.2130 o         1 P7B     -0.580500
     34 H5         -0.9450    0.2720    1.6050 ha        1 P7B      0.202000
     35 H7         -2.3810    0.6350   -0.3850 hc        1 P7B      0.059589
     36 H7A        -2.8650   -0.2290   -1.9050 hc        1 P7B      0.059589
     37 H7B        -1.4860    0.9480   -1.9370 hc        1 P7B      0.059589
     38 H8         -1.3580   -1.9400   -2.9190 hc        1 P7B      0.059589
     39 H8A         0.1630   -2.4460   -2.0810 hc        1 P7B      0.059589
     40 H8B         0.0550   -0.8100   -2.8840 hc        1 P7B      0.059589
     41 H9         -2.1810   -1.6300    0.7470 hc        1 P7B      0.059589
     42 H9A        -2.6450   -2.4250   -0.8160 hc        1 P7B      0.059589
     43 H9B        -1.1120   -2.9100    0.0220 hc        1 P7B      0.059589
     44 HN12        3.8320   -0.2320    1.9090 hn        1 P7B      0.502300
     45 HN15        4.6980    1.7990    3.0600 hn        1 P7B      0.512800
     46 H17         7.3120    2.6920    0.6870 ha        1 P7B      0.166000
     47 H18         9.4380    1.4650    0.4870 ha        1 P7B      0.192000
     48 H19         9.7720   -0.7070    1.6830 ha        1 P7B      0.186000
     49 H22         8.9650   -2.4480    3.1560 ha        1 P7B      0.177000
     50 H23         7.1900   -3.3910    4.6490 ha        1 P7B      0.183000
     51 H24         5.0470   -2.1610    4.9610 ha        1 P7B      0.171000
     52 H25         4.6280   -0.0380    3.8350 ha        1 P7B      0.147000
     53 H27        -0.6540    2.2850    1.9280 h1        1 P7B      0.082700
     54 H27A       -0.6410    3.5500    3.2240 h1        1 P7B      0.082700
     55 H28        -2.7090    1.9700    3.0360 h1        1 P7B      0.061200
     56 H28A       -1.6640    0.6420    3.7300 h1        1 P7B      0.061200
     57 HN29       -3.0320    2.6310    5.1660 hn        1 P7B      0.345500
     58 H31         0.0210    0.4700    5.7000 hc        1 P7B      0.097200
     59 H31A        0.6050    1.6410    6.9560 hc        1 P7B      0.097200
     60 H32         0.7820    3.4270    5.0610 h1        1 P7B      0.086700
     61 H32A        2.0400    2.1060    5.1650 h1        1 P7B      0.086700
     62 H122        4.2460   -0.2810    0.2530 hn        1 P7B      0.502300
     63 H152        5.3600    2.9910    2.0590 hn        1 P7B      0.512800
@<TRIPOS>BOND
     1    1    2 1   
     2    1    5 2   
     3    1    6 1   
     4    2    3 1   
     5    3    4 2   
     6    3   12 1   
     7    4    5 1   
     8    4   10 1   
     9    5   34 1   
    10    6    7 1   
    11    6    8 1   
    12    6    9 1   
    13    7   35 1   
    14    7   36 1   
    15    7   37 1   
    16    8   38 1   
    17    8   39 1   
    18    8   40 1   
    19    9   41 1   
    20    9   42 1   
    21    9   43 1   
    22   10   11 2   
    23   10   26 1   
    24   12   13 1   
    25   12   44 1   
    26   12   62 1   
    27   13   14 2   
    28   13   15 1   
    29   15   16 1   
    30   15   45 1   
    31   15   63 1   
    32   16   17 ar  
    33   16   21 ar  
    34   17   18 ar  
    35   17   46 1   
    36   18   19 ar  
    37   18   47 1   
    38   19   20 ar  
    39   19   48 1   
    40   20   21 ar  
    41   20   22 ar  
    42   21   25 ar  
    43   22   23 ar  
    44   22   49 1   
    45   23   24 ar  
    46   23   50 1   
    47   24   25 ar  
    48   24   51 1   
    49   25   52 1   
    50   26   27 1   
    51   26   32 1   
    52   27   28 1   
    53   27   53 1   
    54   27   54 1   
    55   28   29 1   
    56   28   55 1   
    57   28   56 1   
    58   29   30 1   
    59   29   57 1   
    60   30   31 1   
    61   30   33 2   
    62   31   32 1   
    63   31   58 1   
    64   31   59 1   
    65   32   60 1   
    66   32   61 1   
@<TRIPOS>SUBSTRUCTURE
     1 P7B         1 TEMP              0 ****  ****    0 ROOT
