@<TRIPOS>MOLECULE
P7B
   61    64     1     0     0
SMALL
bcc


@<TRIPOS>ATOM
      1 C1          0.0230    0.2230    0.0280 cc        1 P7B     -0.165400
      2 S2          1.6930    0.2730   -0.1140 ss        1 P7B      0.156200
      3 C3          1.9390    0.4680    1.5490 cc        1 P7B      0.088500
      4 C4          0.7090    0.5330    2.2310 cd        1 P7B     -0.256600
      5 C5         -0.3880    0.3680    1.3350 cd        1 P7B     -0.110000
      6 C6         -0.8690    0.0320   -1.1480 c3        1 P7B      0.025300
      7 C7         -1.8150    1.2220   -1.2810 c3        1 P7B     -0.088100
      8 C8         -0.0360   -0.0830   -2.4220 c3        1 P7B     -0.088100
      9 C9         -1.6900   -1.2420   -0.9740 c3        1 P7B     -0.088100
     10 C10         0.6160    0.6520    3.6960 c         1 P7B      0.713700
     11 O11         1.4330    0.0470    4.4320 o         1 P7B     -0.645100
     12 N12         3.1700    0.5670    2.1720 ns        1 P7B     -0.442100
     13 C13         4.3760    0.4310    1.4510 c         1 P7B      0.776100
     14 O14         4.3420    0.3600    0.1990 o         1 P7B     -0.623100
     15 N15         5.5670    0.4380    2.1850 ns        1 P7B     -0.467100
     16 C16         6.8380    0.2420    1.6080 ca        1 P7B      0.069600
     17 C17         7.1400    0.7320    0.3430 ca        1 P7B     -0.138000
     18 C18         8.4370    0.5910   -0.1940 ca        1 P7B     -0.107000
     19 C19         9.4310   -0.0200    0.5250 ca        1 P7B     -0.135000
     20 C20         9.1610   -0.5410    1.8180 ca        1 P7B     -0.022000
     21 C21         7.8590   -0.4370    2.3740 ca        1 P7B     -0.052000
     22 C22        10.1920   -1.1830    2.5610 ca        1 P7B     -0.116000
     23 C23         9.9390   -1.7140    3.8010 ca        1 P7B     -0.126000
     24 C24         8.6370   -1.6320    4.3480 ca        1 P7B     -0.123000
     25 C25         7.6260   -1.0130    3.6540 ca        1 P7B     -0.126000
     26 N26        -0.3480    1.4620    4.2870 n         1 P7B     -0.471800
     27 C27        -1.1910    2.3660    3.5530 c3        1 P7B      0.068000
     28 C28        -2.6910    1.9780    3.5510 c3        1 P7B      0.080000
     29 N29        -3.3880    2.2430    4.7700 ns        1 P7B     -0.579900
     30 C30        -3.0570    1.7160    6.0020 c         1 P7B      0.693500
     31 C31        -1.8900    0.7630    6.1330 c3        1 P7B     -0.169400
     32 C32        -0.5630    1.3970    5.7150 c3        1 P7B      0.091000
     33 O33        -3.7470    2.0340    6.9920 o         1 P7B     -0.647500
     34 H5         -1.4290    0.3420    1.6680 ha        1 P7B      0.151000
     35 H7         -2.4970    1.0710   -2.1520 hc        1 P7B      0.039589
     36 H7A        -2.4310    1.3290   -0.3570 hc        1 P7B      0.039589
     37 H7B        -1.2370    2.1630   -1.4370 hc        1 P7B      0.039589
     38 H8         -0.7060   -0.2310   -3.3020 hc        1 P7B      0.039589
     39 H8A         0.5620    0.8460   -2.5830 hc        1 P7B      0.039589
     40 H8B         0.6600   -0.9550   -2.3550 hc        1 P7B      0.039589
     41 H9         -2.3020   -1.1820   -0.0430 hc        1 P7B      0.039589
     42 H9A        -2.3720   -1.3770   -1.8470 hc        1 P7B      0.039589
     43 H9B        -1.0180   -2.1300   -0.9030 hc        1 P7B      0.039589
     44 HN12        3.1600    0.5040    3.1720 hn        1 P7B      0.353500
     45 HN15        5.5250    0.4150    3.1790 hn        1 P7B      0.327500
     46 H17         6.3690    1.2280   -0.2700 ha        1 P7B      0.166000
     47 H18         8.6330    0.9890   -1.2020 ha        1 P7B      0.138000
     48 H19        10.4470   -0.1210    0.1160 ha        1 P7B      0.136000
     49 H22        11.1960   -1.2450    2.1150 ha        1 P7B      0.135000
     50 H23        10.7340   -2.2090    4.3760 ha        1 P7B      0.135000
     51 H24         8.4440   -2.0760    5.3360 ha        1 P7B      0.135000
     52 H25         6.6240   -0.9900    4.1060 ha        1 P7B      0.123000
     53 H27        -0.8510    2.4290    2.4820 h1        1 P7B      0.066200
     54 H27A       -1.0790    3.3960    4.0040 h1        1 P7B      0.066200
     55 H28        -3.1830    2.5710    2.7290 h1        1 P7B      0.051700
     56 H28A       -2.7910    0.8820    3.2960 h1        1 P7B      0.051700
     57 HN29       -4.1340    2.9000    4.7430 hn        1 P7B      0.320500
     58 H31        -1.8130    0.4760    7.2170 hc        1 P7B      0.083200
     59 H31A       -2.1010   -0.1680    5.5450 hc        1 P7B      0.083200
     60 H32        -0.5130    2.4450    6.1310 h1        1 P7B      0.073200
     61 H32A        0.2720    0.7970    6.1830 h1        1 P7B      0.073200
@<TRIPOS>BOND
     1    1    2 1   
     2    1    5 2   
     3    1    6 1   
     4    2    3 1   
     5    3    4 2   
     6    3   12 1   
     7    4    5 1   
     8    4   10 1   
     9    5   34 1   
    10    6    7 1   
    11    6    8 1   
    12    6    9 1   
    13    7   35 1   
    14    7   36 1   
    15    7   37 1   
    16    8   38 1   
    17    8   39 1   
    18    8   40 1   
    19    9   41 1   
    20    9   42 1   
    21    9   43 1   
    22   10   11 2   
    23   10   26 1   
    24   12   13 1   
    25   12   44 1   
    26   13   14 2   
    27   13   15 1   
    28   15   16 1   
    29   15   45 1   
    30   16   17 ar  
    31   16   21 ar  
    32   17   18 ar  
    33   17   46 1   
    34   18   19 ar  
    35   18   47 1   
    36   19   20 ar  
    37   19   48 1   
    38   20   21 ar  
    39   20   22 ar  
    40   21   25 ar  
    41   22   23 ar  
    42   22   49 1   
    43   23   24 ar  
    44   23   50 1   
    45   24   25 ar  
    46   24   51 1   
    47   25   52 1   
    48   26   27 1   
    49   26   32 1   
    50   27   28 1   
    51   27   53 1   
    52   27   54 1   
    53   28   29 1   
    54   28   55 1   
    55   28   56 1   
    56   29   30 1   
    57   29   57 1   
    58   30   31 1   
    59   30   33 2   
    60   31   32 1   
    61   31   58 1   
    62   31   59 1   
    63   32   60 1   
    64   32   61 1   
@<TRIPOS>SUBSTRUCTURE
     1 P7B         1 TEMP              0 ****  ****    0 ROOT
