@<TRIPOS>MOLECULE
P7C
   72    74     1     0     0
SMALL
bcc


@<TRIPOS>ATOM
      1 CL1         1.4790   -0.7390   -2.5490 cl        1 P7C     -0.018400
      2 N2          3.2950    4.4050  -12.4940 n4        1 P7C     -0.673400
      3 S2          6.6690   -2.3090   -3.7110 ss        1 P7C      0.350200
      4 CL2        -0.3020   -1.9240   -0.2650 cl        1 P7C      0.056600
      5 C3          5.4810   -1.1210   -3.7310 cc        1 P7C     -0.227500
      6 C4          5.4340   -0.4630   -4.9970 cd        1 P7C     -0.095600
      7 C5          6.3380   -1.0640   -5.8900 cd        1 P7C     -0.125000
      8 C10         4.4890    0.6460   -5.2790 c         1 P7C      0.715700
      9 C11         7.0800   -2.0880   -5.2810 cc        1 P7C     -0.041400
     10 O11         3.5350    0.8150   -4.4550 o         1 P7C     -0.765100
     11 N12         4.5570   -0.8880   -2.6600 n4        1 P7C     -0.430200
     12 C13         4.7790    0.4350   -1.9790 c         1 P7C      0.496100
     13 C14         8.1360   -2.9170   -5.9360 c3        1 P7C     -0.008700
     14 O14         5.8860    0.8550   -1.6910 o         1 P7C     -0.313100
     15 N15         3.5570    1.2450   -1.6430 n4        1 P7C     -0.501200
     16 C16         2.7550    0.6170   -0.5890 ca        1 P7C     -0.102400
     17 C17         2.9660    0.9930    0.7480 ca        1 P7C     -0.072000
     18 C19         1.1410   -0.4480    1.4270 ca        1 P7C     -0.033000
     19 C20         0.9250   -0.8360    0.0890 ca        1 P7C      0.047400
     20 C22         9.2720   -2.0170   -6.4120 c3        1 P7C     -0.101767
     21 C23         2.1520    0.4530    1.7450 ca        1 P7C     -0.078000
     22 C24         1.7350   -0.3070   -0.9250 ca        1 P7C     -0.024600
     23 C25         3.4770    2.3280   -6.7350 c3        1 P7C      0.054000
     24 C26         5.1450    2.2450   -9.4730 c         1 P7C      0.703500
     25 N26         4.6000    1.4820   -6.3580 n         1 P7C     -0.419800
     26 C28         3.0170    2.1360   -8.2020 c3        1 P7C      0.083000
     27 N29         3.8660    2.7340   -9.1990 n         1 P7C     -0.489800
     28 C33         5.7720    1.2190   -8.5570 c3        1 P7C     -0.171400
     29 C34         5.8200    1.6980   -7.1080 c3        1 P7C      0.076000
     30 C35         3.3650    3.8110  -10.0160 c3        1 P7C      0.087000
     31 C36         2.9700    3.3750  -11.4550 c3        1 P7C      0.077800
     32 C37         4.7230    4.3240  -12.9110 c3        1 P7C      0.078100
     33 C38         2.4010    4.2610  -13.6760 c3        1 P7C      0.078100
     34 H5          6.4490   -0.8050   -6.9500 ha        1 P7C      0.196000
     35 H7          9.0960   -3.4020   -4.0290 hc        1 P7C      0.061478
     36 H7A         7.8700   -4.6320   -4.6000 hc        1 P7C      0.061478
     37 H7B         9.4940   -4.5250   -5.3890 hc        1 P7C      0.061478
     38 H8          8.3400   -4.2750   -7.6140 hc        1 P7C      0.061478
     39 H8A         6.7220   -4.3450   -6.8000 hc        1 P7C      0.061478
     40 H8B         7.1390   -2.9410   -7.8780 hc        1 P7C      0.061478
     41 HN12        3.5760   -0.9060   -3.0640 hn        1 P7C      0.502300
     42 HN15        2.9810    1.3840   -2.5050 hn        1 P7C      0.515300
     43 H17         3.7520    1.7170    1.0320 ha        1 P7C      0.181000
     44 H19         0.4930   -0.8620    2.2270 ha        1 P7C      0.214000
     45 H22        10.0450   -2.6400   -6.9270 hc        1 P7C      0.061478
     46 H22A        8.8910   -1.2550   -7.1320 hc        1 P7C      0.061478
     47 H22B        9.7550   -1.4980   -5.5500 hc        1 P7C      0.061478
     48 H23         2.3120    0.7560    2.7980 ha        1 P7C      0.207000
     49 H25         2.5900    2.0830   -6.0810 h1        1 P7C      0.088700
     50 H25A        3.7630    3.4040   -6.5560 h1        1 P7C      0.088700
     51 H28         2.9110    1.0330   -8.4180 h1        1 P7C      0.076700
     52 H28A        1.9880    2.5970   -8.2680 h1        1 P7C      0.076700
     53 H33         5.2270    0.2440   -8.6670 hc        1 P7C      0.104200
     54 H33A        6.8310    1.0650   -8.9120 hc        1 P7C      0.104200
     55 H34         6.0260    2.8120   -7.1010 h1        1 P7C      0.085700
     56 H34A        6.6880    1.2110   -6.5800 h1        1 P7C      0.085700
     57 H35         2.4590    4.2660   -9.5240 h1        1 P7C      0.081200
     58 H35A        4.1720    4.6020  -10.0670 h1        1 P7C      0.081200
     59 H36         1.8590    3.1860  -11.4880 hx        1 P7C      0.111700
     60 H36A        3.5050    2.4250  -11.7470 hx        1 P7C      0.111700
     61 H37         4.8920    3.3780  -13.4920 hx        1 P7C      0.114200
     62 H37A        4.9680    5.2110  -13.5560 hx        1 P7C      0.114200
     63 H37B        5.3830    4.3130  -11.9990 hx        1 P7C      0.114200
     64 H38         1.3360    4.4420  -13.3690 hx        1 P7C      0.114200
     65 H38A        2.7000    5.0140  -14.4560 hx        1 P7C      0.114200
     66 H38B        2.5020    3.2260  -14.1000 hx        1 P7C      0.114200
     67 C7          8.6730   -3.9240   -4.9230 c3        1 P7C     -0.101767
     68 C8          7.5410   -3.6620   -7.1270 c3        1 P7C     -0.101767
     69 H21         3.1350    5.3370  -12.0850 hn        1 P7C      0.447800
     70 H122        4.6550   -1.6280   -1.9450 hn        1 P7C      0.502300
     71 H152        3.8850    2.1720   -1.3100 hn        1 P7C      0.515300
     72 O33         5.7530    2.6790  -10.4690 o         1 P7C     -0.625500
@<TRIPOS>BOND
     1    1   22 1   
     2    2   31 1   
     3    2   32 1   
     4    2   33 1   
     5    2   69 1   
     6    3    5 1   
     7    3    9 1   
     8    4   19 1   
     9    5    6 2   
    10    5   11 1   
    11    6    7 1   
    12    6    8 1   
    13    7    9 2   
    14    7   34 1   
    15    8   10 2   
    16    8   25 1   
    17    9   13 1   
    18   11   12 1   
    19   11   41 1   
    20   11   70 1   
    21   12   14 2   
    22   12   15 1   
    23   13   20 1   
    24   13   67 1   
    25   13   68 1   
    26   15   16 1   
    27   15   42 1   
    28   15   71 1   
    29   16   17 ar  
    30   16   22 ar  
    31   17   21 ar  
    32   17   43 1   
    33   18   19 ar  
    34   18   21 ar  
    35   18   44 1   
    36   19   22 ar  
    37   20   45 1   
    38   20   46 1   
    39   20   47 1   
    40   21   48 1   
    41   23   25 1   
    42   23   26 1   
    43   23   49 1   
    44   23   50 1   
    45   24   27 1   
    46   24   28 1   
    47   24   72 2   
    48   25   29 1   
    49   26   27 1   
    50   26   51 1   
    51   26   52 1   
    52   27   30 1   
    53   28   29 1   
    54   28   53 1   
    55   28   54 1   
    56   29   55 1   
    57   29   56 1   
    58   30   31 1   
    59   30   57 1   
    60   30   58 1   
    61   31   59 1   
    62   31   60 1   
    63   32   61 1   
    64   32   62 1   
    65   32   63 1   
    66   33   64 1   
    67   33   65 1   
    68   33   66 1   
    69   35   67 1   
    70   36   67 1   
    71   37   67 1   
    72   38   68 1   
    73   39   68 1   
    74   40   68 1   
@<TRIPOS>SUBSTRUCTURE
     1 P7C         1 TEMP              0 ****  ****    0 ROOT
