@<TRIPOS>MOLECULE
P7C
   70    72     1     0     0
SMALL
bcc


@<TRIPOS>ATOM
      1 CL1         0.1760   -0.3930    0.1940 cl        1 P7C     -0.074400
      2 N2          3.8930    4.1730  -13.2900 n4        1 P7C     -0.672400
      3 S2          6.2200   -1.3330   -3.6070 ss        1 P7C      0.191200
      4 CL2        -0.0280   -1.1820    3.2010 cl        1 P7C     -0.056400
      5 C3          4.8250   -0.4450   -3.9630 cc        1 P7C      0.096500
      6 C4          4.7800   -0.1140   -5.3330 cd        1 P7C     -0.273600
      7 C5          5.8950   -0.6660   -6.0320 cd        1 P7C     -0.116000
      8 C10         3.6640    0.6200   -5.9370 c         1 P7C      0.723700
      9 C11         6.7510   -1.3480   -5.1950 cc        1 P7C     -0.163400
     10 O11         2.4890    0.4730   -5.5280 o         1 P7C     -0.630100
     11 N12         3.8580   -0.0850   -3.0450 n         1 P7C     -0.445100
     12 C13         3.9830   -0.4230   -1.6790 c         1 P7C      0.777100
     13 C14         8.0050   -2.0380   -5.6040 c3        1 P7C      0.022300
     14 O14         5.0220   -1.0110   -1.2930 o         1 P7C     -0.617100
     15 N15         2.9530   -0.0240   -0.8190 n         1 P7C     -0.452100
     16 C16         2.8670   -0.4470    0.5220 ca        1 P7C      0.073600
     17 C17         4.0150   -0.6510    1.3140 ca        1 P7C     -0.129000
     18 C19         2.6390   -1.1790    3.2360 ca        1 P7C     -0.130000
     19 C20         1.4880   -0.9790    2.4680 ca        1 P7C      0.041400
     20 C22         8.9680   -1.0370   -6.2340 c3        1 P7C     -0.088767
     21 C23         3.8910   -1.0160    2.6510 ca        1 P7C     -0.098000
     22 C24         1.5880   -0.6230    1.1170 ca        1 P7C     -0.030600
     23 C25         2.7570    2.0850   -7.6860 c3        1 P7C      0.070000
     24 C26         5.0470    2.4080   -9.8550 c         1 P7C      0.714500
     25 N26         3.8830    1.5250   -6.9830 n         1 P7C     -0.488800
     26 C28         2.7390    1.7490   -9.1950 c3        1 P7C      0.072000
     27 N29         3.6650    2.5100  -10.0030 n         1 P7C     -0.483800
     28 C33         5.6420    1.5640   -8.7570 c3        1 P7C     -0.168400
     29 C34         5.1810    2.0060   -7.3640 c3        1 P7C      0.099000
     30 C35         3.1530    3.4590  -10.9530 c3        1 P7C      0.096000
     31 C36         3.4120    3.0440  -12.4280 c3        1 P7C      0.081800
     32 C37         5.3200    4.5060  -13.0220 c3        1 P7C      0.082600
     33 C38         3.6990    3.8430  -14.7270 c3        1 P7C      0.082600
     34 H5          6.0290   -0.5730   -7.1130 ha        1 P7C      0.143000
     35 H7          8.9320   -1.8830   -3.6320 hc        1 P7C      0.041033
     36 H7A         7.9910   -3.4150   -3.9080 hc        1 P7C      0.041033
     37 H7B         9.6110   -3.1880   -4.6900 hc        1 P7C      0.041033
     38 H8          8.6280   -3.6430   -6.9340 hc        1 P7C      0.041033
     39 H8A         7.0030   -3.8930   -6.1660 hc        1 P7C      0.041033
     40 H8B         7.1920   -2.6970   -7.5160 hc        1 P7C      0.041033
     41 HN12        3.0100    0.3000   -3.4110 hn        1 P7C      0.355500
     42 HN15        2.1030    0.3180   -1.2180 hn        1 P7C      0.332500
     43 H17         5.0200   -0.5330    0.8740 ha        1 P7C      0.175000
     44 H19         2.5520   -1.4650    4.2950 ha        1 P7C      0.159000
     45 H22         9.9010   -1.5590   -6.5580 hc        1 P7C      0.041033
     46 H22A        8.4970   -0.5580   -7.1260 hc        1 P7C      0.041033
     47 H22B        9.2390   -0.2420   -5.5000 hc        1 P7C      0.041033
     48 H23         4.7990   -1.1760    3.2530 ha        1 P7C      0.150000
     49 H25         1.8010    1.6730   -7.2470 h1        1 P7C      0.079700
     50 H25A        2.7500    3.2050   -7.5480 h1        1 P7C      0.079700
     51 H28         2.9600    0.6510   -9.3410 h1        1 P7C      0.066200
     52 H28A        1.6900    1.9380   -9.5610 h1        1 P7C      0.066200
     53 H33         5.3960    0.4850   -8.9490 hc        1 P7C      0.094700
     54 H33A        6.7590    1.6810   -8.8130 hc        1 P7C      0.094700
     55 H34         5.1690    3.1370   -7.3380 h1        1 P7C      0.073700
     56 H34A        5.9500    1.6640   -6.6130 h1        1 P7C      0.073700
     57 H35         2.0410    3.5750  -10.8160 h1        1 P7C      0.071200
     58 H35A        3.6340    4.4620  -10.7500 h1        1 P7C      0.071200
     59 H36         2.4510    2.6600  -12.8740 hx        1 P7C      0.108700
     60 H36A        4.1900    2.2280  -12.4850 hx        1 P7C      0.108700
     61 H37         5.9560    3.5930  -13.1730 hx        1 P7C      0.108533
     62 H37A        5.6430    5.3250  -13.7160 hx        1 P7C      0.108533
     63 H37B        5.4340    4.8330  -11.9500 hx        1 P7C      0.108533
     64 H38         2.6090    3.6690  -14.9310 hx        1 P7C      0.108533
     65 H38A        4.0670    4.6980  -15.3560 hx        1 P7C      0.108533
     66 H38B        4.2820    2.9170  -14.9780 hx        1 P7C      0.108533
     67 C7          8.6720   -2.6670   -4.3840 c3        1 P7C     -0.088767
     68 C8          7.6860   -3.1340   -6.6160 c3        1 P7C     -0.088767
     69 H21         3.3280    5.0040  -13.0710 hn        1 P7C      0.442800
     70 O33         5.7690    3.0270  -10.6700 o         1 P7C     -0.694500
@<TRIPOS>BOND
     1    1   22 1   
     2    2   31 1   
     3    2   32 1   
     4    2   33 1   
     5    2   69 1   
     6    3    5 1   
     7    3    9 1   
     8    4   19 1   
     9    5    6 2   
    10    5   11 1   
    11    6    7 1   
    12    6    8 1   
    13    7    9 2   
    14    7   34 1   
    15    8   10 2   
    16    8   25 1   
    17    9   13 1   
    18   11   12 1   
    19   11   41 1   
    20   12   14 2   
    21   12   15 1   
    22   13   20 1   
    23   13   67 1   
    24   13   68 1   
    25   15   16 1   
    26   15   42 1   
    27   16   17 ar  
    28   16   22 ar  
    29   17   21 ar  
    30   17   43 1   
    31   18   19 ar  
    32   18   21 ar  
    33   18   44 1   
    34   19   22 ar  
    35   20   45 1   
    36   20   46 1   
    37   20   47 1   
    38   21   48 1   
    39   23   25 1   
    40   23   26 1   
    41   23   49 1   
    42   23   50 1   
    43   24   27 1   
    44   24   28 1   
    45   24   70 2   
    46   25   29 1   
    47   26   27 1   
    48   26   51 1   
    49   26   52 1   
    50   27   30 1   
    51   28   29 1   
    52   28   53 1   
    53   28   54 1   
    54   29   55 1   
    55   29   56 1   
    56   30   31 1   
    57   30   57 1   
    58   30   58 1   
    59   31   59 1   
    60   31   60 1   
    61   32   61 1   
    62   32   62 1   
    63   32   63 1   
    64   33   64 1   
    65   33   65 1   
    66   33   66 1   
    67   35   67 1   
    68   36   67 1   
    69   37   67 1   
    70   38   68 1   
    71   39   68 1   
    72   40   68 1   
@<TRIPOS>SUBSTRUCTURE
     1 P7C         1 TEMP              0 ****  ****    0 ROOT
