@<TRIPOS>MOLECULE
P7C
   70    72     1     0     0
SMALL
bcc


@<TRIPOS>ATOM
      1 Cl1         0.1770   -0.3800    0.2070 cl        1 P7C     -0.074400
      2 N2          3.8870    4.2130  -13.2710 nx        1 P7C     -0.672400
      3 S2          6.2100   -1.3310   -3.6080 ss        1 P7C      0.192200
      4 Cl2        -0.0250   -1.1780    3.2110 cl        1 P7C     -0.056400
      5 C3          4.8180   -0.4370   -3.9590 cc        1 P7C      0.096500
      6 C4          4.7710   -0.1020   -5.3280 cd        1 P7C     -0.273600
      7 C5          5.8830   -0.6560   -6.0310 cd        1 P7C     -0.116000
      8 C10         3.6570    0.6380   -5.9280 c         1 P7C      0.723700
      9 C11         6.7380   -1.3430   -5.1970 cc        1 P7C     -0.163400
     10 O11         2.4820    0.4950   -5.5170 o         1 P7C     -0.630100
     11 N12         3.8540   -0.0760   -3.0380 ns        1 P7C     -0.445100
     12 C13         3.9800   -0.4180   -1.6740 c         1 P7C      0.777100
     13 C14         7.9890   -2.0370   -5.6100 c3        1 P7C      0.022300
     14 O14         5.0180   -1.0110   -1.2910 o         1 P7C     -0.617100
     15 N15         2.9530   -0.0170   -0.8100 ns        1 P7C     -0.452100
     16 C16         2.8680   -0.4450    0.5300 ca        1 P7C      0.073600
     17 C17         4.0170   -0.6550    1.3190 ca        1 P7C     -0.129000
     18 C19         2.6430   -1.1850    3.2410 ca        1 P7C     -0.130000
     19 C20         1.4910   -0.9780    2.4760 ca        1 P7C      0.041400
     20 C22         8.9540   -1.0380   -6.2400 c3        1 P7C     -0.088767
     21 C23         3.8940   -1.0240    2.6550 ca        1 P7C     -0.098000
     22 C24         1.5900   -0.6180    1.1260 ca        1 P7C     -0.030600
     23 C25         2.7530    2.1120   -7.6710 c3        1 P7C      0.070000
     24 C26         5.0400    2.4340   -9.8430 c         1 P7C      0.714500
     25 N26         3.8780    1.5460   -6.9720 n         1 P7C     -0.488800
     26 C28         2.7310    1.7800   -9.1810 c3        1 P7C      0.072000
     27 N29         3.6580    2.5410   -9.9880 n         1 P7C     -0.483800
     28 C33         5.6340    1.5840   -8.7480 c3        1 P7C     -0.168400
     29 C34         5.1760    2.0240   -7.3530 c3        1 P7C      0.099000
     30 C35         3.1480    3.4940  -10.9340 c3        1 P7C      0.096000
     31 C36         3.4030    3.0830  -12.4120 c3        1 P7C      0.081800
     32 C37         5.3150    4.5410  -13.0030 c3        1 P7C      0.082600
     33 C38         3.6900    3.8880  -14.7080 c3        1 P7C      0.082600
     34 H5          6.0150   -0.5600   -7.1110 ha        1 P7C      0.143000
     35 H7          8.9200   -1.8910   -3.6400 hc        1 P7C      0.041033
     36 H7A         7.9720   -3.4180   -3.9180 hc        1 P7C      0.041033
     37 H7B         9.5910   -3.1970   -4.7030 hc        1 P7C      0.041033
     38 H8          8.6030   -3.6410   -6.9460 hc        1 P7C      0.041033
     39 H8A         6.9790   -3.8870   -6.1760 hc        1 P7C      0.041033
     40 H8B         7.1690   -2.6870   -7.5220 hc        1 P7C      0.041033
     41 HN12        3.0070    0.3130   -3.4010 hn        1 P7C      0.355500
     42 HN15        2.1040    0.3280   -1.2070 hn        1 P7C      0.332500
     43 H17         5.0210   -0.5400    0.8780 ha        1 P7C      0.175000
     44 H19         2.5570   -1.4730    4.3010 ha        1 P7C      0.159000
     45 H22         9.8840   -1.5630   -6.5660 hc        1 P7C      0.041033
     46 H22A        8.4840   -0.5550   -7.1290 hc        1 P7C      0.041033
     47 H22B        9.2290   -0.2460   -5.5040 hc        1 P7C      0.041033
     48 H23         4.8030   -1.1880    3.2550 ha        1 P7C      0.150000
     49 H25         1.7950    1.7020   -7.2320 h1        1 P7C      0.079700
     50 H25A        2.7490    3.2310   -7.5300 h1        1 P7C      0.079700
     51 H28         2.9480    0.6820   -9.3310 h1        1 P7C      0.066200
     52 H28A        1.6820    1.9740   -9.5460 h1        1 P7C      0.066200
     53 H33         5.3840    0.5070   -8.9430 hc        1 P7C      0.094700
     54 H33A        6.7510    1.6970   -8.8060 hc        1 P7C      0.094700
     55 H34         5.1680    3.1540   -7.3240 h1        1 P7C      0.073700
     56 H34A        5.9450    1.6760   -6.6040 h1        1 P7C      0.073700
     57 H35         2.0370    3.6130  -10.7950 h1        1 P7C      0.071200
     58 H35A        3.6330    4.4950  -10.7290 h1        1 P7C      0.071200
     59 H36         2.4410    2.7030  -12.8570 hx        1 P7C      0.108700
     60 H36A        4.1780    2.2650  -12.4720 hx        1 P7C      0.108700
     61 H37         5.9490    3.6260  -13.1580 hx        1 P7C      0.108533
     62 H37A        5.6400    5.3610  -13.6960 hx        1 P7C      0.108533
     63 H37B        5.4330    4.8640  -11.9310 hx        1 P7C      0.108533
     64 H38         2.5990    3.7180  -14.9110 hx        1 P7C      0.108533
     65 H38A        4.0590    4.7440  -15.3350 hx        1 P7C      0.108533
     66 H38B        4.2690    2.9610  -14.9630 hx        1 P7C      0.108533
     67 C7          8.6550   -2.6720   -4.3930 c3        1 P7C     -0.088767
     68 C8          7.6640   -3.1290   -6.6250 c3        1 P7C     -0.088767
     69 H21         3.3250    5.0450  -13.0480 hn        1 P7C      0.442800
     70 O33         5.7630    3.0530  -10.6570 o         1 P7C     -0.694500
@<TRIPOS>BOND
     1    1   22 1   
     2    2   31 1   
     3    2   32 1   
     4    2   33 1   
     5    2   69 1   
     6    3    5 1   
     7    3    9 1   
     8    4   19 1   
     9    5    6 2   
    10    5   11 1   
    11    6    7 1   
    12    6    8 1   
    13    7    9 2   
    14    7   34 1   
    15    8   10 2   
    16    8   25 1   
    17    9   13 1   
    18   11   12 1   
    19   11   41 1   
    20   12   14 2   
    21   12   15 1   
    22   13   20 1   
    23   13   67 1   
    24   13   68 1   
    25   15   16 1   
    26   15   42 1   
    27   16   17 ar  
    28   16   22 ar  
    29   17   21 ar  
    30   17   43 1   
    31   18   19 ar  
    32   18   21 ar  
    33   18   44 1   
    34   19   22 ar  
    35   20   45 1   
    36   20   46 1   
    37   20   47 1   
    38   21   48 1   
    39   23   25 1   
    40   23   26 1   
    41   23   49 1   
    42   23   50 1   
    43   24   27 1   
    44   24   28 1   
    45   24   70 2   
    46   25   29 1   
    47   26   27 1   
    48   26   51 1   
    49   26   52 1   
    50   27   30 1   
    51   28   29 1   
    52   28   53 1   
    53   28   54 1   
    54   29   55 1   
    55   29   56 1   
    56   30   31 1   
    57   30   57 1   
    58   30   58 1   
    59   31   59 1   
    60   31   60 1   
    61   32   61 1   
    62   32   62 1   
    63   32   63 1   
    64   33   64 1   
    65   33   65 1   
    66   33   66 1   
    67   35   67 1   
    68   36   67 1   
    69   37   67 1   
    70   38   68 1   
    71   39   68 1   
    72   40   68 1   
@<TRIPOS>SUBSTRUCTURE
     1 P7C         1 TEMP              0 ****  ****    0 ROOT
