@<TRIPOS>MOLECULE
P7C
   69    71     1     0     0
SMALL
bcc


@<TRIPOS>ATOM
      1 CL1        -5.2570   -3.0280    1.0170 cl        1 P7C     -0.074400
      2 N2          8.6790   -3.0410    0.3600 n3        1 P7C     -0.737600
      3 S2         -1.2030    2.8950   -0.0660 ss        1 P7C      0.150200
      4 CL2        -8.3670   -2.9790    0.8920 cl        1 P7C     -0.066400
      5 C3         -0.8040    1.2510   -0.0470 cc        1 P7C      0.088500
      6 C4          0.5900    1.0770    0.0540 cd        1 P7C     -0.251600
      7 C5          1.2600    2.3310    0.1610 cd        1 P7C     -0.109000
      8 C10         1.2250   -0.2490    0.1340 c         1 P7C      0.711700
      9 C11         0.3880    3.3970    0.1020 cc        1 P7C     -0.160400
     10 O11         0.6660   -1.1820    0.7610 o         1 P7C     -0.647100
     11 N12        -1.7050    0.2030   -0.1160 n         1 P7C     -0.441100
     12 C13        -3.0890    0.4180   -0.2580 c         1 P7C      0.779100
     13 C14         0.7650    4.8350    0.1780 c3        1 P7C      0.024300
     14 O14        -3.5290    1.5860   -0.3840 o         1 P7C     -0.623100
     15 N15        -3.9120   -0.7200   -0.3000 n         1 P7C     -0.460100
     16 C16        -5.3160   -0.6590   -0.3020 ca        1 P7C      0.087600
     17 C17        -6.0190    0.4030   -0.9070 ca        1 P7C     -0.134000
     18 C19        -8.1380   -0.6450   -0.3790 ca        1 P7C     -0.139000
     19 C20        -7.4600   -1.7100    0.2220 ca        1 P7C      0.042400
     20 C22         1.4540    5.1190    1.5090 c3        1 P7C     -0.088767
     21 C23        -7.4100    0.4020   -0.9350 ca        1 P7C     -0.098000
     22 C24        -6.0610   -1.7260    0.2730 ca        1 P7C     -0.035600
     23 C25         3.1300   -1.7430   -0.2580 c3        1 P7C      0.067000
     24 C26         5.5620    0.1620   -1.0650 c         1 P7C      0.694500
     25 N26         2.4290   -0.5060   -0.5120 n         1 P7C     -0.470800
     26 C28         4.5270   -1.5570    0.3800 c3        1 P7C      0.076000
     27 N29         5.5560   -1.1170   -0.5270 n         1 P7C     -0.477800
     28 C33         4.3530    1.0540   -0.8730 c3        1 P7C     -0.175400
     29 C34         3.0700    0.4160   -1.4110 c3        1 P7C      0.097000
     30 C35         6.6920   -1.9890   -0.7270 c3        1 P7C      0.089000
     31 C36         7.6940   -1.9720    0.4530 c3        1 P7C      0.145800
     32 C37         9.5790   -2.8930   -0.7610 c3        1 P7C      0.154600
     33 C38         9.3760   -3.2490    1.6110 c3        1 P7C      0.154600
     34 H5          2.3420    2.4190    0.2900 ha        1 P7C      0.154000
     35 H7          2.0160    6.2560   -0.8940 hc        1 P7C      0.040033
     36 H7A         2.6330    4.5490   -0.9070 hc        1 P7C      0.040033
     37 H7B         1.2220    5.0110   -1.9480 hc        1 P7C      0.040033
     38 H8         -0.9990    5.5300   -0.9060 hc        1 P7C      0.040033
     39 H8A        -1.1920    5.4810    0.9010 hc        1 P7C      0.040033
     40 H8B        -0.1980    6.7850    0.1280 hc        1 P7C      0.040033
     41 HN12       -1.3370   -0.7090    0.0720 hn        1 P7C      0.359500
     42 HN15       -3.5160   -1.6030   -0.0540 hn        1 P7C      0.333500
     43 H17        -5.4680    1.2490   -1.3530 ha        1 P7C      0.178000
     44 H19        -9.2380   -0.6370   -0.4090 ha        1 P7C      0.154000
     45 H22         1.7530    6.1930    1.5610 hc        1 P7C      0.040033
     46 H22A        0.7670    4.8960    2.3590 hc        1 P7C      0.040033
     47 H22B        2.3680    4.4850    1.6130 hc        1 P7C      0.040033
     48 H23        -7.9400    1.2440   -1.4070 ha        1 P7C      0.146000
     49 H25         2.5220   -2.3750    0.4530 h1        1 P7C      0.073700
     50 H25A        3.2310   -2.3070   -1.2300 h1        1 P7C      0.073700
     51 H28         4.4490   -0.8360    1.2440 h1        1 P7C      0.057200
     52 H28A        4.8250   -2.5610    0.8000 h1        1 P7C      0.057200
     53 H33         4.2620    1.3200    0.2120 hc        1 P7C      0.080200
     54 H33A        4.5430    2.0010   -1.4460 hc        1 P7C      0.080200
     55 H34         3.3240   -0.1430   -2.3610 h1        1 P7C      0.067200
     56 H34A        2.3490    1.2360   -1.6910 h1        1 P7C      0.067200
     57 H35         6.3110   -3.0380   -0.8810 h1        1 P7C      0.068700
     58 H35A        7.2260   -1.6620   -1.6650 h1        1 P7C      0.068700
     59 H36         7.1260   -2.1120    1.4160 h1        1 P7C      0.036700
     60 H36A        8.1830   -0.9540    0.4900 h1        1 P7C      0.036700
     61 H37        10.1750   -1.9390   -0.7300 h1        1 P7C      0.032533
     62 H37A       10.2930   -3.7590   -0.7740 h1        1 P7C      0.032533
     63 H37B        8.9820   -2.9090   -1.7110 h1        1 P7C      0.032533
     64 H38         8.6280   -3.4860    2.4130 h1        1 P7C      0.032533
     65 H38A       10.0670   -4.1240    1.4980 h1        1 P7C      0.032533
     66 H38B        9.9780   -2.3570    1.9380 h1        1 P7C      0.032533
     67 O33         6.5420    0.5690   -1.7230 o         1 P7C     -0.644500
     68 C7          1.7160    5.1830   -0.9630 c3        1 P7C     -0.088767
     69 C8         -0.4820    5.7070    0.0680 c3        1 P7C     -0.088767
@<TRIPOS>BOND
     1    1   22 1   
     2    2   31 1   
     3    2   32 1   
     4    2   33 1   
     5    3    5 1   
     6    3    9 1   
     7    4   19 1   
     8    5    6 2   
     9    5   11 1   
    10    6    7 1   
    11    6    8 1   
    12    7    9 2   
    13    7   34 1   
    14    8   10 2   
    15    8   25 1   
    16    9   13 1   
    17   11   12 1   
    18   11   41 1   
    19   12   14 2   
    20   12   15 1   
    21   13   20 1   
    22   13   68 1   
    23   13   69 1   
    24   15   16 1   
    25   15   42 1   
    26   16   17 ar  
    27   16   22 ar  
    28   17   21 ar  
    29   17   43 1   
    30   18   19 ar  
    31   18   21 ar  
    32   18   44 1   
    33   19   22 ar  
    34   20   45 1   
    35   20   46 1   
    36   20   47 1   
    37   21   48 1   
    38   23   25 1   
    39   23   26 1   
    40   23   49 1   
    41   23   50 1   
    42   24   27 1   
    43   24   28 1   
    44   24   67 2   
    45   25   29 1   
    46   26   27 1   
    47   26   51 1   
    48   26   52 1   
    49   27   30 1   
    50   28   29 1   
    51   28   53 1   
    52   28   54 1   
    53   29   55 1   
    54   29   56 1   
    55   30   31 1   
    56   30   57 1   
    57   30   58 1   
    58   31   59 1   
    59   31   60 1   
    60   32   61 1   
    61   32   62 1   
    62   32   63 1   
    63   33   64 1   
    64   33   65 1   
    65   33   66 1   
    66   35   68 1   
    67   36   68 1   
    68   37   68 1   
    69   38   69 1   
    70   39   69 1   
    71   40   69 1   
@<TRIPOS>SUBSTRUCTURE
     1 P7C         1 TEMP              0 ****  ****    0 ROOT
