@<TRIPOS>MOLECULE
P7I
   13    12     1     0     0
SMALL
bcc


@<TRIPOS>ATOM
      1 NAA        -1.9960    0.0000   -0.7020 n3        1 P7I     -0.915800
      2 OAB         2.2530   -1.2330    0.0130 o         1 P7I     -0.961833
      3 OAC         2.2530    1.2330    0.0130 o         1 P7I     -0.961833
      4 OAD         2.2530    0.0000    2.1480 o         1 P7I     -0.961833
      5 CAE        -0.5710    0.0000   -0.7020 c3        1 P7I      0.138800
      6 CAF        -0.0660    0.0000    0.7240 c3        1 P7I     -0.258600
      7 PAG         1.7490   -0.0000    0.7240 p5        1 P7I      1.214700
      8 HNAA       -2.3000    0.7450   -1.1320 hn        1 P7I      0.284800
      9 HNAB       -2.3000   -0.7450   -1.1320 hn        1 P7I      0.284800
     10 HAE        -0.2450    0.7970   -1.1620 h1        1 P7I      0.054700
     11 HAEA       -0.2450   -0.7970   -1.1620 h1        1 P7I      0.054700
     12 HAF        -0.3920    0.7970    1.1850 hc        1 P7I      0.012700
     13 HAFA       -0.3920   -0.7970    1.1850 hc        1 P7I      0.012700
@<TRIPOS>BOND
     1    1    5 1   
     2    1    8 1   
     3    1    9 1   
     4    2    7 1   
     5    3    7 1   
     6    4    7 1   
     7    5    6 1   
     8    5   10 1   
     9    5   11 1   
    10    6    7 1   
    11    6   12 1   
    12    6   13 1   
@<TRIPOS>SUBSTRUCTURE
     1 P7I         1 TEMP              0 ****  ****    0 ROOT
