@<TRIPOS>MOLECULE
P7I
   13    12     1     0     0
SMALL
bcc


@<TRIPOS>ATOM
      1 NAA         2.9180    0.5430    0.3380 n3        1 P7I     -0.929800
      2 OAB         0.1560    1.3630    1.0780 o         1 P7I     -0.962500
      3 OAC        -1.4800   -0.6000    1.1920 o         1 P7I     -0.962500
      4 OAD        -1.0500    0.5790   -1.0290 o         1 P7I     -0.962500
      5 CAE         1.9730   -0.0940   -0.5710 c3        1 P7I      0.204800
      6 CAF         0.8530   -0.9000    0.0250 c3        1 P7I     -0.306600
      7 PAG        -0.5350    0.2250    0.3480 p5        1 P7I      1.220700
      8 HNAA        2.4700    1.3630    0.7230 hn        1 P7I      0.334300
      9 HNAB        3.0770   -0.0740    1.1150 hn        1 P7I      0.334300
     10 HAE         1.4960    0.7110   -1.2050 h1        1 P7I      0.000700
     11 HAEA        2.6010   -0.7420   -1.2590 h1        1 P7I      0.000700
     12 HAF         0.5010   -1.6660   -0.6950 hc        1 P7I      0.013700
     13 HAFA        1.1310   -1.4010    0.9740 hc        1 P7I      0.013700
@<TRIPOS>BOND
     1    1    5 1   
     2    1    8 1   
     3    1    9 1   
     4    2    7 1   
     5    3    7 1   
     6    4    7 1   
     7    5    6 1   
     8    5   10 1   
     9    5   11 1   
    10    6    7 1   
    11    6   12 1   
    12    6   13 1   
@<TRIPOS>SUBSTRUCTURE
     1 P7I         1 TEMP              0 ****  ****    0 ROOT
