@<TRIPOS>MOLECULE
P7Y
   19    19     1     0     0
SMALL
bcc


@<TRIPOS>ATOM
      1 C1          0.4400   -0.6740    0.6650 c2        1 P7Y     -0.239100
      2 N1          0.7210    0.4630   -0.2290 no        1 P7Y      0.285100
      3 O1          1.7630    1.0450   -0.0740 o         1 P7Y     -0.215500
      4 C2         -0.7330   -1.0240    1.2120 ce        1 P7Y      0.016800
      5 O2         -0.0440    0.7680   -1.1050 o         1 P7Y     -0.215500
      6 C1'        -2.0450   -0.4190    1.0980 ca        1 P7Y     -0.134800
      7 C2'        -2.8240   -0.2800    2.2720 ca        1 P7Y      0.150100
      8 O2'        -2.2560   -0.7150    3.4470 oh        1 P7Y     -0.502100
      9 C3'        -4.1090    0.2780    2.2280 ca        1 P7Y     -0.222000
     10 C4'        -4.6360    0.6820    1.0040 ca        1 P7Y     -0.067000
     11 C5'        -3.8910    0.5290   -0.1650 ca        1 P7Y     -0.169000
     12 C6'        -2.6090   -0.0170   -0.1180 ca        1 P7Y     -0.051000
     13 H1          1.3790   -1.2140    0.8940 h4        1 P7Y      0.183000
     14 H2         -0.7040   -1.8850    1.9160 ha        1 P7Y      0.162000
     15 HO2'       -2.8810   -0.5410    4.1670 ho        1 P7Y      0.428000
     16 H3'        -4.6920    0.3920    3.1520 ha        1 P7Y      0.139000
     17 H4'        -5.6440    1.1200    0.9630 ha        1 P7Y      0.139000
     18 H5'        -4.3120    0.8430   -1.1310 ha        1 P7Y      0.144000
     19 H6'        -2.0340   -0.1350   -1.0530 ha        1 P7Y      0.169000
@<TRIPOS>BOND
     1    1    2 1   
     2    1    4 2   
     3    1   13 1   
     4    2    3 1   
     5    2    5 1   
     6    4    6 1   
     7    4   14 1   
     8    6    7 ar  
     9    6   12 ar  
    10    7    8 1   
    11    7    9 ar  
    12    8   15 1   
    13    9   10 ar  
    14    9   16 1   
    15   10   11 ar  
    16   10   17 1   
    17   11   12 ar  
    18   11   18 1   
    19   12   19 1   
@<TRIPOS>SUBSTRUCTURE
     1 P7Y         1 TEMP              0 ****  ****    0 ROOT
