@<TRIPOS>MOLECULE
P7Y
   19    19     1     0     0
SMALL
bcc


@<TRIPOS>ATOM
      1 C1         -1.7110    0.5600   -0.0530 c2        1 P7Y     -0.258100
      2 N1         -3.1160    0.1210   -0.0070 no        1 P7Y      0.284100
      3 O1         -3.3820   -1.0460    0.1190 o         1 P7Y     -0.217000
      4 C2         -0.6810   -0.3050    0.0320 ce        1 P7Y      0.017800
      5 O2         -3.9720    0.9630   -0.0980 o         1 P7Y     -0.217000
      6 C1'         0.7110    0.0910   -0.0030 ca        1 P7Y     -0.122800
      7 C2'         1.7120   -0.9010   -0.1340 ca        1 P7Y      0.163100
      8 O2'         1.2890   -2.2040   -0.2280 oh        1 P7Y     -0.493100
      9 C3'         3.0720   -0.5580   -0.1690 ca        1 P7Y     -0.221000
     10 C4'         3.4440    0.7780   -0.0690 ca        1 P7Y     -0.062000
     11 C5'         2.4710    1.7700    0.0660 ca        1 P7Y     -0.170000
     12 C6'         1.1230    1.4290    0.0980 ca        1 P7Y     -0.065000
     13 H1         -1.6340    1.6530   -0.1670 h4        1 P7Y      0.180000
     14 H2         -0.8670   -1.3970    0.1270 ha        1 P7Y      0.181000
     15 HO2'        2.0700   -2.7730   -0.3050 ho        1 P7Y      0.431000
     16 H3'         3.8340   -1.3440   -0.2740 ha        1 P7Y      0.142000
     17 H4'         4.5100    1.0520   -0.0960 ha        1 P7Y      0.142000
     18 H5'         2.7710    2.8260    0.1470 ha        1 P7Y      0.144000
     19 H6'         0.3670    2.2220    0.2120 ha        1 P7Y      0.141000
@<TRIPOS>BOND
     1    1    2 1   
     2    1    4 2   
     3    1   13 1   
     4    2    3 1   
     5    2    5 1   
     6    4    6 1   
     7    4   14 1   
     8    6    7 ar  
     9    6   12 ar  
    10    7    8 1   
    11    7    9 ar  
    12    8   15 1   
    13    9   10 ar  
    14    9   16 1   
    15   10   11 ar  
    16   10   17 1   
    17   11   12 ar  
    18   11   18 1   
    19   12   19 1   
@<TRIPOS>SUBSTRUCTURE
     1 P7Y         1 TEMP              0 ****  ****    0 ROOT
