@<TRIPOS>MOLECULE
P7Y
   19    15     1     0     0
SMALL
bcc


@<TRIPOS>ATOM
      1 C1         -0.6220   -2.4270   -0.5070 c1        1 P7Y     -0.103500
      2 N1          0.7290   -2.5120   -0.0810 n2        1 P7Y      0.449400
      3 O1          1.0050   -2.3820    1.1020 o         1 P7Y     -0.311200
      4 C2         -1.2140   -1.2220   -0.6300 c1        1 P7Y     -0.103500
      5 O2          1.7150   -2.7730   -0.9880 o         1 P7Y     -0.311200
      6 C1'        -0.4390    0.0390   -0.3140 c1        1 P7Y     -0.009000
      7 C2'        -0.4640    0.5640    0.9690 c1        1 P7Y     -0.009000
      8 O2'        -1.1650   -0.1050    1.9900 o         1 P7Y     -0.256000
      9 C3'         0.2020    1.7490    1.2460 c2        1 P7Y     -0.136500
     10 C4'         0.8920    2.4080    0.2410 c1        1 P7Y     -0.118000
     11 C5'         0.9160    1.8820   -1.0420 c1        1 P7Y     -0.118000
     12 C6'         0.2510    0.6980   -1.3200 c2        1 P7Y     -0.136500
     13 H1         -1.1220   -3.2400   -0.7110 ha        1 P7Y      0.172500
     14 H2         -2.1430   -1.1630   -0.9230 ha        1 P7Y      0.172500
     15 HO2'       -1.7570    0.4490    2.3560 ho        1 P7Y      0.227000
     16 H3'         0.1840    2.1180    2.1490 ha        1 P7Y      0.154000
     17 H4'         1.3600    3.2420    0.4360 ha        1 P7Y      0.141500
     18 H5'         1.4020    2.3470   -1.7510 ha        1 P7Y      0.141500
     19 H6'         0.2690    0.3290   -2.2230 ha        1 P7Y      0.154000
@<TRIPOS>BOND
     1    1    4 1   
     2    1   13 1   
     3    2    3 2   
     4    2    5 2   
     5    4   14 1   
     6    6    7 1   
     7    6   12 1   
     8    7    9 1   
     9    8   15 1   
    10    9   10 1   
    11    9   16 1   
    12   10   17 1   
    13   11   12 1   
    14   11   18 1   
    15   12   19 1   
@<TRIPOS>SUBSTRUCTURE
     1 P7Y         1 TEMP              0 ****  ****    0 ROOT
