@<TRIPOS>MOLECULE
P80
   19    19     1     0     0
SMALL
bcc


@<TRIPOS>ATOM
      1 C1         -1.9600   -0.3620    0.0960 c2        1 P80     -0.238100
      2 N1         -3.3510    0.1180    0.0020 no        1 P80      0.281100
      3 O1         -4.2350   -0.6690    0.2140 o         1 P80     -0.212500
      4 C2         -0.9020    0.4400   -0.1280 ce        1 P80     -0.003200
      5 O2         -3.5730    1.2680   -0.2790 o         1 P80     -0.212500
      6 C1'         0.4780   -0.0080   -0.0450 ca        1 P80     -0.060800
      7 C2'         1.4820    0.9600    0.0920 ca        1 P80     -0.126000
      8 C3'         2.8210    0.5510    0.1760 ca        1 P80      0.122100
      9 O3'         3.7540    1.5530    0.3160 oh        1 P80     -0.492100
     10 C4'         3.1670   -0.8060    0.1160 ca        1 P80     -0.188000
     11 C5'         2.1590   -1.7560   -0.0290 ca        1 P80     -0.094000
     12 C6'         0.8240   -1.3660   -0.1090 ca        1 P80     -0.136000
     13 H1         -1.9170   -1.4300    0.3710 h4        1 P80      0.185000
     14 H2         -1.0490    1.5100   -0.3830 ha        1 P80      0.168000
     15 H2'         1.2390    2.0320    0.1390 ha        1 P80      0.159000
     16 HO3'        4.6300    1.1420    0.3610 ho        1 P80      0.424000
     17 H4'         4.2210   -1.1150    0.1810 ha        1 P80      0.141000
     18 H5'         2.4210   -2.8240   -0.0810 ha        1 P80      0.142000
     19 H6'         0.0420   -2.1310   -0.2320 ha        1 P80      0.140000
@<TRIPOS>BOND
     1    1    2 1   
     2    1    4 2   
     3    1   13 1   
     4    2    3 1   
     5    2    5 1   
     6    4    6 1   
     7    4   14 1   
     8    6    7 ar  
     9    6   12 ar  
    10    7    8 ar  
    11    7   15 1   
    12    8    9 1   
    13    8   10 ar  
    14    9   16 1   
    15   10   11 ar  
    16   10   17 1   
    17   11   12 ar  
    18   11   18 1   
    19   12   19 1   
@<TRIPOS>SUBSTRUCTURE
     1 P80         1 TEMP              0 ****  ****    0 ROOT
