@<TRIPOS>MOLECULE
P80
   19    19     1     0     0
SMALL
bcc


@<TRIPOS>ATOM
      1 C1          0.1000   -0.1000   -0.0410 c2        1 P80     -0.238100
      2 N1          1.5620    0.0930   -0.0490 no        1 P80      0.281100
      3 O1          2.1800   -0.2370    0.9280 o         1 P80     -0.212500
      4 C2         -0.6790    0.2420   -1.0830 ce        1 P80     -0.003200
      5 O2          2.1010    0.5670   -1.0160 o         1 P80     -0.212500
      6 C1'        -2.1220    0.0660   -1.1000 ca        1 P80     -0.060800
      7 C2'        -2.7770    0.0820   -2.3390 ca        1 P80     -0.126000
      8 C3'        -4.1690   -0.0890   -2.3800 ca        1 P80      0.122100
      9 O3'        -4.7460   -0.0700   -3.6290 oh        1 P80     -0.492100
     10 C4'        -4.9110   -0.2650   -1.2030 ca        1 P80     -0.188000
     11 C5'        -4.2460   -0.2690    0.0210 ca        1 P80     -0.094000
     12 C6'        -2.8640   -0.1060    0.0780 ca        1 P80     -0.136000
     13 H1         -0.2440   -0.5520    0.9050 h4        1 P80      0.185000
     14 H2         -0.2350    0.6760   -2.0020 ha        1 P80      0.168000
     15 H2'        -2.2200    0.2200   -3.2780 ha        1 P80      0.159000
     16 HO3'       -5.7000   -0.1950   -3.5200 ho        1 P80      0.424000
     17 H4'        -6.0010   -0.3950   -1.2480 ha        1 P80      0.141000
     18 H5'        -4.8200   -0.4010    0.9510 ha        1 P80      0.142000
     19 H6'        -2.3580   -0.1030    1.0550 ha        1 P80      0.140000
@<TRIPOS>BOND
     1    1    2 1   
     2    1    4 2   
     3    1   13 1   
     4    2    3 1   
     5    2    5 1   
     6    4    6 1   
     7    4   14 1   
     8    6    7 ar  
     9    6   12 ar  
    10    7    8 ar  
    11    7   15 1   
    12    8    9 1   
    13    8   10 ar  
    14    9   16 1   
    15   10   11 ar  
    16   10   17 1   
    17   11   12 ar  
    18   11   18 1   
    19   12   19 1   
@<TRIPOS>SUBSTRUCTURE
     1 P80         1 TEMP              0 ****  ****    0 ROOT
