@<TRIPOS>MOLECULE
P80
   19    15     1     0     0
SMALL
bcc


@<TRIPOS>ATOM
      1 C1         -0.7350    2.5950    0.3660 c1        1 P80     -0.109500
      2 N1          0.6590    2.6530    0.1080 n2        1 P80      0.446400
      3 O1          1.4550    2.6310    1.0360 o         1 P80     -0.303200
      4 C2         -1.3550    1.4010    0.4530 c1        1 P80     -0.109500
      5 O2          1.1120    2.7590   -1.1760 o         1 P80     -0.303200
      6 C1'        -0.5660    0.1240    0.2740 c1        1 P80     -0.062000
      7 C2'        -0.4550   -0.4530   -0.9820 c1        1 P80     -0.135000
      8 C3'         0.2360   -1.6440   -1.1390 c1        1 P80      0.074000
      9 O3'         0.3890   -2.2050   -2.4210 oh        1 P80     -0.250000
     10 C4'         0.8150   -2.2600   -0.0400 c1        1 P80     -0.191000
     11 C5'         0.7050   -1.6830    1.2150 c1        1 P80     -0.093000
     12 C6'         0.0140   -0.4920    1.3730 c2        1 P80     -0.125000
     13 H1         -1.2440    3.4200    0.4810 ha        1 P80      0.170000
     14 H2         -2.3140    1.3620    0.6300 ha        1 P80      0.170000
     15 H2'        -0.8820   -0.0310   -1.7520 ha        1 P80      0.153000
     16 HO3'       -0.1840   -2.8770   -2.5210 ho        1 P80      0.221000
     17 H4'         1.3020   -3.0990   -0.1510 ha        1 P80      0.139000
     18 H5'         1.1130   -2.1160    1.9890 ha        1 P80      0.143000
     19 H6'        -0.0640   -0.0860    2.2570 ha        1 P80      0.166000
@<TRIPOS>BOND
     1    1    4 1   
     2    1   13 1   
     3    2    3 2   
     4    2    5 2   
     5    4   14 1   
     6    6    7 1   
     7    6   12 1   
     8    7   15 1   
     9    8    9 1   
    10    8   10 1   
    11    9   16 1   
    12   10   17 1   
    13   11   12 1   
    14   11   18 1   
    15   12   19 1   
@<TRIPOS>SUBSTRUCTURE
     1 P80         1 TEMP              0 ****  ****    0 ROOT
