@<TRIPOS>MOLECULE
P81
   19    19     1     0     0
SMALL
bcc


@<TRIPOS>ATOM
      1 C1          0.3810   -0.7250    0.6190 c2        1 P81     -0.234100
      2 N1          0.6120    0.5370   -0.1100 no        1 P81      0.284100
      3 O1          1.5750    1.1900    0.1980 o         1 P81     -0.212000
      4 C2         -0.7790   -1.1740    1.1190 ce        1 P81      0.001800
      5 O2         -0.1130    0.8690   -1.0100 o         1 P81     -0.212000
      6 C1'        -2.0990   -0.5750    1.0940 ca        1 P81     -0.149800
      7 C2'        -2.6720   -0.0590   -0.0750 ca        1 P81     -0.056000
      8 C3'        -3.9560    0.4800   -0.0540 ca        1 P81     -0.192500
      9 C4'        -4.6750    0.5050    1.1490 ca        1 P81      0.150100
     10 O4'        -5.9420    1.0220    1.2480 oh        1 P81     -0.491100
     11 C5'        -4.1170   -0.0180    2.3300 ca        1 P81     -0.192500
     12 C6'        -2.8420   -0.5600    2.2900 ca        1 P81     -0.056000
     13 H1          1.3370   -1.2640    0.7550 h4        1 P81      0.182000
     14 H2         -0.7280   -2.1320    1.6790 ha        1 P81      0.150000
     15 H2'        -2.1100   -0.0760   -1.0240 ha        1 P81      0.152000
     16 H3'        -4.3980    0.8860   -0.9750 ha        1 P81      0.149500
     17 HO4'       -6.1970    1.3650    0.3780 ho        1 P81      0.425000
     18 H5'        -4.6990    0.0090    3.2630 ha        1 P81      0.149500
     19 H6'        -2.4000   -0.9750    3.2090 ha        1 P81      0.152000
@<TRIPOS>BOND
     1    1    2 1   
     2    1    4 2   
     3    1   13 1   
     4    2    3 1   
     5    2    5 1   
     6    4    6 1   
     7    4   14 1   
     8    6    7 ar  
     9    6   12 ar  
    10    7    8 ar  
    11    7   15 1   
    12    8    9 ar  
    13    8   16 1   
    14    9   10 1   
    15    9   11 ar  
    16   10   17 1   
    17   11   12 ar  
    18   11   18 1   
    19   12   19 1   
@<TRIPOS>SUBSTRUCTURE
     1 P81         1 TEMP              0 ****  ****    0 ROOT
