@<TRIPOS>MOLECULE
P81
   19    15     1     0     0
SMALL
bcc


@<TRIPOS>ATOM
      1 C1         -1.9570   -1.8430    0.7950 c1        1 P81     -0.108500
      2 N1         -2.6900   -0.7320    0.3040 n2        1 P81      0.448400
      3 O1         -3.0490   -0.7050   -0.8640 o         1 P81     -0.307700
      4 C2         -0.6090   -1.8150    0.7930 c1        1 P81     -0.108500
      5 O2         -3.0250    0.2900    1.1450 o         1 P81     -0.307700
      6 C1'         0.1220   -0.6000    0.2670 c1        1 P81     -0.138000
      7 C2'         0.3870   -0.4840   -1.0890 c2        1 P81     -0.043000
      8 C3'         1.1090    0.5990   -1.5640 c1        1 P81     -0.220000
      9 C4'         1.5660    1.5670   -0.6840 c1        1 P81      0.105000
     10 O4'         2.2760    2.6810   -1.1690 oh        1 P81     -0.245000
     11 C5'         1.3010    1.4520    0.6720 c1        1 P81     -0.165000
     12 C6'         0.5790    0.3680    1.1470 c1        1 P81     -0.069000
     13 H1         -2.4280   -2.6270    1.1350 ha        1 P81      0.166000
     14 H2         -0.1050   -2.5800    1.1310 ha        1 P81      0.166000
     15 H2'         0.0650   -1.1660   -1.7090 ha        1 P81      0.167000
     16 H3'         1.2950    0.6810   -2.5190 ha        1 P81      0.143000
     17 HO4'        3.1450    2.4940   -1.1860 ho        1 P81      0.224000
     18 H5'         1.6240    2.1330    1.2920 ha        1 P81      0.156000
     19 H6'         0.3930    0.2870    2.1020 ha        1 P81      0.137000
@<TRIPOS>BOND
     1    1    4 1   
     2    1   13 1   
     3    2    3 2   
     4    2    5 2   
     5    4   14 1   
     6    6    7 1   
     7    6   12 1   
     8    7    8 1   
     9    7   15 1   
    10    8   16 1   
    11    9   10 1   
    12    9   11 1   
    13   10   17 1   
    14   11   18 1   
    15   12   19 1   
@<TRIPOS>SUBSTRUCTURE
     1 P81         1 TEMP              0 ****  ****    0 ROOT
