@<TRIPOS>MOLECULE
P81
   19    19     1     0     0
SMALL
bcc


@<TRIPOS>ATOM
      1 C1         -1.9540    0.4070   -0.0310 c2        1 P81     -0.256100
      2 N1         -3.3960    0.1080   -0.0600 no        1 P81      0.284100
      3 O1         -3.7740   -1.0350   -0.0450 o         1 P81     -0.216500
      4 C2         -1.0170   -0.5600    0.0130 ce        1 P81      0.010800
      5 O2         -4.1650    1.0330   -0.0970 o         1 P81     -0.216500
      6 C1'         0.4090   -0.3170    0.0430 ca        1 P81     -0.134800
      7 C2'         0.9540    0.9730    0.1320 ca        1 P81     -0.055500
      8 C3'         2.3310    1.1640    0.1590 ca        1 P81     -0.193500
      9 C4'         3.1820    0.0510    0.0970 ca        1 P81      0.157100
     10 O4'         4.5490    0.1570    0.1170 oh        1 P81     -0.487100
     11 C5'         2.6560   -1.2520    0.0090 ca        1 P81     -0.193500
     12 C6'         1.2800   -1.4230   -0.0160 ca        1 P81     -0.055500
     13 H1         -1.7670    1.4940   -0.0520 h4        1 P81      0.181000
     14 H2         -1.3230   -1.6270    0.0240 ha        1 P81      0.163000
     15 H2'         0.2920    1.8520    0.1850 ha        1 P81      0.141500
     16 H3'         2.7490    2.1780    0.2300 ha        1 P81      0.151500
     17 HO4'        4.7800    1.0970    0.1790 ho        1 P81      0.427000
     18 H5'         3.3410   -2.1110   -0.0390 ha        1 P81      0.151500
     19 H6'         0.8630   -2.4410   -0.0840 ha        1 P81      0.141500
@<TRIPOS>BOND
     1    1    2 1   
     2    1    4 2   
     3    1   13 1   
     4    2    3 1   
     5    2    5 1   
     6    4    6 1   
     7    4   14 1   
     8    6    7 ar  
     9    6   12 ar  
    10    7    8 ar  
    11    7   15 1   
    12    8    9 ar  
    13    8   16 1   
    14    9   10 1   
    15    9   11 ar  
    16   10   17 1   
    17   11   12 ar  
    18   11   18 1   
    19   12   19 1   
@<TRIPOS>SUBSTRUCTURE
     1 P81         1 TEMP              0 ****  ****    0 ROOT
