@<TRIPOS>MOLECULE
P83
   37    39     1     0     0
SMALL
bcc


@<TRIPOS>ATOM
      1 C1         -0.0170   -0.0520    0.0130 ca        1 P83     -0.157000
      2 C2          1.3690   -0.0380   -0.0070 ca        1 P83     -0.072000
      3 C3          2.1240   -0.0090    1.1800 ca        1 P83     -0.257300
      4 C4          1.4930    0.0160    2.4330 ca        1 P83     -0.039000
      5 C4A         0.1130    0.0010    2.4880 cp        1 P83     -0.080000
      6 C4B        -0.8430    0.0180    3.5790 cp        1 P83     -0.089000
      7 C5         -0.7170    0.0600    4.9620 ca        1 P83     -0.075000
      8 C6         -1.8710    0.0680    5.7410 ca        1 P83     -0.141000
      9 C7         -3.1420    0.0350    5.1520 ca        1 P83     -0.086000
     10 C8         -3.3060   -0.0080    3.7690 ca        1 P83     -0.139000
     11 C8A        -2.1550   -0.0170    2.9740 ca        1 P83     -0.005200
     12 N9         -2.0250   -0.0870    1.5670 na        1 P83     -0.056300
     13 C9A        -0.6670   -0.0380    1.2590 ca        1 P83      0.049800
     14 C91        -3.1060    0.0370    0.6260 c3        1 P83      0.038300
     15 C92        -3.4810    1.4610    0.2450 c3        1 P83     -0.125100
     16 C31         3.6030    0.0350    1.1050 c3        1 P83      0.191100
     17 N32         4.1670   -1.3670    1.0990 ny        1 P83     -0.769000
     18 C33         5.6410   -1.3820    1.0260 c3        1 P83      0.076100
     19 H1         -0.5930   -0.0640   -0.9250 ha        1 P83      0.158000
     20 H2          1.8870   -0.0310   -0.9790 ha        1 P83      0.132000
     21 H4          2.0820    0.0630    3.3610 ha        1 P83      0.138000
     22 H311        3.9540    0.5390    0.1590 hx        1 P83      0.102700
     23 H312        4.0470    0.5700    1.9920 hx        1 P83      0.102700
     24 H5          0.2770    0.0900    5.4310 ha        1 P83      0.136000
     25 H6         -1.7870    0.1030    6.8380 ha        1 P83      0.148000
     26 H7         -4.0350    0.0440    5.7970 ha        1 P83      0.149000
     27 H8         -4.3100   -0.0310    3.3230 ha        1 P83      0.150000
     28 H911       -2.8140   -0.5300   -0.3040 h1        1 P83      0.067700
     29 H912       -4.0050   -0.4730    1.0810 h1        1 P83      0.067700
     30 H921       -2.6250    1.9900   -0.2390 hc        1 P83      0.056033
     31 H922       -4.3320    1.4220   -0.4770 hc        1 P83      0.056033
     32 H923       -3.8000    2.0490    1.1400 hc        1 P83      0.056033
     33 H32         3.8530   -1.8470    1.9510 hn        1 P83      0.450800
     34 H331        5.9770   -0.8700    0.0850 hx        1 P83      0.105367
     35 H332        6.0680   -0.8410    1.9130 hx        1 P83      0.105367
     36 H333        6.0070   -2.4450    1.0250 hx        1 P83      0.105367
     37 H322        3.7710   -1.8730    0.2980 hn        1 P83      0.450800
@<TRIPOS>BOND
     1    1    2 ar  
     2    1   13 ar  
     3    1   19 1   
     4    2    3 ar  
     5    2   20 1   
     6    3    4 ar  
     7    3   16 1   
     8    4    5 ar  
     9    4   21 1   
    10    5    6 1   
    11    5   13 ar  
    12    6    7 ar  
    13    6   11 ar  
    14    7    8 ar  
    15    7   24 1   
    16    8    9 ar  
    17    8   25 1   
    18    9   10 ar  
    19    9   26 1   
    20   10   11 ar  
    21   10   27 1   
    22   11   12 1   
    23   12   13 1   
    24   12   14 1   
    25   14   15 1   
    26   14   28 1   
    27   14   29 1   
    28   15   30 1   
    29   15   31 1   
    30   15   32 1   
    31   16   17 1   
    32   16   22 1   
    33   16   23 1   
    34   17   18 1   
    35   17   33 1   
    36   17   37 1   
    37   18   34 1   
    38   18   35 1   
    39   18   36 1   
@<TRIPOS>SUBSTRUCTURE
     1 P83         1 TEMP              0 ****  ****    0 ROOT
