@<TRIPOS>MOLECULE
P83
   36    38     1     0     0
SMALL
bcc


@<TRIPOS>ATOM
      1 C1        124.8370  105.1660  -41.0280 ca        1 P83     -0.158000
      2 C2        124.7570  106.5560  -40.9810 ca        1 P83     -0.083000
      3 C3        124.6130  107.3260  -42.1440 ca        1 P83     -0.127300
      4 C4        124.5490  106.7130  -43.3990 ca        1 P83     -0.072000
      5 C4A       124.6350  105.3320  -43.4790 cp        1 P83     -0.080000
      6 C4B       124.6100  104.3960  -44.5890 cp        1 P83     -0.075000
      7 C5        124.4940  104.5490  -45.9630 ca        1 P83     -0.079000
      8 C6        124.5100  103.4120  -46.7710 ca        1 P83     -0.160000
      9 C7        124.6380  102.1360  -46.2160 ca        1 P83     -0.104000
     10 C8        124.7510  101.9450  -44.8400 ca        1 P83     -0.154000
     11 C8A       124.7360  103.0740  -44.0160 ca        1 P83     -0.010200
     12 N9        124.7600  103.1650  -42.6030 na        1 P83     -0.065300
     13 C9A       124.7750  104.5420  -42.2770 ca        1 P83     -0.006200
     14 C91       125.3130  102.1450  -41.7550 c3        1 P83      0.037300
     15 C92       126.8310  102.0510  -41.7130 c3        1 P83     -0.128100
     16 C31       124.5600  108.8230  -42.0460 c3        1 P83      0.211100
     17 N32       123.5500  109.3070  -41.1210 n3        1 P83     -0.828200
     18 C33       123.2790  110.7130  -41.2550 c3        1 P83      0.152100
     19 H1        124.9460  104.5820  -40.1040 ha        1 P83      0.137000
     20 H2        124.8070  107.0650  -40.0050 ha        1 P83      0.147000
     21 H4        124.4330  107.3140  -44.3140 ha        1 P83      0.135000
     22 H311      125.5580  109.1940  -41.6680 h1        1 P83      0.035700
     23 H312      124.4200  109.2540  -43.0830 h1        1 P83      0.035700
     24 H5        124.3900  105.5500  -46.4040 ha        1 P83      0.135000
     25 H6        124.4200  103.5210  -47.8620 ha        1 P83      0.131000
     26 H7        124.6490  101.2570  -46.8790 ha        1 P83      0.130000
     27 H8        124.8490  100.9350  -44.4190 ha        1 P83      0.135000
     28 H911      124.9290  102.3380  -40.7110 h1        1 P83      0.058200
     29 H912      124.8940  101.1580  -42.1060 h1        1 P83      0.058200
     30 H921      127.2470  101.8340  -42.7260 hc        1 P83      0.047367
     31 H922      127.2820  103.0030  -41.3430 hc        1 P83      0.047367
     32 H923      127.1220  101.2240  -41.0220 hc        1 P83      0.047367
     33 H32       122.7080  108.7700  -41.2060 hn        1 P83      0.363800
     34 H331      124.2200  111.2890  -41.0520 h1        1 P83      0.029033
     35 H332      122.9020  111.0100  -42.2740 h1        1 P83      0.029033
     36 H333      122.5080  111.0010  -40.4930 h1        1 P83      0.029033
@<TRIPOS>BOND
     1    1    2 ar  
     2    1   13 ar  
     3    1   19 1   
     4    2    3 ar  
     5    2   20 1   
     6    3    4 ar  
     7    3   16 1   
     8    4    5 ar  
     9    4   21 1   
    10    5    6 1   
    11    5   13 ar  
    12    6    7 ar  
    13    6   11 ar  
    14    7    8 ar  
    15    7   24 1   
    16    8    9 ar  
    17    8   25 1   
    18    9   10 ar  
    19    9   26 1   
    20   10   11 ar  
    21   10   27 1   
    22   11   12 1   
    23   12   13 1   
    24   12   14 1   
    25   14   15 1   
    26   14   28 1   
    27   14   29 1   
    28   15   30 1   
    29   15   31 1   
    30   15   32 1   
    31   16   17 1   
    32   16   22 1   
    33   16   23 1   
    34   17   18 1   
    35   17   33 1   
    36   18   34 1   
    37   18   35 1   
    38   18   36 1   
@<TRIPOS>SUBSTRUCTURE
     1 P83         1 TEMP              0 ****  ****    0 ROOT
