@<TRIPOS>MOLECULE
P83
   37    39     1     0     0
SMALL
bcc


@<TRIPOS>ATOM
      1 C1         -0.0170   -0.0510    0.0120 ca        1 P83     -0.157000
      2 C2          1.3690   -0.0360   -0.0060 ca        1 P83     -0.072000
      3 C3          2.1240   -0.0090    1.1810 ca        1 P83     -0.257300
      4 C4          1.4920    0.0160    2.4330 ca        1 P83     -0.039000
      5 C4A         0.1130    0.0010    2.4880 cp        1 P83     -0.080000
      6 C4B        -0.8440    0.0180    3.5780 cp        1 P83     -0.089000
      7 C5         -0.7180    0.0590    4.9620 ca        1 P83     -0.075000
      8 C6         -1.8730    0.0660    5.7400 ca        1 P83     -0.141000
      9 C7         -3.1430    0.0330    5.1500 ca        1 P83     -0.086000
     10 C8         -3.3070   -0.0090    3.7680 ca        1 P83     -0.139000
     11 C8A        -2.1550   -0.0170    2.9740 ca        1 P83     -0.005200
     12 N9         -2.0250   -0.0870    1.5660 na        1 P83     -0.056300
     13 C9A        -0.6670   -0.0370    1.2580 ca        1 P83      0.049800
     14 C91        -3.1060    0.0380    0.6250 c3        1 P83      0.038300
     15 C92        -3.4800    1.4630    0.2440 c3        1 P83     -0.125100
     16 C31         3.6030    0.0350    1.1060 c3        1 P83      0.191100
     17 N32         4.1670   -1.3670    1.1000 n4        1 P83     -0.769000
     18 C33         5.6410   -1.3820    1.0290 c3        1 P83      0.076100
     19 H1         -0.5920   -0.0620   -0.9250 ha        1 P83      0.158000
     20 H2          1.8880   -0.0290   -0.9780 ha        1 P83      0.132000
     21 H4          2.0820    0.0620    3.3620 ha        1 P83      0.138000
     22 H311        3.9550    0.5400    0.1610 hx        1 P83      0.102700
     23 H312        4.0470    0.5690    1.9940 hx        1 P83      0.102700
     24 H5          0.2760    0.0870    5.4310 ha        1 P83      0.136000
     25 H6         -1.7890    0.1010    6.8370 ha        1 P83      0.148000
     26 H7         -4.0360    0.0420    5.7950 ha        1 P83      0.149000
     27 H8         -4.3100   -0.0310    3.3210 ha        1 P83      0.150000
     28 H911       -2.8130   -0.5290   -0.3060 h1        1 P83      0.067700
     29 H912       -4.0050   -0.4710    1.0790 h1        1 P83      0.067700
     30 H921       -3.7990    2.0500    1.1390 hc        1 P83      0.056033
     31 H922       -4.3310    1.4240   -0.4790 hc        1 P83      0.056033
     32 H923       -2.6240    1.9910   -0.2400 hc        1 P83      0.056033
     33 H32         3.7720   -1.8720    0.2980 hn        1 P83      0.450800
     34 H331        6.0670   -0.8420    1.9170 hx        1 P83      0.105367
     35 H332        5.9780   -0.8690    0.0880 hx        1 P83      0.105367
     36 H333        6.0070   -2.4450    1.0270 hx        1 P83      0.105367
     37 H322        3.8520   -1.8480    1.9510 hn        1 P83      0.450800
@<TRIPOS>BOND
     1    1    2 ar  
     2    1   13 ar  
     3    1   19 1   
     4    2    3 ar  
     5    2   20 1   
     6    3    4 ar  
     7    3   16 1   
     8    4    5 ar  
     9    4   21 1   
    10    5    6 1   
    11    5   13 ar  
    12    6    7 ar  
    13    6   11 ar  
    14    7    8 ar  
    15    7   24 1   
    16    8    9 ar  
    17    8   25 1   
    18    9   10 ar  
    19    9   26 1   
    20   10   11 ar  
    21   10   27 1   
    22   11   12 1   
    23   12   13 1   
    24   12   14 1   
    25   14   15 1   
    26   14   28 1   
    27   14   29 1   
    28   15   30 1   
    29   15   31 1   
    30   15   32 1   
    31   16   17 1   
    32   16   22 1   
    33   16   23 1   
    34   17   18 1   
    35   17   33 1   
    36   17   37 1   
    37   18   34 1   
    38   18   35 1   
    39   18   36 1   
@<TRIPOS>SUBSTRUCTURE
     1 P83         1 TEMP              0 ****  ****    0 ROOT
