@<TRIPOS>MOLECULE
P83
   36    29     1     0     0
SMALL
bcc


@<TRIPOS>ATOM
      1 C1         -0.0630   -0.0500   -1.8410 c1        1 P83     -0.123000
      2 C2          1.3400   -0.0560   -1.8690 c1        1 P83     -0.123000
      3 C3          2.0560   -0.0510   -0.6780 c1        1 P83     -0.120000
      4 C4          1.3820   -0.0420    0.5350 c1        1 P83     -0.072000
      5 C4A        -0.0440   -0.0360    0.5630 c1        1 P83     -0.080000
      6 C4B        -0.9470    0.0050    1.6100 c1        1 P83     -0.020000
      7 C5         -0.7680    0.0270    3.0010 c1        1 P83     -0.123000
      8 C6         -1.8910    0.0700    3.8580 c1        1 P83     -0.123000
      9 C7         -3.1860    0.0910    3.3170 c1        1 P83     -0.123000
     10 C8         -3.3620    0.0700    1.9430 c1        1 P83     -0.123000
     11 C8A        -2.2210    0.0260    1.0750 c1        1 P83     -0.020000
     12 N9         -2.1060   -0.0020   -0.2820 n1        1 P83     -0.175000
     13 C9A        -0.7480   -0.0410   -0.6010 c1        1 P83      0.039000
     14 C91        -3.2370   -0.2250   -1.1800 c2        1 P83     -0.022000
     15 C92        -3.7760    1.0960   -1.6270 c3        1 P83     -0.246000
     16 C31         3.5770    0.1910   -0.6820 c3        1 P83     -0.033000
     17 N32         4.2380   -1.0230   -1.0320 n3        1 P83     -0.307000
     18 C33         5.5260   -0.7470   -1.5310 c3        1 P83     -0.124000
     19 H1         -0.5600   -0.0520   -2.6650 ha        1 P83      0.135833
     20 H2          1.8170   -0.0650   -2.7270 ha        1 P83      0.135833
     21 H4          1.8820   -0.0390    1.3650 ha        1 P83      0.135000
     22 H311        3.8680    0.4780    0.2170 h1        1 P83      0.075000
     23 H312        3.8070    0.9230   -1.3670 h1        1 P83      0.075000
     24 H5          0.1400    0.0120    3.3800 ha        1 P83      0.135833
     25 H6         -1.7640    0.0820    4.8420 ha        1 P83      0.135833
     26 H7         -3.9500    0.1230    3.8980 ha        1 P83      0.135833
     27 H8         -4.2730    0.0840    1.5630 ha        1 P83      0.135833
     28 H911       -3.9340   -0.7190   -0.7120 ha        1 P83      0.097500
     29 H912       -2.9400   -0.7410   -1.9620 ha        1 P83      0.097500
     30 H921       -4.7380    1.1330   -1.4550 hc        1 P83      0.086667
     31 H922       -3.6060    1.2130   -2.6130 hc        1 P83      0.086667
     32 H923       -3.3170    1.8310   -1.1180 hc        1 P83      0.086667
     33 H32         4.3040   -1.5460   -0.3080 hn        1 P83      0.159000
     34 H331        6.0820   -0.2820   -0.8090 h1        1 P83      0.068333
     35 H332        5.4550   -0.1590   -2.3230 h1        1 P83      0.068333
     36 H333        5.9550   -1.5780   -1.7840 h1        1 P83      0.068333
@<TRIPOS>BOND
     1    1    2 1   
     2    1   19 1   
     3    2   20 1   
     4    3    4 1   
     5    3   16 1   
     6    4   21 1   
     7    5   13 1   
     8    6   11 1   
     9    7    8 1   
    10    7   24 1   
    11    8   25 1   
    12    9   10 1   
    13    9   26 1   
    14   10   27 1   
    15   12   13 1   
    16   14   15 1   
    17   14   28 1   
    18   14   29 1   
    19   15   30 1   
    20   15   31 1   
    21   15   32 1   
    22   16   17 1   
    23   16   22 1   
    24   16   23 1   
    25   17   18 1   
    26   17   33 1   
    27   18   34 1   
    28   18   35 1   
    29   18   36 1   
@<TRIPOS>SUBSTRUCTURE
     1 P83         1 TEMP              0 ****  ****    0 ROOT
