@<TRIPOS>MOLECULE
P83
   37    39     1     0     0
SMALL
bcc


@<TRIPOS>ATOM
      1 C1         -0.0190   -0.0550    0.0120 ca        1 P83     -0.157000
      2 C2          1.3670   -0.0410   -0.0080 ca        1 P83     -0.072000
      3 C3          2.1230   -0.0100    1.1770 ca        1 P83     -0.257300
      4 C4          1.4930    0.0180    2.4310 ca        1 P83     -0.039000
      5 C4A         0.1140    0.0020    2.4880 cp        1 P83     -0.080000
      6 C4B        -0.8410    0.0210    3.5790 cp        1 P83     -0.089000
      7 C5         -0.7130    0.0650    4.9620 ca        1 P83     -0.075000
      8 C6         -1.8670    0.0740    5.7420 ca        1 P83     -0.141000
      9 C7         -3.1380    0.0390    5.1550 ca        1 P83     -0.086000
     10 C8         -3.3040   -0.0060    3.7730 ca        1 P83     -0.139000
     11 C8A        -2.1530   -0.0160    2.9770 ca        1 P83     -0.005200
     12 N9         -2.0250   -0.0890    1.5690 na        1 P83     -0.056300
     13 C9A        -0.6680   -0.0390    1.2590 ca        1 P83      0.049800
     14 C91        -3.1080    0.0340    0.6290 c3        1 P83      0.038300
     15 C92        -3.4850    1.4570    0.2480 c3        1 P83     -0.125100
     16 C31         3.6020    0.0350    1.1000 c3        1 P83      0.191100
     17 N32         4.1670   -1.3670    1.0970 n4        1 P83     -0.769000
     18 C33         5.6410   -1.3810    1.0230 c3        1 P83      0.076100
     19 H1         -0.5960   -0.0700   -0.9240 ha        1 P83      0.158000
     20 H2          1.8850   -0.0360   -0.9810 ha        1 P83      0.132000
     21 H4          2.0840    0.0670    3.3580 ha        1 P83      0.138000
     22 H311        3.9520    0.5370    0.1540 hx        1 P83      0.102700
     23 H312        4.0470    0.5720    1.9870 hx        1 P83      0.102700
     24 H5          0.2810    0.0960    5.4300 ha        1 P83      0.136000
     25 H6         -1.7820    0.1110    6.8390 ha        1 P83      0.148000
     26 H7         -4.0310    0.0490    5.8010 ha        1 P83      0.149000
     27 H8         -4.3080   -0.0300    3.3270 ha        1 P83      0.150000
     28 H911       -2.8150   -0.5330   -0.3010 h1        1 P83      0.067700
     29 H912       -4.0050   -0.4770    1.0850 h1        1 P83      0.067700
     30 H921       -2.6300    1.9870   -0.2370 hc        1 P83      0.056033
     31 H922       -4.3360    1.4160   -0.4740 hc        1 P83      0.056033
     32 H923       -3.8040    2.0450    1.1430 hc        1 P83      0.056033
     33 H32         3.8540   -1.8450    1.9510 hn        1 P83      0.450800
     34 H331        5.9760   -0.8710    0.0800 hx        1 P83      0.105367
     35 H332        6.0680   -0.8380    1.9090 hx        1 P83      0.105367
     36 H333        6.0070   -2.4440    1.0240 hx        1 P83      0.105367
     37 H322        3.7700   -1.8750    0.2980 hn        1 P83      0.450800
@<TRIPOS>BOND
     1    1    2 ar  
     2    1   13 ar  
     3    1   19 1   
     4    2    3 ar  
     5    2   20 1   
     6    3    4 ar  
     7    3   16 1   
     8    4    5 ar  
     9    4   21 1   
    10    5    6 1   
    11    5   13 ar  
    12    6    7 ar  
    13    6   11 ar  
    14    7    8 ar  
    15    7   24 1   
    16    8    9 ar  
    17    8   25 1   
    18    9   10 ar  
    19    9   26 1   
    20   10   11 ar  
    21   10   27 1   
    22   11   12 1   
    23   12   13 1   
    24   12   14 1   
    25   14   15 1   
    26   14   28 1   
    27   14   29 1   
    28   15   30 1   
    29   15   31 1   
    30   15   32 1   
    31   16   17 1   
    32   16   22 1   
    33   16   23 1   
    34   17   18 1   
    35   17   33 1   
    36   17   37 1   
    37   18   34 1   
    38   18   35 1   
    39   18   36 1   
@<TRIPOS>SUBSTRUCTURE
     1 P83         1 TEMP              0 ****  ****    0 ROOT
