@<TRIPOS>MOLECULE
P84
   40    41     1     0     0
SMALL
bcc


@<TRIPOS>ATOM
      1 C1         -0.0390   -0.0020    0.1070 ca        1 P84     -0.210300
      2 C2          1.3550   -0.2150    0.0310 ca        1 P84      0.187100
      3 C3          2.1670   -0.0560    1.1650 ca        1 P84     -0.063100
      4 C4         -0.8750   -0.0700   -1.1260 c3        1 P84      0.189100
      5 N5         -0.9180   -1.4510   -1.7250 nx        1 P84     -0.685400
      6 C6          1.5680    0.3120    2.3730 ca        1 P84      0.008000
      7 C8         -0.6090    0.3610    1.3300 ca        1 P84     -0.020000
      8 C9         -1.6210   -2.3980   -0.8280 c3        1 P84      0.084100
      9 C10         0.1890    0.5160    2.4610 ca        1 P84     -0.018100
     10 I15         4.1680   -0.3280    1.1270 i         1 P84     -0.071900
     11 O16         1.8190   -0.6000   -1.2030 oh        1 P84     -0.537100
     12 I17        -0.6450    1.0420    4.2200 i         1 P84     -0.068900
     13 C11        -3.4990   -1.1510   -4.5950 c3        1 P84      0.170300
     14 C12        -1.6620   -2.5290   -5.3500 c3        1 P84      0.170300
     15 C13        -1.1200   -2.6640   -3.9240 c3        1 P84     -0.099400
     16 C14        -1.5060   -1.4170   -3.1200 c3        1 P84      0.125500
     17 N6         -3.0990   -2.3080   -5.3800 n3        1 P84     -0.739600
     18 C15        -3.0260   -1.2440   -3.1410 c3        1 P84     -0.099400
     19 C16        -3.6400   -2.2960   -6.7210 c3        1 P84      0.155100
     20 H41C       -1.9350    0.2480   -0.9140 hx        1 P84      0.106200
     21 H42C       -0.4300    0.6190   -1.9040 hx        1 P84      0.106200
     22 H8         -1.6970    0.5360    1.3900 ha        1 P84      0.159000
     23 H16         2.7930   -0.6030   -1.1930 ho        1 P84      0.466000
     24 H6          2.1990    0.4440    3.2720 ha        1 P84      0.182000
     25 H91C       -1.6580   -3.4120   -1.3080 hx        1 P84      0.100700
     26 H92C       -2.6660   -2.0370   -0.6340 hx        1 P84      0.100700
     27 H93C       -1.0650   -2.4580    0.1470 hx        1 P84      0.100700
     28 H141       -1.0360   -0.5170   -3.6270 hx        1 P84      0.098700
     29 H111       -3.1170   -0.1840   -5.0370 h1        1 P84      0.055450
     30 H112       -4.6250   -1.1080   -4.5940 h1        1 P84      0.055450
     31 H131       -1.5450   -3.5870   -3.4490 hc        1 P84      0.068950
     32 H132       -0.0060   -2.7740   -3.9790 hc        1 P84      0.068950
     33 H121       -1.4490   -3.4910   -5.8970 h1        1 P84      0.055450
     34 H122       -1.0940   -1.7030   -5.8720 h1        1 P84      0.055450
     35 H151       -3.3280   -0.3060   -2.6080 hc        1 P84      0.068950
     36 H152       -3.5280   -2.1150   -2.6430 hc        1 P84      0.068950
     37 H161       -3.3720   -3.2610   -7.2260 h1        1 P84      0.049033
     38 H162       -4.7580   -2.2220   -6.6560 h1        1 P84      0.049033
     39 H163       -3.2570   -1.4430   -7.3450 h1        1 P84      0.049033
     40 H51         0.0600   -1.7720   -1.8230 hn        1 P84      0.461800
@<TRIPOS>BOND
     1    1    2 ar  
     2    1    4 1   
     3    1    7 ar  
     4    2    3 ar  
     5    2   11 1   
     6    3    6 ar  
     7    3   10 1   
     8    4    5 1   
     9    4   20 1   
    10    4   21 1   
    11    5    8 1   
    12    5   16 1   
    13    5   40 1   
    14    6    9 ar  
    15    6   24 1   
    16    7    9 ar  
    17    7   22 1   
    18    8   25 1   
    19    8   26 1   
    20    8   27 1   
    21    9   12 1   
    22   11   23 1   
    23   13   17 1   
    24   13   18 1   
    25   13   29 1   
    26   13   30 1   
    27   14   15 1   
    28   14   17 1   
    29   14   33 1   
    30   14   34 1   
    31   15   16 1   
    32   15   31 1   
    33   15   32 1   
    34   16   18 1   
    35   16   28 1   
    36   17   19 1   
    37   18   35 1   
    38   18   36 1   
    39   19   37 1   
    40   19   38 1   
    41   19   39 1   
@<TRIPOS>SUBSTRUCTURE
     1 P84         1 TEMP              0 ****  ****    0 ROOT
