@<TRIPOS>MOLECULE
P84
   40    41     1     0     0
SMALL
bcc


@<TRIPOS>ATOM
      1 C1         -0.0530   -0.0050    0.0990 ca        1 P84     -0.210300
      2 C2          1.3420   -0.2100    0.0240 ca        1 P84      0.187100
      3 C3          2.1520   -0.0480    1.1590 ca        1 P84     -0.063100
      4 C4         -0.8870   -0.0770   -1.1350 c3        1 P84      0.189100
      5 N5         -0.9220   -1.4570   -1.7350 n4        1 P84     -0.685400
      6 C6          1.5510    0.3160    2.3660 ca        1 P84      0.008000
      7 C8         -0.6260    0.3540    1.3210 ca        1 P84     -0.020000
      8 C9         -1.6200   -2.4090   -0.8390 c3        1 P84      0.084100
      9 C10         0.1710    0.5130    2.4540 ca        1 P84     -0.018100
     10 I15         4.1550   -0.3090    1.1220 i         1 P84     -0.071900
     11 O16         1.8090   -0.5920   -1.2100 oh        1 P84     -0.537100
     12 I17        -0.6680    1.0320    4.2120 i         1 P84     -0.068900
     13 C11        -3.5050   -1.1700   -4.6050 c3        1 P84      0.170300
     14 C12        -1.6590   -2.5360   -5.3610 c3        1 P84      0.170300
     15 C13        -1.1170   -2.6700   -3.9350 c3        1 P84     -0.099400
     16 C14        -1.5110   -1.4250   -3.1310 c3        1 P84      0.125500
     17 N6         -3.0970   -2.3240   -5.3920 n3        1 P84     -0.739600
     18 C15        -3.0310   -1.2620   -3.1510 c3        1 P84     -0.099400
     19 C16        -3.6390   -2.3140   -6.7320 c3        1 P84      0.155100
     20 H41C       -1.9500    0.2350   -0.9240 hx        1 P84      0.106200
     21 H42C       -0.4460    0.6160   -1.9120 hx        1 P84      0.106200
     22 H8         -1.7150    0.5230    1.3810 ha        1 P84      0.159000
     23 H16         2.7840   -0.5890   -1.2000 ho        1 P84      0.466000
     24 H6          2.1800    0.4510    3.2660 ha        1 P84      0.182000
     25 H91C       -1.6520   -3.4230   -1.3200 hx        1 P84      0.100700
     26 H92C       -2.6670   -2.0550   -0.6450 hx        1 P84      0.100700
     27 H93C       -1.0640   -2.4680    0.1350 hx        1 P84      0.100700
     28 H141       -1.0460   -0.5220   -3.6370 hx        1 P84      0.098700
     29 H111       -4.6310   -1.1340   -4.6040 h1        1 P84      0.055450
     30 H112       -3.1280   -0.2000   -5.0460 h1        1 P84      0.055450
     31 H131       -0.0020   -2.7720   -3.9910 hc        1 P84      0.068950
     32 H132       -1.5360   -3.5950   -3.4620 hc        1 P84      0.068950
     33 H121       -1.0960   -1.7060   -5.8820 h1        1 P84      0.055450
     34 H122       -1.4410   -3.4960   -5.9090 h1        1 P84      0.055450
     35 H151       -3.3390   -0.3260   -2.6180 hc        1 P84      0.068950
     36 H152       -3.5280   -2.1360   -2.6540 hc        1 P84      0.068950
     37 H161       -3.3650   -3.2770   -7.2380 h1        1 P84      0.049033
     38 H162       -3.2610   -1.4580   -7.3550 h1        1 P84      0.049033
     39 H163       -4.7570   -2.2470   -6.6680 h1        1 P84      0.049033
     40 H51         0.0570   -1.7720   -1.8330 hn        1 P84      0.461800
@<TRIPOS>BOND
     1    1    2 ar  
     2    1    4 1   
     3    1    7 ar  
     4    2    3 ar  
     5    2   11 1   
     6    3    6 ar  
     7    3   10 1   
     8    4    5 1   
     9    4   20 1   
    10    4   21 1   
    11    5    8 1   
    12    5   16 1   
    13    5   40 1   
    14    6    9 ar  
    15    6   24 1   
    16    7    9 ar  
    17    7   22 1   
    18    8   25 1   
    19    8   26 1   
    20    8   27 1   
    21    9   12 1   
    22   11   23 1   
    23   13   17 1   
    24   13   18 1   
    25   13   29 1   
    26   13   30 1   
    27   14   15 1   
    28   14   17 1   
    29   14   33 1   
    30   14   34 1   
    31   15   16 1   
    32   15   31 1   
    33   15   32 1   
    34   16   18 1   
    35   16   28 1   
    36   17   19 1   
    37   18   35 1   
    38   18   36 1   
    39   19   37 1   
    40   19   38 1   
    41   19   39 1   
@<TRIPOS>SUBSTRUCTURE
     1 P84         1 TEMP              0 ****  ****    0 ROOT
