@<TRIPOS>MOLECULE
P84
   39    40     1     0     0
SMALL
bcc


@<TRIPOS>ATOM
      1 C1          0.5010    0.2580    0.6120 ca        1 P84     -0.110300
      2 C2          0.0860   -1.0840    0.7770 ca        1 P84      0.200100
      3 C3         -1.2610   -1.4390    0.5920 ca        1 P84     -0.075100
      4 C4          1.9430    0.6310    0.8150 c3        1 P84      0.228100
      5 N5          2.7450    0.4200   -0.3850 n3        1 P84     -0.733600
      6 C6         -2.1840   -0.4490    0.2470 ca        1 P84     -0.026000
      7 C8         -0.4430    1.2210    0.2720 ca        1 P84     -0.046000
      8 C9          2.5960    1.4750   -1.3590 c3        1 P84      0.155100
      9 C10        -1.7850    0.8740    0.0920 ca        1 P84     -0.023100
     10 I15        -1.9390   -3.3330    0.7960 i         1 P84     -0.133900
     11 O16         1.0660   -1.9680    1.1450 oh        1 P84     -0.479100
     12 I17        -3.1360    2.2910   -0.3960 i         1 P84     -0.133900
     13 C11         6.3160    0.5360    1.0560 c3        1 P84      0.171800
     14 C12         6.3000   -0.8670   -0.9260 c3        1 P84      0.171800
     15 C13         4.9330   -0.3230   -1.3350 c3        1 P84     -0.093900
     16 C14         4.1270    0.0510   -0.0830 c3        1 P84      0.187500
     17 N6          7.0640    0.0560   -0.0980 n3        1 P84     -0.734600
     18 C15         4.9410    1.0930    0.7010 c3        1 P84     -0.093900
     19 C16         8.3570   -0.4750    0.2680 c3        1 P84      0.158100
     20 H41C        1.9890    1.7070    1.1600 h1        1 P84      0.047200
     21 H42C        2.3520   -0.0110    1.6490 h1        1 P84      0.047200
     22 H8         -0.1180    2.2680    0.1460 ha        1 P84      0.149000
     23 H16         0.6810   -2.8600    1.1840 ho        1 P84      0.431000
     24 H6         -3.2430   -0.7240    0.0990 ha        1 P84      0.156000
     25 H91C        3.1270    2.4250   -1.0760 h1        1 P84      0.032700
     26 H92C        3.0000    1.1170   -2.3420 h1        1 P84      0.032700
     27 H93C        1.5040    1.7030   -1.4850 h1        1 P84      0.032700
     28 H141        4.0550   -0.8810    0.5590 h1        1 P84      0.059700
     29 H111        6.1810   -0.2800    1.8280 h1        1 P84      0.030450
     30 H112        6.9250    1.3550    1.5320 h1        1 P84      0.030450
     31 H131        5.0660    0.5750   -1.9920 hc        1 P84      0.052200
     32 H132        4.3970   -1.1110   -1.9230 hc        1 P84      0.052200
     33 H121        6.1510   -1.8610   -0.4090 h1        1 P84      0.030450
     34 H122        6.9020   -1.0580   -1.8590 h1        1 P84      0.030450
     35 H151        4.4150    1.3630    1.6520 hc        1 P84      0.052200
     36 H152        5.0530    2.0270    0.0910 hc        1 P84      0.052200
     37 H161        8.2950   -1.3920    0.9170 h1        1 P84      0.031367
     38 H162        8.9180   -0.7380   -0.6670 h1        1 P84      0.031367
     39 H163        8.9290    0.3140    0.8220 h1        1 P84      0.031367
@<TRIPOS>BOND
     1    1    2 ar  
     2    1    4 1   
     3    1    7 ar  
     4    2    3 ar  
     5    2   11 1   
     6    3    6 ar  
     7    3   10 1   
     8    4    5 1   
     9    4   20 1   
    10    4   21 1   
    11    5    8 1   
    12    5   16 1   
    13    6    9 ar  
    14    6   24 1   
    15    7    9 ar  
    16    7   22 1   
    17    8   25 1   
    18    8   26 1   
    19    8   27 1   
    20    9   12 1   
    21   11   23 1   
    22   13   17 1   
    23   13   18 1   
    24   13   29 1   
    25   13   30 1   
    26   14   15 1   
    27   14   17 1   
    28   14   33 1   
    29   14   34 1   
    30   15   16 1   
    31   15   31 1   
    32   15   32 1   
    33   16   18 1   
    34   16   28 1   
    35   17   19 1   
    36   18   35 1   
    37   18   36 1   
    38   19   37 1   
    39   19   38 1   
    40   19   39 1   
@<TRIPOS>SUBSTRUCTURE
     1 P84         1 TEMP              0 ****  ****    0 ROOT
