@<TRIPOS>MOLECULE
P84
   40    41     1     0     0
SMALL
bcc


@<TRIPOS>ATOM
      1 C1         -0.0370   -0.0000    0.1080 ca        1 P84     -0.210300
      2 C2          1.3590   -0.2080    0.0290 ca        1 P84      0.187100
      3 C3          2.1720   -0.0480    1.1610 ca        1 P84     -0.063100
      4 C4         -0.8750   -0.0710   -1.1230 c3        1 P84      0.189100
      5 N5         -0.9130   -1.4500   -1.7240 n4        1 P84     -0.685400
      6 C6          1.5750    0.3170    2.3700 ca        1 P84      0.008000
      7 C8         -0.6050    0.3580    1.3320 ca        1 P84     -0.020000
      8 C9         -1.6100   -2.4020   -0.8270 c3        1 P84      0.084100
      9 C10         0.1950    0.5150    2.4620 ca        1 P84     -0.018100
     10 I15         4.1740   -0.3110    1.1180 i         1 P84     -0.071900
     11 O16         1.8210   -0.5890   -1.2070 oh        1 P84     -0.537100
     12 I17        -0.6380    1.0340    4.2230 i         1 P84     -0.068900
     13 C11        -3.5030   -1.1580   -4.5870 c3        1 P84      0.170300
     14 C12        -1.6620   -2.5270   -5.3490 c3        1 P84      0.170300
     15 C13        -1.1170   -2.6620   -3.9240 c3        1 P84     -0.099400
     16 C14        -1.5060   -1.4170   -3.1180 c3        1 P84      0.125500
     17 N6         -3.1000   -2.3120   -5.3750 n3        1 P84     -0.739600
     18 C15        -3.0260   -1.2500   -3.1340 c3        1 P84     -0.099400
     19 C16        -3.6460   -2.3010   -6.7140 c3        1 P84      0.155100
     20 H41C       -0.4340    0.6220   -1.9010 hx        1 P84      0.106200
     21 H42C       -1.9360    0.2430   -0.9090 hx        1 P84      0.106200
     22 H8         -1.6940    0.5290    1.3950 ha        1 P84      0.159000
     23 H16         2.7960   -0.5880   -1.2000 ho        1 P84      0.466000
     24 H6          2.2070    0.4500    3.2690 ha        1 P84      0.182000
     25 H91C       -1.6440   -3.4150   -1.3080 hx        1 P84      0.100700
     26 H92C       -1.0510   -2.4610    0.1460 hx        1 P84      0.100700
     27 H93C       -2.6560   -2.0460   -0.6300 hx        1 P84      0.100700
     28 H141       -1.0410   -0.5140   -3.6250 hx        1 P84      0.098700
     29 H111       -4.6300   -1.1190   -4.5830 h1        1 P84      0.055450
     30 H112       -3.1270   -0.1880   -5.0280 h1        1 P84      0.055450
     31 H131       -0.0020   -2.7660   -3.9830 hc        1 P84      0.068950
     32 H132       -1.5360   -3.5870   -3.4500 hc        1 P84      0.068950
     33 H121       -1.4470   -3.4870   -5.8980 h1        1 P84      0.055450
     34 H122       -1.0990   -1.6980   -5.8710 h1        1 P84      0.055450
     35 H151       -3.3310   -0.3140   -2.6000 hc        1 P84      0.068950
     36 H152       -3.5230   -2.1240   -2.6360 hc        1 P84      0.068950
     37 H161       -3.3750   -3.2640   -7.2200 h1        1 P84      0.049033
     38 H162       -4.7640   -2.2320   -6.6460 h1        1 P84      0.049033
     39 H163       -3.2680   -1.4450   -7.3380 h1        1 P84      0.049033
     40 H51         0.0660   -1.7670   -1.8250 hn        1 P84      0.461800
@<TRIPOS>BOND
     1    1    2 ar  
     2    1    4 1   
     3    1    7 ar  
     4    2    3 ar  
     5    2   11 1   
     6    3    6 ar  
     7    3   10 1   
     8    4    5 1   
     9    4   20 1   
    10    4   21 1   
    11    5    8 1   
    12    5   16 1   
    13    5   40 1   
    14    6    9 ar  
    15    6   24 1   
    16    7    9 ar  
    17    7   22 1   
    18    8   25 1   
    19    8   26 1   
    20    8   27 1   
    21    9   12 1   
    22   11   23 1   
    23   13   17 1   
    24   13   18 1   
    25   13   29 1   
    26   13   30 1   
    27   14   15 1   
    28   14   17 1   
    29   14   33 1   
    30   14   34 1   
    31   15   16 1   
    32   15   31 1   
    33   15   32 1   
    34   16   18 1   
    35   16   28 1   
    36   17   19 1   
    37   18   35 1   
    38   18   36 1   
    39   19   37 1   
    40   19   38 1   
    41   19   39 1   
@<TRIPOS>SUBSTRUCTURE
     1 P84         1 TEMP              0 ****  ****    0 ROOT
