@<TRIPOS>MOLECULE
P85
   57    60     1     0     0
SMALL
bcc


@<TRIPOS>ATOM
      1 F55         1.5140    1.3280   -2.5450 f         1 P85     -0.103900
      2 C26         2.4310    0.8130   -1.7020 ca        1 P85      0.188900
      3 C27         2.0420   -0.1380   -0.7360 ca        1 P85     -0.162000
      4 C28         2.9940   -0.6630    0.1280 ca        1 P85     -0.071500
      5 C25         3.7760    1.2300   -1.7870 ca        1 P85     -0.162000
      6 C24         4.7140    0.6930   -0.9140 ca        1 P85     -0.071500
      7 C23         4.3320   -0.2570    0.0420 ca        1 P85     -0.213300
      8 C22         5.3340   -0.7910    1.0020 c3        1 P85      0.178100
      9 N21         6.0050   -2.0160    0.4490 n4        1 P85     -0.684800
     10 C19         7.0120   -2.6420    1.3920 c         1 P85      0.544100
     11 O20         6.9520   -2.3000    2.5610 o         1 P85     -0.405100
     12 C16         7.9760   -3.6200    0.7680 c3        1 P85     -0.142700
     13 C17         7.2740   -4.6940   -0.0480 c3        1 P85     -0.085900
     14 C18         8.3190   -5.6440   -0.6400 c3        1 P85      0.164800
     15 N13         9.3070   -4.9440   -1.4520 n3        1 P85     -0.735600
     16 C14         9.9870   -3.9030   -0.6960 c3        1 P85      0.164800
     17 C15         9.0130   -2.8930   -0.0780 c3        1 P85     -0.085900
     18 C11        10.2370   -5.8880   -2.1060 c3        1 P85      0.231800
     19 C12        11.3390   -5.1920   -2.9120 c3        1 P85     -0.097100
     20 C1          9.4900   -6.8210   -3.0370 ca        1 P85     -0.096300
     21 C2          8.8030   -6.2640   -4.0980 ca        1 P85     -0.104000
     22 C3          8.1130   -7.0720   -5.0280 ca        1 P85     -0.140000
     23 C4          8.1170   -8.4360   -4.8860 ca        1 P85     -0.101000
     24 C5          8.8120   -9.0440   -3.8060 ca        1 P85     -0.043000
     25 C6          9.5090   -8.2390   -2.8630 ca        1 P85     -0.023000
     26 C10         8.8150  -10.4610   -3.6680 ca        1 P85     -0.110000
     27 C9          9.4850  -11.0630   -2.6340 ca        1 P85     -0.124000
     28 C8         10.1810  -10.2700   -1.6920 ca        1 P85     -0.112000
     29 C7         10.1920   -8.9010   -1.8040 ca        1 P85     -0.138000
     30 H271        0.9860   -0.4480   -0.6710 ha        1 P85      0.176000
     31 H281        2.6830   -1.3910    0.8950 ha        1 P85      0.144500
     32 H251        4.0670    1.9820   -2.5380 ha        1 P85      0.176000
     33 H241        5.7600    1.0350   -0.9700 ha        1 P85      0.144500
     34 H221        4.8510   -1.0800    1.9810 hx        1 P85      0.115200
     35 H222        6.1410   -0.0330    1.2170 hx        1 P85      0.115200
     36 H211        6.4810   -1.7760   -0.4300 hn        1 P85      0.459300
     37 H161        8.5080   -4.1190    1.6360 hc        1 P85      0.128700
     38 H172        6.6810   -4.2440   -0.8850 hc        1 P85      0.055700
     39 H171        6.5800   -5.2880    0.6010 hc        1 P85      0.055700
     40 H182        7.7890   -6.3860   -1.3040 h1        1 P85      0.060700
     41 H181        8.7970   -6.2190    0.2070 h1        1 P85      0.060700
     42 H141       10.6330   -4.3270    0.1290 h1        1 P85      0.060700
     43 H142       10.6560   -3.3340   -1.4030 h1        1 P85      0.060700
     44 H151        9.5990   -2.1790    0.5560 hc        1 P85      0.055700
     45 H152        8.5170   -2.3130   -0.8980 hc        1 P85      0.055700
     46 H111       10.7610   -6.4880   -1.2990 h1        1 P85      0.037700
     47 H123       12.0770   -4.7010   -2.2340 hc        1 P85      0.050367
     48 H122       11.8770   -5.9640   -3.5150 hc        1 P85      0.050367
     49 H121       10.9170   -4.4300   -3.6090 hc        1 P85      0.050367
     50 H21         8.7930   -5.1720   -4.2360 ha        1 P85      0.135000
     51 H31         7.5830   -6.5920   -5.8650 ha        1 P85      0.139000
     52 H41         7.5890   -9.0820   -5.6060 ha        1 P85      0.142000
     53 H101        8.2710  -11.0620   -4.4130 ha        1 P85      0.141000
     54 H91         9.4930  -12.1580   -2.5260 ha        1 P85      0.144000
     55 H81        10.7190  -10.7660   -0.8700 ha        1 P85      0.139000
     56 H71        10.7500   -8.3180   -1.0570 ha        1 P85      0.126000
     57 H212        5.2900   -2.7200    0.2290 hn        1 P85      0.459300
@<TRIPOS>BOND
     1    1    2 1   
     2    2    3 ar  
     3    2    5 ar  
     4    3    4 ar  
     5    3   30 1   
     6    4    7 ar  
     7    4   31 1   
     8    5    6 ar  
     9    5   32 1   
    10    6    7 ar  
    11    6   33 1   
    12    7    8 1   
    13    8    9 1   
    14    8   34 1   
    15    8   35 1   
    16    9   10 1   
    17    9   36 1   
    18    9   57 1   
    19   10   11 2   
    20   10   12 1   
    21   12   13 1   
    22   12   17 1   
    23   12   37 1   
    24   13   14 1   
    25   13   38 1   
    26   13   39 1   
    27   14   15 1   
    28   14   40 1   
    29   14   41 1   
    30   15   16 1   
    31   15   18 1   
    32   16   17 1   
    33   16   42 1   
    34   16   43 1   
    35   17   44 1   
    36   17   45 1   
    37   18   19 1   
    38   18   20 1   
    39   18   46 1   
    40   19   47 1   
    41   19   48 1   
    42   19   49 1   
    43   20   21 ar  
    44   20   25 ar  
    45   21   22 ar  
    46   21   50 1   
    47   22   23 ar  
    48   22   51 1   
    49   23   24 ar  
    50   23   52 1   
    51   24   25 ar  
    52   24   26 ar  
    53   25   29 ar  
    54   26   27 ar  
    55   26   53 1   
    56   27   28 ar  
    57   27   54 1   
    58   28   29 ar  
    59   28   55 1   
    60   29   56 1   
@<TRIPOS>SUBSTRUCTURE
     1 P85         1 TEMP              0 ****  ****    0 ROOT
