@<TRIPOS>MOLECULE
P85
   57    60     1     0     0
SMALL
bcc


@<TRIPOS>ATOM
      1 F55         1.5380    1.3490   -2.5560 f         1 P85     -0.103900
      2 C26         2.4490    0.8290   -1.7100 ca        1 P85      0.188900
      3 C27         2.0530   -0.1330   -0.7560 ca        1 P85     -0.162000
      4 C28         2.9990   -0.6640    0.1110 ca        1 P85     -0.071500
      5 C25         3.7940    1.2490   -1.7790 ca        1 P85     -0.162000
      6 C24         4.7250    0.7060   -0.9030 ca        1 P85     -0.071500
      7 C23         4.3370   -0.2530    0.0410 ca        1 P85     -0.213300
      8 C22         5.3320   -0.7950    1.0040 c3        1 P85      0.178100
      9 N21         6.0090   -2.0140    0.4470 ny        1 P85     -0.684800
     10 C19         7.0100   -2.6450    1.3920 c         1 P85      0.544100
     11 O20         6.9470   -2.3070    2.5620 o         1 P85     -0.405100
     12 C16         7.9750   -3.6240    0.7690 c3        1 P85     -0.142700
     13 C17         7.2730   -4.6960   -0.0510 c3        1 P85     -0.085900
     14 C18         8.3180   -5.6460   -0.6420 c3        1 P85      0.164800
     15 N13         9.3090   -4.9470   -1.4490 n3        1 P85     -0.735600
     16 C14         9.9890   -3.9080   -0.6900 c3        1 P85      0.164800
     17 C15         9.0150   -2.8980   -0.0730 c3        1 P85     -0.085900
     18 C11        10.2400   -5.8920   -2.1020 c3        1 P85      0.231800
     19 C12        11.3440   -5.1970   -2.9040 c3        1 P85     -0.097100
     20 C1          9.4930   -6.8220   -3.0360 ca        1 P85     -0.096300
     21 C2          8.8090   -6.2640   -4.0970 ca        1 P85     -0.104000
     22 C3          8.1200   -7.0690   -5.0300 ca        1 P85     -0.140000
     23 C4          8.1230   -8.4330   -4.8910 ca        1 P85     -0.101000
     24 C5          8.8160   -9.0440   -3.8110 ca        1 P85     -0.043000
     25 C6          9.5120   -8.2410   -2.8650 ca        1 P85     -0.023000
     26 C10         8.8180  -10.4600   -3.6760 ca        1 P85     -0.110000
     27 C9          9.4860  -11.0650   -2.6420 ca        1 P85     -0.124000
     28 C8         10.1810  -10.2740   -1.6970 ca        1 P85     -0.112000
     29 C7         10.1930   -8.9050   -1.8060 ca        1 P85     -0.138000
     30 H271        0.9980   -0.4460   -0.7040 ha        1 P85      0.176000
     31 H281        2.6830   -1.4000    0.8680 ha        1 P85      0.145000
     32 H251        4.0890    2.0090   -2.5200 ha        1 P85      0.176000
     33 H241        5.7700    1.0520   -0.9460 ha        1 P85      0.145000
     34 H221        4.8410   -1.0930    1.9770 hx        1 P85      0.115200
     35 H222        6.1360   -0.0380    1.2330 hx        1 P85      0.115200
     36 H211        6.4900   -1.7680   -0.4270 hn        1 P85      0.459300
     37 H161        8.5030   -4.1250    1.6380 hc        1 P85      0.128700
     38 H172        6.5760   -5.2890    0.5950 hc        1 P85      0.055950
     39 H171        6.6830   -4.2430   -0.8890 hc        1 P85      0.055950
     40 H182        8.7920   -6.2240    0.2060 h1        1 P85      0.060700
     41 H181        7.7880   -6.3860   -1.3080 h1        1 P85      0.060700
     42 H141       10.6610   -3.3400   -1.3950 h1        1 P85      0.060700
     43 H142       10.6310   -4.3340    0.1360 h1        1 P85      0.060700
     44 H151        9.6010   -2.1850    0.5630 hc        1 P85      0.055950
     45 H152        8.5220   -2.3150   -0.8940 hc        1 P85      0.055950
     46 H111       10.7600   -6.4930   -1.2940 h1        1 P85      0.037700
     47 H123       12.0820   -4.7070   -2.2230 hc        1 P85      0.050367
     48 H122       10.9260   -4.4330   -3.6010 hc        1 P85      0.050367
     49 H121       11.8830   -5.9690   -3.5060 hc        1 P85      0.050367
     50 H21         8.8000   -5.1710   -4.2340 ha        1 P85      0.135000
     51 H31         7.5920   -6.5870   -5.8670 ha        1 P85      0.139000
     52 H41         7.5960   -9.0770   -5.6120 ha        1 P85      0.142000
     53 H101        8.2750  -11.0600   -4.4230 ha        1 P85      0.141000
     54 H91         9.4930  -12.1610   -2.5360 ha        1 P85      0.144000
     55 H81        10.7170  -10.7730   -0.8750 ha        1 P85      0.139000
     56 H71        10.7500   -8.3240   -1.0570 ha        1 P85      0.126000
     57 H212        5.2960   -2.7180    0.2170 hn        1 P85      0.459300
@<TRIPOS>BOND
     1    1    2 1   
     2    2    3 ar  
     3    2    5 ar  
     4    3    4 ar  
     5    3   30 1   
     6    4    7 ar  
     7    4   31 1   
     8    5    6 ar  
     9    5   32 1   
    10    6    7 ar  
    11    6   33 1   
    12    7    8 1   
    13    8    9 1   
    14    8   34 1   
    15    8   35 1   
    16    9   10 1   
    17    9   36 1   
    18    9   57 1   
    19   10   11 2   
    20   10   12 1   
    21   12   13 1   
    22   12   17 1   
    23   12   37 1   
    24   13   14 1   
    25   13   38 1   
    26   13   39 1   
    27   14   15 1   
    28   14   40 1   
    29   14   41 1   
    30   15   16 1   
    31   15   18 1   
    32   16   17 1   
    33   16   42 1   
    34   16   43 1   
    35   17   44 1   
    36   17   45 1   
    37   18   19 1   
    38   18   20 1   
    39   18   46 1   
    40   19   47 1   
    41   19   48 1   
    42   19   49 1   
    43   20   21 ar  
    44   20   25 ar  
    45   21   22 ar  
    46   21   50 1   
    47   22   23 ar  
    48   22   51 1   
    49   23   24 ar  
    50   23   52 1   
    51   24   25 ar  
    52   24   26 ar  
    53   25   29 ar  
    54   26   27 ar  
    55   26   53 1   
    56   27   28 ar  
    57   27   54 1   
    58   28   29 ar  
    59   28   55 1   
    60   29   56 1   
@<TRIPOS>SUBSTRUCTURE
     1 P85         1 TEMP              0 ****  ****    0 ROOT
