@<TRIPOS>MOLECULE
P85
   57    60     1     0     0
SMALL
bcc


@<TRIPOS>ATOM
      1 F55         1.4990    1.3080   -2.5960 f         1 P85     -0.103900
      2 C26         2.4110    0.7970   -1.7450 ca        1 P85      0.188900
      3 C27         2.0190   -0.1630   -0.7880 ca        1 P85     -0.162000
      4 C28         2.9660   -0.6840    0.0840 ca        1 P85     -0.071500
      5 C25         3.7530    1.2260   -1.8120 ca        1 P85     -0.162000
      6 C24         4.6860    0.6930   -0.9310 ca        1 P85     -0.071500
      7 C23         4.3010   -0.2650    0.0150 ca        1 P85     -0.213300
      8 C22         5.2980   -0.7960    0.9830 c3        1 P85      0.178100
      9 N21         5.9830   -2.0130    0.4330 n4        1 P85     -0.684800
     10 C19         6.9860   -2.6340    1.3830 c         1 P85      0.544100
     11 O20         6.9180   -2.2900    2.5510 o         1 P85     -0.405100
     12 C16         7.9590   -3.6090    0.7670 c3        1 P85     -0.142700
     13 C17         7.2660   -4.6890   -0.0490 c3        1 P85     -0.085900
     14 C18         8.3180   -5.6360   -0.6330 c3        1 P85      0.164800
     15 N13         9.3060   -4.9330   -1.4420 n3        1 P85     -0.735600
     16 C14         9.9780   -3.8860   -0.6870 c3        1 P85      0.164800
     17 C15         8.9960   -2.8800   -0.0770 c3        1 P85     -0.085900
     18 C11        10.2450   -5.8750   -2.0880 c3        1 P85      0.231800
     19 C12        11.3460   -5.1760   -2.8930 c3        1 P85     -0.097100
     20 C1          9.5070   -6.8160   -3.0190 ca        1 P85     -0.096300
     21 C2          8.8200   -6.2680   -4.0840 ca        1 P85     -0.104000
     22 C3          8.1370   -7.0820   -5.0140 ca        1 P85     -0.140000
     23 C4          8.1500   -8.4460   -4.8680 ca        1 P85     -0.101000
     24 C5          8.8460   -9.0460   -3.7840 ca        1 P85     -0.043000
     25 C6          9.5360   -8.2330   -2.8410 ca        1 P85     -0.023000
     26 C10         8.8590  -10.4620   -3.6410 ca        1 P85     -0.110000
     27 C9          9.5300  -11.0570   -2.6030 ca        1 P85     -0.124000
     28 C8         10.2180  -10.2550   -1.6620 ca        1 P85     -0.112000
     29 C7         10.2200   -8.8870   -1.7770 ca        1 P85     -0.138000
     30 H271        0.9660   -0.4820   -0.7370 ha        1 P85      0.176000
     31 H281        2.6530   -1.4190    0.8430 ha        1 P85      0.145000
     32 H251        4.0450    1.9850   -2.5550 ha        1 P85      0.176000
     33 H241        5.7290    1.0450   -0.9730 ha        1 P85      0.145000
     34 H221        6.0970   -0.0330    1.2100 hx        1 P85      0.115200
     35 H222        4.8060   -1.0920    1.9560 hx        1 P85      0.115200
     36 H211        5.2760   -2.7230    0.2050 hn        1 P85      0.459300
     37 H161        8.4890   -4.1020    1.6390 hc        1 P85      0.128700
     38 H172        6.6740   -4.2440   -0.8910 hc        1 P85      0.055950
     39 H171        6.5720   -5.2840    0.5980 hc        1 P85      0.055950
     40 H182        7.7950   -6.3820   -1.2970 h1        1 P85      0.060700
     41 H181        8.7950   -6.2060    0.2180 h1        1 P85      0.060700
     42 H141       10.6470   -3.3170   -1.3930 h1        1 P85      0.060700
     43 H142       10.6210   -4.3040    0.1420 h1        1 P85      0.060700
     44 H151        9.5750   -2.1600    0.5570 hc        1 P85      0.055950
     45 H152        8.5010   -2.3040   -0.9010 hc        1 P85      0.055950
     46 H111       10.7680   -6.4690   -1.2770 h1        1 P85      0.037700
     47 H123       10.9220   -4.4190   -3.5950 hc        1 P85      0.050367
     48 H122       12.0780   -4.6780   -2.2130 hc        1 P85      0.050367
     49 H121       11.8910   -5.9470   -3.4900 hc        1 P85      0.050367
     50 H21         8.8030   -5.1750   -4.2260 ha        1 P85      0.135000
     51 H31         7.6070   -6.6090   -5.8540 ha        1 P85      0.139000
     52 H41         7.6290   -9.0980   -5.5870 ha        1 P85      0.142000
     53 H101        8.3210  -11.0690   -4.3860 ha        1 P85      0.141000
     54 H91         9.5450  -12.1510   -2.4920 ha        1 P85      0.144000
     55 H81        10.7570  -10.7460   -0.8370 ha        1 P85      0.139000
     56 H71        10.7720   -8.2980   -1.0310 ha        1 P85      0.126000
     57 H212        6.4650   -1.7680   -0.4410 hn        1 P85      0.459300
@<TRIPOS>BOND
     1    1    2 1   
     2    2    3 ar  
     3    2    5 ar  
     4    3    4 ar  
     5    3   30 1   
     6    4    7 ar  
     7    4   31 1   
     8    5    6 ar  
     9    5   32 1   
    10    6    7 ar  
    11    6   33 1   
    12    7    8 1   
    13    8    9 1   
    14    8   34 1   
    15    8   35 1   
    16    9   10 1   
    17    9   36 1   
    18    9   57 1   
    19   10   11 2   
    20   10   12 1   
    21   12   13 1   
    22   12   17 1   
    23   12   37 1   
    24   13   14 1   
    25   13   38 1   
    26   13   39 1   
    27   14   15 1   
    28   14   40 1   
    29   14   41 1   
    30   15   16 1   
    31   15   18 1   
    32   16   17 1   
    33   16   42 1   
    34   16   43 1   
    35   17   44 1   
    36   17   45 1   
    37   18   19 1   
    38   18   20 1   
    39   18   46 1   
    40   19   47 1   
    41   19   48 1   
    42   19   49 1   
    43   20   21 ar  
    44   20   25 ar  
    45   21   22 ar  
    46   21   50 1   
    47   22   23 ar  
    48   22   51 1   
    49   23   24 ar  
    50   23   52 1   
    51   24   25 ar  
    52   24   26 ar  
    53   25   29 ar  
    54   26   27 ar  
    55   26   53 1   
    56   27   28 ar  
    57   27   54 1   
    58   28   29 ar  
    59   28   55 1   
    60   29   56 1   
@<TRIPOS>SUBSTRUCTURE
     1 P85         1 TEMP              0 ****  ****    0 ROOT
