@<TRIPOS>MOLECULE
P86
   46    47     1     0     0
SMALL
bcc


@<TRIPOS>ATOM
      1 C01         0.3400   -0.0640   -0.0980 ca        1 P86     -0.025100
      2 C1          0.0040   -0.0640    2.3020 ca        1 P86     -0.137300
      3 N1         -0.9430    1.3720    4.0670 n3        1 P86     -0.738600
      4 O1          1.8020   -0.4140    3.7840 oh        1 P86     -0.488100
      5 C02         1.7020   -0.2940    0.0900 ca        1 P86     -0.014000
      6 C2         -0.9050    0.0320    3.4910 c3        1 P86      0.235100
      7 N2         -1.9230    5.2250    5.7980 nx        1 P86     -0.689400
      8 C03        -1.4100    1.3930    5.4410 c3        1 P86      0.174300
      9 C3         -0.5020    0.0490    1.0100 ca        1 P86     -0.048000
     10 C4          2.2390   -0.4150    1.3730 ca        1 P86     -0.074100
     11 C7          1.3850   -0.3000    2.4840 ca        1 P86      0.201100
     12 C8         -1.2840    2.7830    6.0740 c3        1 P86     -0.102400
     13 C10        -2.0380    3.8190    5.2320 c3        1 P86      0.129500
     14 C11        -2.9190    6.1450    5.1550 c3        1 P86      0.107800
     15 C12        -2.6060    7.6140    5.3510 c3        1 P86     -0.129100
     16 C13        -2.0260    5.2800    7.2930 c3        1 P86      0.107800
     17 C14        -3.3320    4.7870    7.8790 c3        1 P86     -0.129100
     18 C15        -1.5090    3.7650    3.7900 c3        1 P86     -0.102400
     19 C16        -1.6410    2.3410    3.2430 c3        1 P86      0.174300
     20 I1         -0.4150    0.1040   -1.9600 i         1 P86     -0.110900
     21 I2          4.2240   -0.7520    1.5430 i         1 P86     -0.108900
     22 H02         2.3670   -0.3860   -0.7880 ha        1 P86      0.167000
     23 H3         -1.5830    0.2180    0.8700 ha        1 P86      0.145000
     24 H21C       -0.5210   -0.6740    4.2850 h1        1 P86      0.058700
     25 H22C       -1.9390   -0.3130    3.1910 h1        1 P86      0.058700
     26 H031       -0.7710    0.6830    6.0400 h1        1 P86      0.055950
     27 H032       -2.4850    1.0560    5.5320 h1        1 P86      0.055950
     28 H161       -2.7400    2.0990    3.1370 h1        1 P86      0.055950
     29 H162       -1.1810    2.3140    2.2130 h1        1 P86      0.055950
     30 H1          2.7500   -0.6330    3.7910 ho        1 P86      0.439000
     31 H10        -3.1400    3.5670    5.2390 hx        1 P86      0.099700
     32 H111       -2.9380    5.9210    4.0490 hx        1 P86      0.100450
     33 H112       -3.9350    5.9010    5.5780 hx        1 P86      0.100450
     34 H131       -1.8720    6.3600    7.5890 hx        1 P86      0.100450
     35 H132       -1.1660    4.6820    7.7130 hx        1 P86      0.100450
     36 H81C       -1.7140    2.7150    7.1070 hc        1 P86      0.069700
     37 H82C       -0.2000    3.0610    6.1530 hc        1 P86      0.069700
     38 H151       -2.0910    4.4390    3.1120 hc        1 P86      0.069700
     39 H152       -0.4320    4.0780    3.7610 hc        1 P86      0.069700
     40 H121       -1.5750    7.8710    5.0060 hc        1 P86      0.075367
     41 H122       -3.3350    8.2050    4.7380 hc        1 P86      0.075367
     42 H123       -2.7210    7.9280    6.4170 hc        1 P86      0.075367
     43 H141       -3.2140    4.7480    8.9920 hc        1 P86      0.075367
     44 H142       -4.1780    5.4790    7.6460 hc        1 P86      0.075367
     45 H143       -3.5960    3.7620    7.5210 hc        1 P86      0.075367
     46 H21        -0.9820    5.5670    5.5560 hn        1 P86      0.441800
@<TRIPOS>BOND
     1    1    5 ar  
     2    1    9 ar  
     3    1   20 1   
     4    2    6 1   
     5    2    9 ar  
     6    2   11 ar  
     7    3    6 1   
     8    3    8 1   
     9    3   19 1   
    10    4   11 1   
    11    4   30 1   
    12    5   10 ar  
    13    5   22 1   
    14    6   24 1   
    15    6   25 1   
    16    7   13 1   
    17    7   14 1   
    18    7   16 1   
    19    7   46 1   
    20    8   12 1   
    21    8   26 1   
    22    8   27 1   
    23    9   23 1   
    24   10   11 ar  
    25   10   21 1   
    26   12   13 1   
    27   12   36 1   
    28   12   37 1   
    29   13   18 1   
    30   13   31 1   
    31   14   15 1   
    32   14   32 1   
    33   14   33 1   
    34   15   40 1   
    35   15   41 1   
    36   15   42 1   
    37   16   17 1   
    38   16   34 1   
    39   16   35 1   
    40   17   43 1   
    41   17   44 1   
    42   17   45 1   
    43   18   19 1   
    44   18   38 1   
    45   18   39 1   
    46   19   28 1   
    47   19   29 1   
@<TRIPOS>SUBSTRUCTURE
     1 P86         1 TEMP              0 ****  ****    0 ROOT
