@<TRIPOS>MOLECULE
P86
   46    47     1     0     0
SMALL
bcc


@<TRIPOS>ATOM
      1 C01         0.3390   -0.0670   -0.0960 ca        1 P86     -0.025100
      2 C1          0.0020   -0.0650    2.3040 ca        1 P86     -0.137300
      3 N1         -0.9440    1.3710    4.0680 n3        1 P86     -0.738600
      4 O1          1.8000   -0.4160    3.7860 oh        1 P86     -0.488100
      5 C02         1.7000   -0.2980    0.0910 ca        1 P86     -0.014000
      6 C2         -0.9070    0.0310    3.4930 c3        1 P86      0.235100
      7 N2         -1.9210    5.2260    5.7970 n4        1 P86     -0.689400
      8 C03        -1.4110    1.3940    5.4420 c3        1 P86      0.174300
      9 C3         -0.5030    0.0470    1.0110 ca        1 P86     -0.048000
     10 C4          2.2370   -0.4180    1.3750 ca        1 P86     -0.074100
     11 C7          1.3840   -0.3030    2.4860 ca        1 P86      0.201100
     12 C8         -1.2840    2.7840    6.0740 c3        1 P86     -0.102400
     13 C10        -2.0370    3.8200    5.2310 c3        1 P86      0.129500
     14 C11        -2.9170    6.1470    5.1530 c3        1 P86      0.107800
     15 C12        -2.6030    7.6160    5.3490 c3        1 P86     -0.129100
     16 C13        -2.0250    5.2820    7.2920 c3        1 P86      0.107800
     17 C14        -3.3310    4.7900    7.8780 c3        1 P86     -0.129100
     18 C15        -1.5080    3.7650    3.7900 c3        1 P86     -0.102400
     19 C16        -1.6400    2.3410    3.2430 c3        1 P86      0.174300
     20 I1         -0.4170    0.1010   -1.9580 i         1 P86     -0.110900
     21 I2          4.2220   -0.7570    1.5440 i         1 P86     -0.108900
     22 H02         2.3650   -0.3910   -0.7860 ha        1 P86      0.167000
     23 H3         -1.5840    0.2170    0.8710 ha        1 P86      0.145000
     24 H21C       -0.5230   -0.6750    4.2870 h1        1 P86      0.058700
     25 H22C       -1.9410   -0.3130    3.1920 h1        1 P86      0.058700
     26 H031       -0.7730    0.6840    6.0410 h1        1 P86      0.055950
     27 H032       -2.4860    1.0580    5.5320 h1        1 P86      0.055950
     28 H161       -2.7400    2.1000    3.1370 h1        1 P86      0.055950
     29 H162       -1.1800    2.3130    2.2140 h1        1 P86      0.055950
     30 H1          2.7480   -0.6360    3.7920 ho        1 P86      0.439000
     31 H10        -3.1390    3.5690    5.2380 hx        1 P86      0.099700
     32 H111       -2.9360    5.9220    4.0480 hx        1 P86      0.100450
     33 H112       -3.9330    5.9040    5.5770 hx        1 P86      0.100450
     34 H131       -1.1650    4.6840    7.7120 hx        1 P86      0.100450
     35 H132       -1.8700    6.3620    7.5870 hx        1 P86      0.100450
     36 H81C       -1.7150    2.7170    7.1080 hc        1 P86      0.069700
     37 H82C       -0.2000    3.0610    6.1530 hc        1 P86      0.069700
     38 H151       -2.0890    4.4400    3.1110 hc        1 P86      0.069700
     39 H152       -0.4300    4.0770    3.7610 hc        1 P86      0.069700
     40 H121       -3.3310    8.2070    4.7360 hc        1 P86      0.075367
     41 H122       -1.5710    7.8720    5.0030 hc        1 P86      0.075367
     42 H123       -2.7170    7.9300    6.4150 hc        1 P86      0.075367
     43 H141       -3.5960    3.7660    7.5200 hc        1 P86      0.075367
     44 H142       -3.2130    4.7520    8.9910 hc        1 P86      0.075367
     45 H143       -4.1760    5.4820    7.6450 hc        1 P86      0.075367
     46 H21        -0.9800    5.5670    5.5550 hn        1 P86      0.441800
@<TRIPOS>BOND
     1    1    5 ar  
     2    1    9 ar  
     3    1   20 1   
     4    2    6 1   
     5    2    9 ar  
     6    2   11 ar  
     7    3    6 1   
     8    3    8 1   
     9    3   19 1   
    10    4   11 1   
    11    4   30 1   
    12    5   10 ar  
    13    5   22 1   
    14    6   24 1   
    15    6   25 1   
    16    7   13 1   
    17    7   14 1   
    18    7   16 1   
    19    7   46 1   
    20    8   12 1   
    21    8   26 1   
    22    8   27 1   
    23    9   23 1   
    24   10   11 ar  
    25   10   21 1   
    26   12   13 1   
    27   12   36 1   
    28   12   37 1   
    29   13   18 1   
    30   13   31 1   
    31   14   15 1   
    32   14   32 1   
    33   14   33 1   
    34   15   40 1   
    35   15   41 1   
    36   15   42 1   
    37   16   17 1   
    38   16   34 1   
    39   16   35 1   
    40   17   43 1   
    41   17   44 1   
    42   17   45 1   
    43   18   19 1   
    44   18   38 1   
    45   18   39 1   
    46   19   28 1   
    47   19   29 1   
@<TRIPOS>SUBSTRUCTURE
     1 P86         1 TEMP              0 ****  ****    0 ROOT
