@<TRIPOS>MOLECULE
P86
   46    47     1     0     0
SMALL
bcc


@<TRIPOS>ATOM
      1 C01         0.3620   -0.0700   -0.0860 ca        1 P86     -0.025100
      2 C1          0.0100   -0.0680    2.3120 ca        1 P86     -0.137300
      3 N1         -0.9460    1.3710    4.0690 n3        1 P86     -0.738600
      4 O1          1.7970   -0.4200    3.8060 oh        1 P86     -0.488100
      5 C02         1.7220   -0.3030    0.1110 ca        1 P86     -0.014000
      6 C2         -0.9070    0.0300    3.4950 c3        1 P86      0.235100
      7 N2         -1.9290    5.2270    5.7910 n4        1 P86     -0.689400
      8 C03        -1.4190    1.3950    5.4410 c3        1 P86      0.174300
      9 C3         -0.4870    0.0450    1.0160 ca        1 P86     -0.048000
     10 C4          2.2500   -0.4240    1.3970 ca        1 P86     -0.074100
     11 C7          1.3900   -0.3070    2.5030 ca        1 P86      0.201100
     12 C8         -1.2940    2.7850    6.0730 c3        1 P86     -0.102400
     13 C10        -2.0430    3.8210    5.2260 c3        1 P86      0.129500
     14 C11        -2.9220    6.1470    5.1430 c3        1 P86      0.107800
     15 C12        -2.6080    7.6160    5.3390 c3        1 P86     -0.129100
     16 C13        -2.0380    5.2840    7.2850 c3        1 P86      0.107800
     17 C14        -3.3460    4.7930    7.8670 c3        1 P86     -0.129100
     18 C15        -1.5080    3.7640    3.7870 c3        1 P86     -0.102400
     19 C16        -1.6390    2.3400    3.2410 c3        1 P86      0.174300
     20 I1         -0.3800    0.0980   -1.9530 i         1 P86     -0.110900
     21 I2          4.2340   -0.7650    1.5810 i         1 P86     -0.108900
     22 H02         2.3930   -0.3970   -0.7620 ha        1 P86      0.167000
     23 H3         -1.5660    0.2170    0.8690 ha        1 P86      0.145000
     24 H21C       -1.9400   -0.3130    3.1870 h1        1 P86      0.058700
     25 H22C       -0.5290   -0.6760    4.2920 h1        1 P86      0.058700
     26 H031       -0.7830    0.6840    6.0430 h1        1 P86      0.055950
     27 H032       -2.4940    1.0580    5.5270 h1        1 P86      0.055950
     28 H161       -1.1740    2.3110    2.2130 h1        1 P86      0.055950
     29 H162       -2.7380    2.1000    3.1310 h1        1 P86      0.055950
     30 H1          2.7440   -0.6420    3.8190 ho        1 P86      0.439000
     31 H10        -3.1450    3.5700    5.2290 hx        1 P86      0.099700
     32 H111       -2.9380    5.9220    4.0380 hx        1 P86      0.100450
     33 H112       -3.9390    5.9050    5.5640 hx        1 P86      0.100450
     34 H131       -1.8830    6.3640    7.5810 hx        1 P86      0.100450
     35 H132       -1.1800    4.6860    7.7100 hx        1 P86      0.100450
     36 H81C       -1.7280    2.7190    7.1050 hc        1 P86      0.069700
     37 H82C       -0.2100    3.0620    6.1560 hc        1 P86      0.069700
     38 H151       -2.0860    4.4390    3.1060 hc        1 P86      0.069700
     39 H152       -0.4300    4.0760    3.7630 hc        1 P86      0.069700
     40 H121       -3.3340    8.2070    4.7230 hc        1 P86      0.075367
     41 H122       -2.7260    7.9310    6.4040 hc        1 P86      0.075367
     42 H123       -1.5760    7.8720    4.9960 hc        1 P86      0.075367
     43 H141       -4.1900    5.4860    7.6310 hc        1 P86      0.075367
     44 H142       -3.2320    4.7550    8.9810 hc        1 P86      0.075367
     45 H143       -3.6100    3.7680    7.5090 hc        1 P86      0.075367
     46 H21        -0.9870    5.5670    5.5530 hn        1 P86      0.441800
@<TRIPOS>BOND
     1    1    5 ar  
     2    1    9 ar  
     3    1   20 1   
     4    2    6 1   
     5    2    9 ar  
     6    2   11 ar  
     7    3    6 1   
     8    3    8 1   
     9    3   19 1   
    10    4   11 1   
    11    4   30 1   
    12    5   10 ar  
    13    5   22 1   
    14    6   24 1   
    15    6   25 1   
    16    7   13 1   
    17    7   14 1   
    18    7   16 1   
    19    7   46 1   
    20    8   12 1   
    21    8   26 1   
    22    8   27 1   
    23    9   23 1   
    24   10   11 ar  
    25   10   21 1   
    26   12   13 1   
    27   12   36 1   
    28   12   37 1   
    29   13   18 1   
    30   13   31 1   
    31   14   15 1   
    32   14   32 1   
    33   14   33 1   
    34   15   40 1   
    35   15   41 1   
    36   15   42 1   
    37   16   17 1   
    38   16   34 1   
    39   16   35 1   
    40   17   43 1   
    41   17   44 1   
    42   17   45 1   
    43   18   19 1   
    44   18   38 1   
    45   18   39 1   
    46   19   28 1   
    47   19   29 1   
@<TRIPOS>SUBSTRUCTURE
     1 P86         1 TEMP              0 ****  ****    0 ROOT
