@<TRIPOS>MOLECULE
P86
   45    43     1     0     0
SMALL
bcc


@<TRIPOS>ATOM
      1 C01        -0.3680    0.0470   -5.6680 c1        1 P86     -0.309000
      2 C1          0.0880   -0.8130   -3.4640 c1        1 P86     -0.103000
      3 N1         -0.2270   -0.6510   -1.0500 n3        1 P86     -0.252000
      4 O1          2.3740   -2.1190   -3.9210 oh        1 P86     -0.232000
      5 C02         0.9380   -0.2430   -6.0510 c1        1 P86     -0.026000
      6 C2         -0.6500   -1.3710   -2.2360 c2        1 P86     -0.018000
      7 N2         -0.1700    0.7740    2.9470 n3        1 P86     -0.273000
      8 C03         0.1150   -1.6150    0.0160 c3        1 P86     -0.067500
      9 C3         -0.7920   -0.2380   -4.3750 c2        1 P86     -0.046000
     10 C4          1.8180   -0.8170   -5.1400 c1        1 P86     -0.361000
     11 C7          1.3930   -1.1030   -3.8470 c1        1 P86      0.155000
     12 C8          0.4310   -0.9310    1.3420 c3        1 P86     -0.157000
     13 C10        -0.6340    0.0220    1.7550 c3        1 P86      0.000000
     14 C11         0.1280   -0.1550    4.0210 c3        1 P86     -0.058500
     15 C12         1.5880    0.0220    4.4630 c3        1 P86     -0.211500
     16 C13        -1.2090    1.6920    3.3750 c3        1 P86     -0.058500
     17 C14        -0.5700    3.0130    3.8300 c3        1 P86     -0.211500
     18 C15        -0.9750    0.9890    0.6770 c3        1 P86     -0.157000
     19 C16        -1.2850    0.2980   -0.6460 c3        1 P86     -0.067500
     20 I1         -1.6870    0.9690   -7.0320 i         1 P86      0.152000
     21 I2          3.8190   -1.1880   -5.6990 i         1 P86      0.153000
     22 H02         1.2370   -0.0410   -6.9630 ha        1 P86      0.156000
     23 H3         -1.7130   -0.0340   -4.1050 ha        1 P86      0.149000
     24 H21C       -0.4390   -2.3260   -2.1320 h4        1 P86      0.086000
     25 H22C       -1.6190   -1.2610   -2.3580 h4        1 P86      0.086000
     26 H031       -0.6440   -2.2280    0.1470 h1        1 P86      0.069750
     27 H032        0.9000   -2.1370   -0.2680 h1        1 P86      0.069750
     28 H161       -1.3830    0.9820   -1.3470 h1        1 P86      0.069750
     29 H162       -2.1340   -0.1910   -0.5580 h1        1 P86      0.069750
     30 H1          2.8890   -2.0880   -3.1940 ho        1 P86      0.231000
     31 H10        -1.4430   -0.4870    1.9940 h1        1 P86      0.054000
     32 H111       -0.4690    0.0220    4.7820 h1        1 P86      0.066250
     33 H112       -0.0090   -1.0750    3.7050 h1        1 P86      0.066250
     34 H131       -1.7090    1.2950    4.1240 h1        1 P86      0.066250
     35 H132       -1.8210    1.8650    2.6280 h1        1 P86      0.066250
     36 H81C        1.2800   -0.4410    1.2530 hc        1 P86      0.095750
     37 H82C        0.5310   -1.6180    2.0380 hc        1 P86      0.095750
     38 H151       -0.2150    1.6010    0.5460 hc        1 P86      0.095750
     39 H152       -1.7600    1.5120    0.9550 hc        1 P86      0.095750
     40 H121        1.6590   -0.1320    5.4320 hc        1 P86      0.076667
     41 H122        1.8850    0.9350    4.2540 hc        1 P86      0.076667
     42 H123        2.1550   -0.6240    3.9860 hc        1 P86      0.076667
     43 H141       -0.3300    3.5490    3.0420 hc        1 P86      0.076667
     44 H142       -1.2110    3.5140    4.3850 hc        1 P86      0.076667
     45 H143        0.2380    2.8220    4.3550 hc        1 P86      0.076667
@<TRIPOS>BOND
     1    1    9 1   
     2    1   20 1   
     3    2    9 1   
     4    2   11 1   
     5    3    6 1   
     6    3    8 1   
     7    3   19 1   
     8    4   11 1   
     9    4   30 1   
    10    5   10 1   
    11    5   22 1   
    12    6   24 1   
    13    6   25 1   
    14    7   13 1   
    15    7   14 1   
    16    7   16 1   
    17    8   12 1   
    18    8   26 1   
    19    8   27 1   
    20    9   23 1   
    21   10   21 1   
    22   12   13 1   
    23   12   36 1   
    24   12   37 1   
    25   13   18 1   
    26   13   31 1   
    27   14   15 1   
    28   14   32 1   
    29   14   33 1   
    30   15   40 1   
    31   15   41 1   
    32   15   42 1   
    33   16   17 1   
    34   16   34 1   
    35   16   35 1   
    36   17   43 1   
    37   17   44 1   
    38   17   45 1   
    39   18   19 1   
    40   18   38 1   
    41   18   39 1   
    42   19   28 1   
    43   19   29 1   
@<TRIPOS>SUBSTRUCTURE
     1 P86         1 TEMP              0 ****  ****    0 ROOT
