@<TRIPOS>MOLECULE
P86
   45    46     1     0     0
SMALL
bcc


@<TRIPOS>ATOM
      1 C01        -2.0420    1.1840    0.2510 ca        1 P86     -0.023100
      2 C1         -0.2410    0.0360    1.3990 ca        1 P86     -0.110300
      3 N1          2.1950   -0.2630    1.1530 n3        1 P86     -0.723600
      4 O1         -0.3960   -2.2620    1.9050 oh        1 P86     -0.478100
      5 C02        -2.7590   -0.0060    0.1720 ca        1 P86     -0.026000
      6 C2          1.1050    0.0570    2.0660 c3        1 P86      0.225100
      7 N2          6.0000   -0.2310   -0.9220 n3        1 P86     -0.728600
      8 C03         3.3840   -0.7190    1.8590 c3        1 P86      0.169300
      9 C3         -0.7840    1.1980    0.8610 ca        1 P86     -0.046000
     10 C4         -2.2420   -1.1890    0.7060 ca        1 P86     -0.075100
     11 C7         -0.9800   -1.1680    1.3230 ca        1 P86      0.201100
     12 C8          4.5390   -1.0820    0.9300 c3        1 P86     -0.076900
     13 C10         4.8950    0.0880   -0.0010 c3        1 P86      0.188500
     14 C11         6.2900    0.8880   -1.8110 c3        1 P86      0.165800
     15 C12         7.5450    0.7650   -2.6570 c3        1 P86     -0.113100
     16 C13         7.1660   -0.7920   -0.2650 c3        1 P86      0.165800
     17 C14         7.8710    0.0590    0.7800 c3        1 P86     -0.113100
     18 C15         3.6140    0.4900   -0.7520 c3        1 P86     -0.076900
     19 C16         2.4880    0.8170    0.2240 c3        1 P86      0.169300
     20 I1         -2.8100    2.8840   -0.5180 i         1 P86     -0.133900
     21 I2         -3.3610   -2.8650    0.5420 i         1 P86     -0.132900
     22 H02        -3.7490   -0.0190   -0.3160 ha        1 P86      0.156000
     23 H3         -0.2060    2.1350    0.9220 ha        1 P86      0.149000
     24 H21C        1.2480    1.0710    2.5480 h1        1 P86      0.046700
     25 H22C        1.0990   -0.7150    2.8910 h1        1 P86      0.046700
     26 H031        3.7470    0.0560    2.5980 h1        1 P86      0.030200
     27 H032        3.1000   -1.6400    2.4430 h1        1 P86      0.030200
     28 H161        1.5480    1.0160   -0.3660 h1        1 P86      0.030200
     29 H162        2.7540    1.7710    0.7710 h1        1 P86      0.030200
     30 H1         -0.9600   -3.0380    1.7450 ho        1 P86      0.432000
     31 H10         5.1880    0.9660    0.6590 h1        1 P86      0.015700
     32 H111        5.4140    0.9620   -2.5190 h1        1 P86      0.039450
     33 H112        6.3480    1.8630   -1.2400 h1        1 P86      0.039450
     34 H131        6.8510   -1.7660    0.2100 h1        1 P86      0.039450
     35 H132        7.9090   -1.0630   -1.0690 h1        1 P86      0.039450
     36 H81C        5.4110   -1.3440    1.5840 hc        1 P86      0.055950
     37 H82C        4.2730   -1.9830    0.3190 hc        1 P86      0.055950
     38 H151        3.7890    1.4090   -1.3690 hc        1 P86      0.055950
     39 H152        3.3030   -0.3390   -1.4380 hc        1 P86      0.055950
     40 H121        7.5740   -0.2060   -3.2060 hc        1 P86      0.037700
     41 H122        7.5500    1.5950   -3.4050 hc        1 P86      0.037700
     42 H123        8.4670    0.8520   -2.0320 hc        1 P86      0.037700
     43 H141        8.1970    1.0350    0.3450 hc        1 P86      0.037700
     44 H142        7.2010    0.2660    1.6480 hc        1 P86      0.037700
     45 H143        8.7730   -0.4830    1.1510 hc        1 P86      0.037700
@<TRIPOS>BOND
     1    1    5 ar  
     2    1    9 ar  
     3    1   20 1   
     4    2    6 1   
     5    2    9 ar  
     6    2   11 ar  
     7    3    6 1   
     8    3    8 1   
     9    3   19 1   
    10    4   11 1   
    11    4   30 1   
    12    5   10 ar  
    13    5   22 1   
    14    6   24 1   
    15    6   25 1   
    16    7   13 1   
    17    7   14 1   
    18    7   16 1   
    19    8   12 1   
    20    8   26 1   
    21    8   27 1   
    22    9   23 1   
    23   10   11 ar  
    24   10   21 1   
    25   12   13 1   
    26   12   36 1   
    27   12   37 1   
    28   13   18 1   
    29   13   31 1   
    30   14   15 1   
    31   14   32 1   
    32   14   33 1   
    33   15   40 1   
    34   15   41 1   
    35   15   42 1   
    36   16   17 1   
    37   16   34 1   
    38   16   35 1   
    39   17   43 1   
    40   17   44 1   
    41   17   45 1   
    42   18   19 1   
    43   18   38 1   
    44   18   39 1   
    45   19   28 1   
    46   19   29 1   
@<TRIPOS>SUBSTRUCTURE
     1 P86         1 TEMP              0 ****  ****    0 ROOT
