@<TRIPOS>MOLECULE
P88
   64    66     1     0     0
SMALL
bcc


@<TRIPOS>ATOM
      1 C1          5.5890   -3.4550   -0.4330 c3        1 P88     -0.208500
      2 N1          6.5750    0.4300    0.8360 n2        1 P88     -0.008000
      3 O1          6.4450   -0.8760    0.9090 os        1 P88     -0.064000
      4 C2          4.8000   -2.7030    0.6230 c3        1 P88     -0.051000
      5 N2         -7.5700   -0.1450   -2.1810 n2        1 P88     -0.111000
      6 O2          2.2210   -0.9620    0.4850 os        1 P88     -0.225000
      7 C3          5.0700   -3.2780    2.0010 c3        1 P88     -0.208500
      8 O3        -10.4530   -1.1060   -1.0470 o         1 P88     -0.539000
      9 C4          5.1190   -1.2610    0.5840 c2        1 P88      0.010000
     10 O4        -10.2880    1.1340   -0.9870 o         1 P88     -0.539000
     11 C5          5.3870    0.9730    0.4760 c2        1 P88     -0.041000
     12 C6          4.4090   -0.1090    0.2980 c2        1 P88     -0.159000
     13 C7          3.0110    0.0680   -0.1300 c3        1 P88      0.043000
     14 C8          0.8500   -0.7750    0.3980 ca        1 P88      0.060000
     15 C9          0.0870   -1.5470    1.2920 ca        1 P88     -0.176000
     16 C10        -1.2980   -1.4610    1.2520 ca        1 P88     -0.099000
     17 C11        -1.9430   -0.6120    0.3370 cp        1 P88     -0.031000
     18 C12        -1.1640    0.1480   -0.5450 ca        1 P88     -0.099000
     19 C13         0.2270    0.0720   -0.5240 ca        1 P88     -0.176000
     20 C14        -3.4000   -0.5220    0.3050 cq        1 P88     -0.087000
     21 C15        -4.1330   -0.5240    1.5270 ca        1 P88     -0.122000
     22 C16        -5.5000   -0.4320    1.5280 ca        1 P88     -0.124000
     23 C17        -6.2230   -0.3350    0.3050 ca        1 P88      0.000000
     24 C18        -7.6320   -0.2350    0.2410 c2        1 P88     -0.185000
     25 C19        -8.2670   -0.1410   -0.9980 c2        1 P88     -0.021000
     26 C20        -6.2500   -0.2400   -2.1270 c2        1 P88     -0.067000
     27 C21        -5.4940   -0.3360   -0.9150 ca        1 P88     -0.127000
     28 C22        -4.0820   -0.4290   -0.8930 ca        1 P88     -0.073000
     29 C23        -9.8110   -0.0270   -1.0280 c2        1 P88      0.385000
     30 C24         5.1360    2.3760    0.3070 c2        1 P88      0.087000
     31 C25         5.9760    3.4510    0.4320 c1        1 P88     -0.085000
     32 C26         5.8730    4.8060    0.3130 c2        1 P88     -0.163500
     33 C27         4.5930    5.2920   -0.0320 c2        1 P88     -0.086000
     34 C28         3.5860    4.3180   -0.2040 c2        1 P88     -0.163500
     35 C29         3.9670    3.0200   -0.0220 c1        1 P88     -0.085000
     36 CL1         9.3710   -2.3200    1.6830 cl        1 P88      0.579500
     37 CL2         2.3100    1.7520   -4.0950 cl        1 P88      0.579500
     38 H1          5.3250   -4.5390   -0.3990 hc        1 P88      0.082333
     39 H1A         5.3560   -3.0620   -1.4510 hc        1 P88      0.082333
     40 H1B         6.6860   -3.3450   -0.2490 hc        1 P88      0.082333
     41 H2          3.6950   -2.7980    0.3980 hc        1 P88      0.135000
     42 H3          6.1500   -3.1640    2.2640 hc        1 P88      0.082333
     43 H3A         4.4560   -2.7510    2.7700 hc        1 P88      0.082333
     44 H3B         4.8070   -4.3630    2.0140 hc        1 P88      0.082333
     45 H7          2.9310   -0.0400   -1.2480 h1        1 P88      0.104000
     46 H7A         2.6300    1.0830    0.1760 h1        1 P88      0.104000
     47 H9          0.5950   -2.2090    2.0060 ha        1 P88      0.137000
     48 H10        -1.9010   -2.0700    1.9430 ha        1 P88      0.139500
     49 H12        -1.6590    0.8200   -1.2640 ha        1 P88      0.139500
     50 H13         0.8160    0.6750   -1.2290 ha        1 P88      0.137000
     51 H15        -3.5770   -0.5910    2.4740 ha        1 P88      0.119000
     52 H16        -6.0660   -0.4280    2.4710 ha        1 P88      0.130000
     53 H18        -8.2290   -0.2300    1.1620 ha        1 P88      0.146000
     54 H20        -5.7150   -0.2420   -3.0930 h4        1 P88      0.134000
     55 H22        -3.5380   -0.4340   -1.8500 ha        1 P88      0.122000
     56 H26         6.7260    5.4780    0.4740 ha        1 P88      0.178000
     57 H27         4.3930    6.3640   -0.1550 ha        1 P88      0.143000
     58 H28         2.5550    4.5940   -0.4650 ha        1 P88      0.178000
     59 HL1         9.7380   -1.0840    2.0560 ha        1 P88     -0.192833
     60 HL1A       10.2540   -3.3370    1.6850 ha        1 P88     -0.192833
     61 HL1B        8.0970   -2.5320    1.3090 ha        1 P88     -0.192833
     62 HL2         2.1740    1.1450   -2.9010 ha        1 P88     -0.192833
     63 HL2A        2.5990    3.0620   -4.1650 ha        1 P88     -0.192833
     64 HL2B        2.1640    1.0460   -5.2260 ha        1 P88     -0.192833
@<TRIPOS>BOND
     1    1    4 1   
     2    1   38 1   
     3    1   39 1   
     4    1   40 1   
     5    2    3 1   
     6    2   11 1   
     7    3    9 1   
     8    4    7 1   
     9    4    9 1   
    10    4   41 1   
    11    5   25 1   
    12    5   26 1   
    13    6   13 1   
    14    6   14 1   
    15    7   42 1   
    16    7   43 1   
    17    7   44 1   
    18    8   29 1   
    19    9   12 1   
    20   10   29 1   
    21   11   12 1   
    22   11   30 1   
    23   12   13 1   
    24   13   45 1   
    25   13   46 1   
    26   14   15 1   
    27   14   19 1   
    28   15   16 1   
    29   15   47 1   
    30   16   17 1   
    31   16   48 1   
    32   17   18 1   
    33   17   20 1   
    34   18   19 1   
    35   18   49 1   
    36   19   50 1   
    37   20   21 1   
    38   20   28 1   
    39   21   22 1   
    40   21   51 1   
    41   22   23 1   
    42   22   52 1   
    43   23   24 1   
    44   23   27 1   
    45   24   25 1   
    46   24   53 1   
    47   25   29 1   
    48   26   27 1   
    49   26   54 1   
    50   27   28 1   
    51   28   55 1   
    52   30   31 1   
    53   30   35 1   
    54   31   32 1   
    55   32   33 1   
    56   32   56 1   
    57   33   34 1   
    58   33   57 1   
    59   34   35 1   
    60   34   58 1   
    61   36   59 1   
    62   36   60 1   
    63   36   61 1   
    64   37   62 1   
    65   37   63 1   
    66   37   64 1   
@<TRIPOS>SUBSTRUCTURE
     1 P88         1 TEMP              0 ****  ****    0 ROOT
