@<TRIPOS>MOLECULE
P88
   64    57     1     0     0
SMALL
bcc


@<TRIPOS>ATOM
      1 C1         -4.6910    0.2470    3.8300 c3        1 P88     -0.208500
      2 N1         -3.4980   -3.5270    2.8290 n2        1 P88     -0.007000
      3 O1         -3.6240   -2.3590    3.6080 os        1 P88     -0.064000
      4 C2         -3.2220   -0.1060    3.8950 c3        1 P88     -0.051000
      5 N2          6.0170    6.1950   -2.5360 n1        1 P88     -0.111000
      6 O2         -0.4510   -0.4830    1.3470 os        1 P88     -0.225000
      7 C3         -2.8400   -0.4040    5.3300 c3        1 P88     -0.208500
      8 O3          7.9720    6.6340   -4.8230 o         1 P88     -0.539500
      9 C4         -2.9460   -1.3780    2.9970 c2        1 P88      0.010000
     10 O4          6.5460    8.2690   -4.6840 o         1 P88     -0.539500
     11 C5         -2.7490   -3.2340    1.7630 c2        1 P88     -0.042000
     12 C6         -2.3910   -1.8960    1.8460 c1        1 P88     -0.159000
     13 C7         -1.6170   -1.0850    0.7580 c2        1 P88      0.044000
     14 C8          0.3130    0.3110    0.4390 c2        1 P88      0.060000
     15 C9          1.5310   -0.1530   -0.0250 c2        1 P88     -0.155000
     16 C10         2.3260    0.6600   -0.8150 c1        1 P88     -0.099000
     17 C11         1.8990    1.9410   -1.1430 c1        1 P88     -0.032000
     18 C12         0.6870    2.4020   -0.6810 c1        1 P88     -0.098000
     19 C13        -0.1110    1.5830    0.1140 c1        1 P88     -0.199000
     20 C14         2.6750    2.7420   -1.9810 c1        1 P88     -0.087000
     21 C15         2.5030    2.6850   -3.3500 c1        1 P88     -0.123500
     22 C16         3.2350    3.5420   -4.1870 c1        1 P88     -0.123500
     23 C17         4.1400    4.4560   -3.6340 c1        1 P88      0.000000
     24 C18         4.8970    5.2600   -4.4600 c2        1 P88     -0.186000
     25 C19         5.8430    6.1370   -3.9090 c1        1 P88     -0.021000
     26 C20         5.2700    5.4020   -1.7200 c1        1 P88     -0.066000
     27 C21         4.3130    4.5150   -2.2750 c1        1 P88     -0.127000
     28 C22         3.5760    3.6530   -1.4300 c2        1 P88     -0.071000
     29 C23         6.8360    7.0570   -4.5110 c2        1 P88      0.385000
     30 C24        -2.3500   -4.1490    0.7370 c1        1 P88      0.088000
     31 C25        -1.2160   -4.9700    0.9230 c1        1 P88     -0.056000
     32 C26        -0.8370   -5.8680   -0.0730 c1        1 P88     -0.168000
     33 C27        -1.5780   -5.9550   -1.2540 c1        1 P88     -0.123500
     34 C28        -2.7000   -5.1430   -1.4380 c1        1 P88     -0.123500
     35 C29        -3.0840   -4.2370   -0.4350 c1        1 P88     -0.113000
     36 CL1        -0.4530   -4.9600    2.3020 cl        1 P88      0.578000
     37 CL2        -4.3860   -3.4390   -0.5830 cl        1 P88      0.581000
     38 H1         -5.2360   -0.5370    4.1330 hc        1 P88      0.082500
     39 H1A        -4.8700    1.0170    4.4180 hc        1 P88      0.082500
     40 H1B        -4.9310    0.4740    2.9150 hc        1 P88      0.082500
     41 H2         -2.6740    0.6700    3.5560 hc        1 P88      0.136000
     42 H3         -2.7910    0.4460    5.8440 hc        1 P88      0.082500
     43 H3A        -3.5210   -0.9930    5.7350 hc        1 P88      0.082500
     44 H3B        -1.9720   -0.8480    5.3510 hc        1 P88      0.082500
     45 H7         -1.3410   -1.6930    0.0270 h4        1 P88      0.103500
     46 H7A        -2.2090   -0.3700    0.3920 h4        1 P88      0.103500
     47 H9          1.8330   -1.0630    0.2080 ha        1 P88      0.141000
     48 H10         3.1900    0.3310   -1.1440 ha        1 P88      0.141000
     49 H12         0.3870    3.2980   -0.9100 ha        1 P88      0.137000
     50 H13        -0.9610    1.9060    0.4360 ha        1 P88      0.133000
     51 H15         1.8680    2.0480   -3.7360 ha        1 P88      0.141750
     52 H16         3.1140    3.5020   -5.1570 ha        1 P88      0.141750
     53 H18         4.7750    5.2180   -5.4240 ha        1 P88      0.146000
     54 H20         5.3920    5.4440   -0.7590 ha        1 P88      0.134000
     55 H22         3.6060    3.7810   -0.4620 ha        1 P88      0.122000
     56 H26        -0.1230   -6.4900    0.0910 ha        1 P88      0.177000
     57 H27        -1.3060   -6.5960   -1.9640 ha        1 P88      0.141750
     58 H28        -3.2160   -5.2040   -2.2630 ha        1 P88      0.141750
     59 HL1        -1.0250   -5.3590    2.9970 ha        1 P88     -0.192333
     60 HL1A       -0.2370   -4.0430    2.5470 ha        1 P88     -0.192333
     61 HL1B        0.3980   -5.4940    2.2200 ha        1 P88     -0.192333
     62 HL2        -5.0090   -3.9390   -1.1220 ha        1 P88     -0.193000
     63 HL2A       -4.1950   -2.5740   -1.0180 ha        1 P88     -0.193000
     64 HL2B       -4.7800   -3.2780    0.3140 ha        1 P88     -0.193000
@<TRIPOS>BOND
     1    1    4 1   
     2    1   38 1   
     3    1   39 1   
     4    1   40 1   
     5    2    3 1   
     6    2   11 1   
     7    3    9 1   
     8    4    7 1   
     9    4    9 1   
    10    4   41 1   
    11    5   26 1   
    12    6   13 1   
    13    6   14 1   
    14    7   42 1   
    15    7   43 1   
    16    7   44 1   
    17    8   29 1   
    18    9   12 1   
    19   10   29 1   
    20   11   12 1   
    21   11   30 1   
    22   13   45 1   
    23   13   46 1   
    24   14   15 1   
    25   14   19 1   
    26   15   16 1   
    27   15   47 1   
    28   16   48 1   
    29   17   18 1   
    30   18   49 1   
    31   19   50 1   
    32   20   28 1   
    33   21   22 1   
    34   21   51 1   
    35   22   52 1   
    36   23   24 1   
    37   23   27 1   
    38   24   25 1   
    39   24   53 1   
    40   25   29 1   
    41   26   54 1   
    42   27   28 1   
    43   28   55 1   
    44   30   35 1   
    45   31   32 1   
    46   31   36 1   
    47   32   56 1   
    48   33   34 1   
    49   33   57 1   
    50   34   58 1   
    51   35   37 1   
    52   36   59 1   
    53   36   60 1   
    54   36   61 1   
    55   37   62 1   
    56   37   63 1   
    57   37   64 1   
@<TRIPOS>SUBSTRUCTURE
     1 P88         1 TEMP              0 ****  ****    0 ROOT
