@<TRIPOS>MOLECULE
P88
   64    68     1     0     0
SMALL
bcc


@<TRIPOS>ATOM
      1 C1          0.0000    0.0000    0.0000 c3        1 P88     -0.117000
      2 N1          2.3270   -3.2810   -1.1280 n2        1 P88     -0.062000
      3 O1          1.7920   -2.5050   -0.3720 os        1 P88      0.069000
      4 C2          1.5300    0.0000    0.0000 c3        1 P88     -0.002000
      5 N2          7.4170    7.9930   -7.8310 n2        1 P88      0.026000
      6 O2          4.5710    0.3580   -1.9830 os        1 P88     -0.177000
      7 C3          2.0410    0.0000    1.4420 c3        1 P88     -0.117000
      8 O3         10.2350   10.0880   -7.5330 o         1 P88     -0.603500
      9 C4          2.0330   -1.2310   -0.7110 c2        1 P88     -0.068000
     10 O4          8.6590   10.1690   -9.0930 o         1 P88     -0.603500
     11 C5          2.9910   -2.6520   -2.0680 c2        1 P88     -0.157000
     12 C6          2.8120   -1.2640   -1.8160 c2        1 P88     -0.237000
     13 C7          3.3640   -0.0990   -2.5970 c3        1 P88      0.138000
     14 C8          5.2000    1.4100   -2.5680 ca        1 P88      0.082000
     15 C9          6.3770    1.9040   -2.0220 ca        1 P88     -0.172500
     16 C10         7.0190    2.9720   -2.6130 ca        1 P88     -0.068000
     17 C11         6.4850    3.5550   -3.7610 cp        1 P88     -0.036000
     18 C12         5.3020    3.0560   -4.3080 ca        1 P88     -0.068000
     19 C13         4.6680    1.9860   -3.7140 ca        1 P88     -0.172500
     20 C14         7.1710    4.7040   -4.3990 cq        1 P88     -0.070000
     21 C15         8.3610    5.1990   -3.8410 ca        1 P88     -0.117000
     22 C16         9.0100    6.2510   -4.4070 ca        1 P88     -0.082000
     23 C17         8.4900    6.8540   -5.5640 ca        1 P88     -0.027000
     24 C18         9.1250    7.9430   -6.1830 c2        1 P88     -0.132000
     25 C19         8.5510    8.4850   -7.3210 c2        1 P88     -0.051000
     26 C20         6.7840    6.9810   -7.2970 c2        1 P88     -0.097000
     27 C21         7.2870    6.3600   -6.1370 ca        1 P88     -0.107000
     28 C22         6.6340    5.2770   -5.5390 ca        1 P88     -0.065000
     29 C23         9.2040    9.6310   -7.9850 c2        1 P88      0.417000
     30 C24         3.7700   -3.2660   -3.1720 ca        1 P88      0.073000
     31 C25         4.8710   -4.0710   -2.8870 ca        1 P88     -1.642500
     32 C26         5.5920   -4.6390   -3.9180 ca        1 P88     -0.070000
     33 C27         5.2250   -4.4080   -5.2310 ca        1 P88     -0.089000
     34 C28         4.1340   -3.6090   -5.5200 ca        1 P88     -0.070000
     35 C29         3.4010   -3.0410   -4.4960 ca        1 P88     -1.642500
     36 Cl1         5.2720   -4.3220   -1.4570 cl        1 P88      4.272500
     37 Cl2         2.2080   -2.1760   -4.8120 cl        1 P88      4.272500
     38 H1         -0.3610    0.9190    0.4460 hc        1 P88      0.048667
     39 H1A        -0.3610   -0.8460    0.5720 hc        1 P88      0.048667
     40 H1B        -0.3610   -0.0730   -1.0190 hc        1 P88      0.048667
     41 H2          1.8910    0.8850   -0.5110 hc        1 P88      0.088000
     42 H3          1.5360   -0.7770    2.0030 hc        1 P88      0.048667
     43 H3A         1.8390    0.9630    1.8960 hc        1 P88      0.048667
     44 H3B         3.1080   -0.1850    1.4470 hc        1 P88      0.048667
     45 H7          3.5720   -0.4120   -3.6130 h1        1 P88      0.042000
     46 H7A         2.6380    0.7040   -2.6080 h1        1 P88      0.042000
     47 H9          6.7920    1.4510   -1.1290 ha        1 P88      0.108500
     48 H10         7.9370    3.3570   -2.1860 ha        1 P88      0.115000
     49 H12         4.8860    3.5060   -5.2000 ha        1 P88      0.115000
     50 H13         3.7500    1.5990   -4.1380 ha        1 P88      0.108500
     51 H15         8.7670    4.7360   -2.9500 ha        1 P88      0.098000
     52 H16         9.9270    6.6240   -3.9660 ha        1 P88      0.104000
     53 H18        10.1420    8.2020   -5.9140 ha        1 P88      0.138000
     54 H20         5.8660    6.6210   -7.7460 h4        1 P88      0.102000
     55 H22         5.6470    4.9860   -5.8780 ha        1 P88      0.104000
     56 H26         6.4470   -5.2670   -3.6980 ha        1 P88      0.084500
     57 H27         5.7960   -4.8530   -6.0370 ha        1 P88      0.086000
     58 H28         3.8540   -3.4290   -6.5500 ha        1 P88      0.084500
     59 HL1         5.4390   -3.3760   -0.9570 ha        1 P88     -0.856667
     60 HL1A        4.4840   -4.8650   -0.9500 ha        1 P88     -0.856667
     61 HL1B        6.1840   -4.9070   -1.4350 ha        1 P88     -0.856667
     62 HL2         2.5460   -1.2040   -5.1500 ha        1 P88     -0.856667
     63 HL2A        1.6020   -2.0590   -3.9220 ha        1 P88     -0.856667
     64 HL2B        1.6190   -2.6440   -5.5920 ha        1 P88     -0.856667
@<TRIPOS>BOND
     1    1    4 1   
     2    1   38 1   
     3    1   39 1   
     4    1   40 1   
     5    2    3 1   
     6    2   11 1   
     7    3    9 1   
     8    4    7 1   
     9    4    9 1   
    10    4   41 1   
    11    5   25 1   
    12    5   26 1   
    13    6   13 1   
    14    6   14 1   
    15    7   42 1   
    16    7   43 1   
    17    7   44 1   
    18    8   29 1   
    19    9   12 1   
    20   10   29 1   
    21   11   12 1   
    22   11   30 1   
    23   12   13 1   
    24   13   45 1   
    25   13   46 1   
    26   14   15 1   
    27   14   19 1   
    28   15   16 1   
    29   15   47 1   
    30   16   17 1   
    31   16   48 1   
    32   17   18 1   
    33   17   20 1   
    34   18   19 1   
    35   18   49 1   
    36   19   50 1   
    37   20   21 1   
    38   20   28 1   
    39   21   22 1   
    40   21   51 1   
    41   22   23 1   
    42   22   52 1   
    43   23   24 1   
    44   23   27 1   
    45   24   25 1   
    46   24   53 1   
    47   25   29 1   
    48   26   27 1   
    49   26   54 1   
    50   27   28 1   
    51   28   55 1   
    52   30   31 1   
    53   30   35 1   
    54   31   32 1   
    55   31   36 1   
    56   32   33 1   
    57   32   56 1   
    58   33   34 1   
    59   33   57 1   
    60   34   35 1   
    61   34   58 1   
    62   35   37 1   
    63   36   59 1   
    64   36   60 1   
    65   36   61 1   
    66   37   62 1   
    67   37   63 1   
    68   37   64 1   
@<TRIPOS>SUBSTRUCTURE
     1 P88         1 TEMP              0 ****  ****    0 ROOT
