@<TRIPOS>MOLECULE
P8D
   27    26     1     0     0
SMALL
bcc


@<TRIPOS>ATOM
      1 C1          3.2000   -1.3610    0.9650 c3        1 P8D     -0.074100
      2 N1          3.3760   -0.6030   -1.3830 n3        1 P8D     -0.874800
      3 C2          2.4700   -0.8750   -0.2730 c3        1 P8D     -0.176700
      4 P3          1.6270    0.5160    0.1800 p5        1 P8D      1.487100
      5 C4          0.4560    0.6630   -0.9430 c3        1 P8D     -0.471600
      6 C5         -0.9640    0.5330   -0.4210 c3        1 P8D     -0.138700
      7 C6         -1.8950    1.6260   -1.0120 c         1 P8D      0.910600
      8 C7         -1.5780   -0.8280   -0.7130 c3        1 P8D     -0.169400
      9 C8         -0.8230   -2.0100   -0.1120 c         1 P8D      0.877600
     10 O31         2.5670    1.6480    0.2820 o         1 P8D     -0.902300
     11 O32         1.0460    0.2170    1.6430 oh        1 P8D     -0.814400
     12 O61        -3.0680    1.7200   -0.5430 o         1 P8D     -0.861300
     13 O62        -1.4620    2.3980   -1.9190 o         1 P8D     -0.861300
     14 O81        -0.3560   -2.9020   -0.8830 o         1 P8D     -0.877300
     15 O82        -0.6550   -2.0830    1.1510 o         1 P8D     -0.877300
     16 H1          3.7690   -0.5120    1.4180 hc        1 P8D      0.038033
     17 H1A         2.4360   -1.7180    1.7000 hc        1 P8D      0.038033
     18 H1B         3.9040   -2.1960    0.7420 hc        1 P8D      0.038033
     19 HN1         2.8110   -0.3770   -2.1810 hn        1 P8D      0.334300
     20 HN1A        3.9100    0.2170   -1.1440 hn        1 P8D      0.334300
     21 H2          1.7760   -1.7160   -0.5980 h1        1 P8D      0.151700
     22 H4          0.5060    1.6780   -1.4470 hc        1 P8D      0.124200
     23 H4A         0.5530   -0.0630   -1.7940 hc        1 P8D      0.124200
     24 H5         -0.9660    0.6970    0.6910 hc        1 P8D      0.044700
     25 H7         -2.6200   -0.8260   -0.2970 hc        1 P8D      0.043200
     26 H7A        -1.6490   -0.9710   -1.8220 hc        1 P8D      0.043200
     27 H12         0.3840   -0.4840    1.7300 ho        1 P8D      0.511000
@<TRIPOS>BOND
     1    1    3 1   
     2    1   16 1   
     3    1   17 1   
     4    1   18 1   
     5    2    3 1   
     6    2   19 1   
     7    2   20 1   
     8    3    4 1   
     9    3   21 1   
    10    4    5 1   
    11    4   10 2   
    12    4   11 1   
    13    5    6 1   
    14    5   22 1   
    15    5   23 1   
    16    6    7 1   
    17    6    8 1   
    18    6   24 1   
    19    7   12 1   
    20    7   13 1   
    21    8    9 1   
    22    8   25 1   
    23    8   26 1   
    24    9   14 1   
    25    9   15 1   
    26   11   27 1   
@<TRIPOS>SUBSTRUCTURE
     1 P8D         1 TEMP              0 ****  ****    0 ROOT
