@<TRIPOS>MOLECULE
P8D
   27    26     1     0     0
SMALL
bcc


@<TRIPOS>ATOM
      1 C1          1.0660    1.3030    0.9720 c3        1 P8D     -0.115100
      2 N1          2.3360    0.0160   -0.7800 n3        1 P8D     -0.873800
      3 C2          2.2360    0.4110    0.6060 c3        1 P8D     -0.157700
      4 P3          2.1290   -0.9870    1.5640 p5        1 P8D      1.523100
      5 C4          3.6580   -1.4930    1.7750 c3        1 P8D     -0.467600
      6 C5          4.2930   -1.1570    3.1110 c3        1 P8D     -0.140700
      7 C6          5.1610   -2.3350    3.6350 c         1 P8D      0.908600
      8 C7          5.1430    0.1050    3.0860 c3        1 P8D     -0.173400
      9 C8          4.3870    1.4230    2.9470 c         1 P8D      0.882600
     10 O31         1.1680   -1.9410    0.9830 o         1 P8D     -0.909300
     11 O32         1.4780   -0.4860    2.9440 oh        1 P8D     -0.820400
     12 O61         5.7970   -2.1760    4.7190 o         1 P8D     -0.863300
     13 O62         5.1890   -3.4280    2.9930 o         1 P8D     -0.863300
     14 O81         4.8400    2.3040    2.1540 o         1 P8D     -0.881800
     15 O82         3.3240    1.6410    3.6190 o         1 P8D     -0.881800
     16 H1          0.1330    0.6920    1.0440 hc        1 P8D      0.039700
     17 H1A         0.9080    2.1200    0.2270 hc        1 P8D      0.039700
     18 H1B         1.2740    1.7710    1.9680 hc        1 P8D      0.039700
     19 HN1         2.3140    0.8200   -1.3780 hn        1 P8D      0.332300
     20 HN1A        1.5490   -0.5700   -1.0020 hn        1 P8D      0.332300
     21 H2          3.1790    1.0000    0.8500 h1        1 P8D      0.150700
     22 H4          3.7210   -2.6230    1.6800 hc        1 P8D      0.126700
     23 H4A         4.3510   -1.1270    0.9710 hc        1 P8D      0.126700
     24 H5          3.4840   -1.0240    3.8810 hc        1 P8D      0.047700
     25 H7          5.8930    0.0340    2.2580 hc        1 P8D      0.046700
     26 H7A         5.7080    0.1480    4.0560 hc        1 P8D      0.046700
     27 H12         1.9500    0.1940    3.4420 ho        1 P8D      0.506000
@<TRIPOS>BOND
     1    1    3 1   
     2    1   16 1   
     3    1   17 1   
     4    1   18 1   
     5    2    3 1   
     6    2   19 1   
     7    2   20 1   
     8    3    4 1   
     9    3   21 1   
    10    4    5 1   
    11    4   10 2   
    12    4   11 1   
    13    5    6 1   
    14    5   22 1   
    15    5   23 1   
    16    6    7 1   
    17    6    8 1   
    18    6   24 1   
    19    7   12 1   
    20    7   13 1   
    21    8    9 1   
    22    8   25 1   
    23    8   26 1   
    24    9   14 1   
    25    9   15 1   
    26   11   27 1   
@<TRIPOS>SUBSTRUCTURE
     1 P8D         1 TEMP              0 ****  ****    0 ROOT
