@<TRIPOS>MOLECULE
P8H
   40    42     1     0     0
SMALL
bcc


@<TRIPOS>ATOM
      1 C1          0.0860   -0.4620   -0.0460 ca        1 P8H     -0.163200
      2 C2          1.4690   -0.1780   -0.0460 ca        1 P8H      0.439200
      3 N3          2.1490    0.1920    1.0540 nb        1 P8H     -0.662000
      4 C4          1.4660    0.2930    2.2090 ca        1 P8H      0.450200
      5 C5          0.0800    0.0450    2.3070 ca        1 P8H     -0.251900
      6 C6         -0.6160   -0.3470    1.1590 ca        1 P8H     -0.039000
      7 C7         -0.5740    0.1260    3.6430 c         1 P8H      0.667700
      8 BR8        -0.7760   -0.9780   -1.6140 br        1 P8H     -0.059100
      9 O9         -0.0960   -0.5040    4.6070 o         1 P8H     -0.584100
     10 N10        -1.7660    0.8410    3.7720 n         1 P8H     -0.448800
     11 C11        -2.1080    1.9230    2.8750 c3        1 P8H      0.076500
     12 C12        -1.9570    3.3190    3.4810 c3        1 P8H     -0.103900
     13 C13        -2.3840    0.9460    5.0810 c3        1 P8H      0.076500
     14 C14        -2.2420    2.3170    5.7400 c3        1 P8H     -0.103900
     15 C15        -2.7480    3.4210    4.7960 c3        1 P8H      0.189500
     16 N16        -2.6310    4.7500    5.3970 n3        1 P8H     -0.726600
     17 C17        -3.0700    5.8410    4.5240 c3        1 P8H      0.161800
     18 C18        -3.7910    6.8970    5.3760 c3        1 P8H     -0.088400
     19 C19        -3.9420    6.2870    6.7640 c3        1 P8H     -0.088400
     20 C20        -3.3140    4.8880    6.6840 c3        1 P8H      0.161800
     21 H2          2.0670   -0.2540   -0.9750 h4        1 P8H      0.040100
     22 H4          2.0520    0.5750    3.1050 h4        1 P8H      0.045100
     23 H6         -1.6950   -0.5660    1.2120 ha        1 P8H      0.163000
     24 H11        -1.4800    1.8700    1.9410 h1        1 P8H      0.060950
     25 H11A       -3.1860    1.7730    2.5760 h1        1 P8H      0.060950
     26 H12        -2.3400    4.0620    2.7340 hc        1 P8H      0.059700
     27 H12A       -0.8770    3.5480    3.6690 hc        1 P8H      0.059700
     28 H13        -3.4810    0.7200    4.9400 h1        1 P8H      0.060950
     29 H13A       -1.9470    0.1650    5.7650 h1        1 P8H      0.060950
     30 H14        -1.1720    2.5080    6.0110 hc        1 P8H      0.059700
     31 H14A       -2.8380    2.3070    6.6890 hc        1 P8H      0.059700
     32 H15        -3.8340    3.1880    4.5560 h1        1 P8H      0.017700
     33 H17        -3.7550    5.4870    3.7030 h1        1 P8H      0.038950
     34 H17A       -2.1520    6.2740    4.0430 h1        1 P8H      0.038950
     35 H18        -3.1920    7.8390    5.4170 hc        1 P8H      0.048200
     36 H18A       -4.7860    7.1430    4.9310 hc        1 P8H      0.048200
     37 H19        -5.0170    6.2160    7.0610 hc        1 P8H      0.048200
     38 H19A       -3.4160    6.9060    7.5310 hc        1 P8H      0.048200
     39 H20        -4.1120    4.1070    6.8350 h1        1 P8H      0.038950
     40 H20A       -2.5410    4.7480    7.4880 h1        1 P8H      0.038950
@<TRIPOS>BOND
     1    1    2 ar  
     2    1    6 ar  
     3    1    8 1   
     4    2    3 ar  
     5    2   21 1   
     6    3    4 ar  
     7    4    5 ar  
     8    4   22 1   
     9    5    6 ar  
    10    5    7 1   
    11    6   23 1   
    12    7    9 2   
    13    7   10 1   
    14   10   11 1   
    15   10   13 1   
    16   11   12 1   
    17   11   24 1   
    18   11   25 1   
    19   12   15 1   
    20   12   26 1   
    21   12   27 1   
    22   13   14 1   
    23   13   28 1   
    24   13   29 1   
    25   14   15 1   
    26   14   30 1   
    27   14   31 1   
    28   15   16 1   
    29   15   32 1   
    30   16   17 1   
    31   16   20 1   
    32   17   18 1   
    33   17   33 1   
    34   17   34 1   
    35   18   19 1   
    36   18   35 1   
    37   18   36 1   
    38   19   20 1   
    39   19   37 1   
    40   19   38 1   
    41   20   39 1   
    42   20   40 1   
@<TRIPOS>SUBSTRUCTURE
     1 P8H         1 TEMP              0 ****  ****    0 ROOT
