@<TRIPOS>MOLECULE
P8H
   40    42     1     0     0
SMALL
bcc


@<TRIPOS>ATOM
      1 C1          3.5650    0.1770   -0.0970 ca        1 P8H     -0.163200
      2 C2          3.8810    0.6120   -1.4030 ca        1 P8H      0.439200
      3 N3          3.0920    1.4310   -2.1200 nb        1 P8H     -0.662000
      4 C4          1.9460    1.8520   -1.5570 ca        1 P8H      0.450200
      5 C5          1.5360    1.4600   -0.2640 ca        1 P8H     -0.251900
      6 C6          2.3670    0.6150    0.4780 ca        1 P8H     -0.039000
      7 C7          0.2770    2.0270    0.2960 c         1 P8H      0.667700
      8 BR8         4.7210   -0.9500    0.8320 br        1 P8H     -0.059100
      9 O9          0.0990    3.2610    0.2940 o         1 P8H     -0.584100
     10 N10        -0.6460    1.1680    0.8940 n         1 P8H     -0.448800
     11 C11        -0.7320   -0.2310    0.5350 c3        1 P8H      0.076500
     12 C12        -1.9360   -0.5880   -0.3380 c3        1 P8H     -0.103900
     13 C13        -1.8860    1.7180    1.4100 c3        1 P8H      0.076500
     14 C14        -3.1180    1.4080    0.5610 c3        1 P8H     -0.103900
     15 C15        -3.2390   -0.1060    0.3240 c3        1 P8H      0.189500
     16 N16        -4.4120   -0.4420   -0.4840 n3        1 P8H     -0.726600
     17 C17        -4.5540   -1.8720   -0.7660 c3        1 P8H      0.161800
     18 C18        -6.0450   -2.2410   -0.7140 c3        1 P8H     -0.088400
     19 C19        -6.7660   -1.0080   -0.1860 c3        1 P8H     -0.088400
     20 C20        -5.6770    0.0470    0.0660 c3        1 P8H      0.161800
     21 H2          4.8170    0.2920   -1.9000 h4        1 P8H      0.040100
     22 H4          1.3250    2.5440   -2.1570 h4        1 P8H      0.045100
     23 H6          2.0800    0.3090    1.4970 ha        1 P8H      0.163000
     24 H11         0.2050   -0.5550    0.0000 h1        1 P8H      0.061200
     25 H11A       -0.7980   -0.8140    1.5000 h1        1 P8H      0.061200
     26 H12        -1.8330   -0.1260   -1.3530 hc        1 P8H      0.059700
     27 H12A       -1.9490   -1.7010   -0.4680 hc        1 P8H      0.059700
     28 H13        -2.0320    1.2800    2.4390 h1        1 P8H      0.061200
     29 H13A       -1.7860    2.8360    1.5130 h1        1 P8H      0.061200
     30 H14        -4.0180    1.7940    1.1050 hc        1 P8H      0.059700
     31 H14A       -3.0570    1.9440   -0.4220 hc        1 P8H      0.059700
     32 H15        -3.3030   -0.6040    1.3430 h1        1 P8H      0.017700
     33 H17        -4.1320   -2.0530   -1.7910 h1        1 P8H      0.038950
     34 H17A       -3.9810   -2.5140   -0.0390 h1        1 P8H      0.038950
     35 H18        -6.4130   -2.5140   -1.7330 hc        1 P8H      0.048200
     36 H18A       -6.2050   -3.1220   -0.0460 hc        1 P8H      0.048200
     37 H19        -7.5080   -0.6300   -0.9310 hc        1 P8H      0.048200
     38 H19A       -7.3160   -1.2340    0.7600 hc        1 P8H      0.048200
     39 H20        -5.6120    0.2650    1.1690 h1        1 P8H      0.038950
     40 H20A       -5.9210    1.0090   -0.4600 h1        1 P8H      0.038950
@<TRIPOS>BOND
     1    1    2 ar  
     2    1    6 ar  
     3    1    8 1   
     4    2    3 ar  
     5    2   21 1   
     6    3    4 ar  
     7    4    5 ar  
     8    4   22 1   
     9    5    6 ar  
    10    5    7 1   
    11    6   23 1   
    12    7    9 2   
    13    7   10 1   
    14   10   11 1   
    15   10   13 1   
    16   11   12 1   
    17   11   24 1   
    18   11   25 1   
    19   12   15 1   
    20   12   26 1   
    21   12   27 1   
    22   13   14 1   
    23   13   28 1   
    24   13   29 1   
    25   14   15 1   
    26   14   30 1   
    27   14   31 1   
    28   15   16 1   
    29   15   32 1   
    30   16   17 1   
    31   16   20 1   
    32   17   18 1   
    33   17   33 1   
    34   17   34 1   
    35   18   19 1   
    36   18   35 1   
    37   18   36 1   
    38   19   20 1   
    39   19   37 1   
    40   19   38 1   
    41   20   39 1   
    42   20   40 1   
@<TRIPOS>SUBSTRUCTURE
     1 P8H         1 TEMP              0 ****  ****    0 ROOT
