@<TRIPOS>MOLECULE
P8H
   40    42     1     0     0
SMALL
bcc


@<TRIPOS>ATOM
      1 C1          0.0870   -0.4640   -0.0430 ca        1 P8H     -0.163200
      2 C2          1.4690   -0.1770   -0.0470 ca        1 P8H      0.439200
      3 N3          2.1500    0.1950    1.0520 nb        1 P8H     -0.662000
      4 C4          1.4700    0.2970    2.2080 ca        1 P8H      0.450200
      5 C5          0.0840    0.0470    2.3090 ca        1 P8H     -0.251900
      6 C6         -0.6130   -0.3480    1.1630 ca        1 P8H     -0.039000
      7 C7         -0.5680    0.1290    3.6460 c         1 P8H      0.667700
      8 BR8        -0.7770   -0.9840   -1.6090 br        1 P8H     -0.059100
      9 O9         -0.0860   -0.4980    4.6100 o         1 P8H     -0.584100
     10 N10        -1.7610    0.8410    3.7760 n         1 P8H     -0.448800
     11 C11        -2.1070    1.9210    2.8770 c3        1 P8H      0.076500
     12 C12        -1.9600    3.3190    3.4800 c3        1 P8H     -0.103900
     13 C13        -2.3770    0.9470    5.0850 c3        1 P8H      0.076500
     14 C14        -2.2370    2.3200    5.7420 c3        1 P8H     -0.103900
     15 C15        -2.7480    3.4200    4.7970 c3        1 P8H      0.189500
     16 N16        -2.6340    4.7510    5.3940 n3        1 P8H     -0.726600
     17 C17        -3.0780    5.8390    4.5210 c3        1 P8H      0.161800
     18 C18        -3.8000    6.8940    5.3720 c3        1 P8H     -0.088400
     19 C19        -3.9470    6.2870    6.7610 c3        1 P8H     -0.088400
     20 C20        -3.3140    4.8890    6.6830 c3        1 P8H      0.161800
     21 H2          2.0660   -0.2530   -0.9760 h4        1 P8H      0.040100
     22 H4          2.0560    0.5820    3.1020 h4        1 P8H      0.045100
     23 H6         -1.6920   -0.5690    1.2180 ha        1 P8H      0.163000
     24 H11        -1.4820    1.8670    1.9420 h1        1 P8H      0.061200
     25 H11A       -3.1860    1.7670    2.5800 h1        1 P8H      0.061200
     26 H12        -0.8790    3.5500    3.6660 hc        1 P8H      0.059700
     27 H12A       -2.3450    4.0590    2.7320 hc        1 P8H      0.059700
     28 H13        -3.4730    0.7170    4.9470 h1        1 P8H      0.061200
     29 H13A       -1.9360    0.1680    5.7710 h1        1 P8H      0.061200
     30 H14        -2.8310    2.3100    6.6910 hc        1 P8H      0.059700
     31 H14A       -1.1670    2.5140    6.0100 hc        1 P8H      0.059700
     32 H15        -3.8340    3.1840    4.5590 h1        1 P8H      0.017700
     33 H17        -3.7630    5.4810    3.7010 h1        1 P8H      0.038950
     34 H17A       -2.1620    6.2730    4.0370 h1        1 P8H      0.038950
     35 H18        -3.2040    7.8380    5.4090 hc        1 P8H      0.048200
     36 H18A       -4.7960    7.1370    4.9280 hc        1 P8H      0.048200
     37 H19        -3.4210    6.9100    7.5260 hc        1 P8H      0.048200
     38 H19A       -5.0200    6.2130    7.0600 hc        1 P8H      0.048200
     39 H20        -2.5400    4.7540    7.4860 h1        1 P8H      0.038950
     40 H20A       -4.1100    4.1070    6.8360 h1        1 P8H      0.038950
@<TRIPOS>BOND
     1    1    2 ar  
     2    1    6 ar  
     3    1    8 1   
     4    2    3 ar  
     5    2   21 1   
     6    3    4 ar  
     7    4    5 ar  
     8    4   22 1   
     9    5    6 ar  
    10    5    7 1   
    11    6   23 1   
    12    7    9 2   
    13    7   10 1   
    14   10   11 1   
    15   10   13 1   
    16   11   12 1   
    17   11   24 1   
    18   11   25 1   
    19   12   15 1   
    20   12   26 1   
    21   12   27 1   
    22   13   14 1   
    23   13   28 1   
    24   13   29 1   
    25   14   15 1   
    26   14   30 1   
    27   14   31 1   
    28   15   16 1   
    29   15   32 1   
    30   16   17 1   
    31   16   20 1   
    32   17   18 1   
    33   17   33 1   
    34   17   34 1   
    35   18   19 1   
    36   18   35 1   
    37   18   36 1   
    38   19   20 1   
    39   19   37 1   
    40   19   38 1   
    41   20   39 1   
    42   20   40 1   
@<TRIPOS>SUBSTRUCTURE
     1 P8H         1 TEMP              0 ****  ****    0 ROOT
