@<TRIPOS>MOLECULE
P8H
   40    42     1     0     0
SMALL
bcc


@<TRIPOS>ATOM
      1 C1          0.0940   -0.4580   -0.0450 ca        1 P8H     -0.163200
      2 C2          1.4780   -0.1750   -0.0420 ca        1 P8H      0.439200
      3 N3          2.1550    0.1920    1.0600 nb        1 P8H     -0.662000
      4 C4          1.4700    0.2930    2.2140 ca        1 P8H      0.450200
      5 C5          0.0840    0.0460    2.3090 ca        1 P8H     -0.251900
      6 C6         -0.6100   -0.3440    1.1590 ca        1 P8H     -0.039000
      7 C7         -0.5730    0.1270    3.6440 c         1 P8H      0.667700
      8 Br8        -0.7650   -0.9710   -1.6160 br        1 P8H     -0.059100
      9 O9         -0.0970   -0.5050    4.6080 o         1 P8H     -0.585100
     10 N10        -1.7650    0.8410    3.7710 n         1 P8H     -0.448800
     11 C11        -2.1050    1.9240    2.8740 c3        1 P8H      0.076500
     12 C12        -1.9560    3.3200    3.4810 c3        1 P8H     -0.103900
     13 C13        -2.3860    0.9450    5.0790 c3        1 P8H      0.076500
     14 C14        -2.2450    2.3160    5.7390 c3        1 P8H     -0.103900
     15 C15        -2.7490    3.4200    4.7950 c3        1 P8H      0.189500
     16 N16        -2.6340    4.7490    5.3970 n3        1 P8H     -0.726600
     17 C17        -3.0720    5.8400    4.5240 c3        1 P8H      0.161800
     18 C18        -3.7960    6.8950    5.3760 c3        1 P8H     -0.088400
     19 C19        -3.9490    6.2850    6.7630 c3        1 P8H     -0.088400
     20 C20        -3.3190    4.8850    6.6840 c3        1 P8H      0.161800
     21 H2          2.0770   -0.2500   -0.9690 h4        1 P8H      0.040100
     22 H4          2.0540    0.5730    3.1110 h4        1 P8H      0.045100
     23 H6         -1.6900   -0.5610    1.2090 ha        1 P8H      0.163000
     24 H11        -1.4760    1.8720    1.9420 h1        1 P8H      0.061200
     25 H11A       -3.1830    1.7740    2.5720 h1        1 P8H      0.061200
     26 H12        -0.8760    3.5490    3.6720 hc        1 P8H      0.059700
     27 H12A       -2.3370    4.0630    2.7340 hc        1 P8H      0.059700
     28 H13        -1.9500    0.1630    5.7630 h1        1 P8H      0.061200
     29 H13A       -3.4820    0.7190    4.9350 h1        1 P8H      0.061200
     30 H14        -1.1750    2.5070    6.0120 hc        1 P8H      0.059700
     31 H14A       -2.8430    2.3050    6.6860 hc        1 P8H      0.059700
     32 H15        -3.8350    3.1880    4.5520 h1        1 P8H      0.017700
     33 H17        -3.7550    5.4870    3.7010 h1        1 P8H      0.038950
     34 H17A       -2.1530    6.2740    4.0450 h1        1 P8H      0.038950
     35 H18        -3.1970    7.8370    5.4180 hc        1 P8H      0.048200
     36 H18A       -4.7890    7.1420    4.9290 hc        1 P8H      0.048200
     37 H19        -5.0240    6.2120    7.0570 hc        1 P8H      0.048200
     38 H19A       -3.4250    6.9030    7.5320 hc        1 P8H      0.048200
     39 H20        -2.5480    4.7460    7.4890 h1        1 P8H      0.038950
     40 H20A       -4.1170    4.1040    6.8320 h1        1 P8H      0.038950
@<TRIPOS>BOND
     1    1    2 ar  
     2    1    6 ar  
     3    1    8 1   
     4    2    3 ar  
     5    2   21 1   
     6    3    4 ar  
     7    4    5 ar  
     8    4   22 1   
     9    5    6 ar  
    10    5    7 1   
    11    6   23 1   
    12    7    9 2   
    13    7   10 1   
    14   10   11 1   
    15   10   13 1   
    16   11   12 1   
    17   11   24 1   
    18   11   25 1   
    19   12   15 1   
    20   12   26 1   
    21   12   27 1   
    22   13   14 1   
    23   13   28 1   
    24   13   29 1   
    25   14   15 1   
    26   14   30 1   
    27   14   31 1   
    28   15   16 1   
    29   15   32 1   
    30   16   17 1   
    31   16   20 1   
    32   17   18 1   
    33   17   33 1   
    34   17   34 1   
    35   18   19 1   
    36   18   35 1   
    37   18   36 1   
    38   19   20 1   
    39   19   37 1   
    40   19   38 1   
    41   20   39 1   
    42   20   40 1   
@<TRIPOS>SUBSTRUCTURE
     1 P8H         1 TEMP              0 ****  ****    0 ROOT
