@<TRIPOS>MOLECULE
P8P
   67    66     1     0     0
SMALL
bcc


@<TRIPOS>ATOM
      1 O1          3.6540    3.3770    0.6840 os        1 P8P     -0.831800
      2 P1          3.6060    1.9450    1.4470 p5        1 P8P      1.599800
      3 P2          3.9250    4.8370   -0.0160 p5        1 P8P      1.590800
      4 O11         4.8740    1.2140    1.2210 o         1 P8P     -0.883500
      5 O12         2.9860    2.1520    2.7720 o         1 P8P     -0.883500
      6 O13         2.5110    1.0860    0.5460 os        1 P8P     -0.595200
      7 C1A         2.0460   -1.7850   -0.0890 c         1 P8P      0.666100
      8 O1A         1.9920   -2.4740    0.9350 o         1 P8P     -0.579000
      9 C1B        -3.0750   -1.2440    0.7400 c2        1 P8P      0.439100
     10 O1B        -3.5380   -0.2970    0.0450 o         1 P8P     -0.571000
     11 C1C         1.1540    1.2100    0.8140 c3        1 P8P      0.181400
     12 O21         5.0000    5.5420    0.7160 o         1 P8P     -0.888500
     13 O22         3.9080    4.7680   -1.4910 o         1 P8P     -0.888500
     14 O23         2.5080    5.4990    0.4850 oh        1 P8P     -0.805400
     15 C2A         3.1020   -1.8530   -1.1590 c3        1 P8P     -0.119400
     16 C2B        -3.6860   -2.3570    1.3020 c2        1 P8P     -0.618200
     17 C2C         0.4730   -0.1760    0.7490 c3        1 P8P      0.126100
     18 O2C         1.0640   -0.8830   -0.3640 os        1 P8P     -0.426900
     19 C3A         4.4010   -1.3350   -0.5760 c3        1 P8P     -0.108400
     20 C3B        -5.1180   -2.6000    1.1540 c3        1 P8P      0.084800
     21 C3C        -1.0210   -0.0330    0.4400 c3        1 P8P      0.151400
     22 O3C        -1.6940   -1.1540    0.9990 os        1 P8P     -0.479900
     23 C4A         5.4370   -1.0640   -1.6430 c3        1 P8P     -0.051400
     24 C4B        -5.4100   -3.9210    0.4490 c3        1 P8P     -0.086400
     25 C5A         6.6620   -0.4280   -1.0170 c3        1 P8P     -0.106400
     26 C6A         7.6040    0.1170   -2.0670 c3        1 P8P     -0.068400
     27 C7A         8.8180    0.7590   -1.4280 c3        1 P8P     -0.084400
     28 C8A         9.7510    1.3380   -2.4590 c3        1 P8P     -0.085100
     29 H1C         0.9960    1.6520    1.8370 h1        1 P8P      0.033700
     30 H1CA        0.6800    1.8690    0.0310 h1        1 P8P      0.033700
     31 H2A         3.2060   -2.9140   -1.5020 hc        1 P8P      0.043200
     32 H2AA        2.7890   -1.2220   -2.0300 hc        1 P8P      0.043200
     33 H2B         2.1720    5.1030    1.2780 ho        1 P8P      0.423000
     34 H2BA       -3.0930   -3.0690    1.8760 ha        1 P8P      0.097000
     35 H2C         0.6320   -0.7540    1.6970 h1        1 P8P      0.080700
     36 H3A         4.2060   -0.3670   -0.0050 hc        1 P8P      0.095700
     37 H3AA        4.7990   -2.0740    0.1660 hc        1 P8P      0.095700
     38 H3B        -5.6300   -2.6410    2.1610 hc        1 P8P     -0.013300
     39 H3BA       -5.6010   -1.7660    0.5750 hc        1 P8P     -0.013300
     40 H3C        -1.4150    0.9080    0.9070 h1        1 P8P      0.036200
     41 H3CA       -1.1960    0.0080   -0.6660 h1        1 P8P      0.036200
     42 H4A         5.7180   -2.0130   -2.1730 hc        1 P8P      0.009200
     43 H4AA        5.0070   -0.3680   -2.4120 hc        1 P8P      0.009200
     44 H4B        -4.9510   -3.8970   -0.5730 hc        1 P8P      0.027700
     45 H4BA       -4.9230   -4.7580    1.0130 hc        1 P8P      0.027700
     46 C16        -6.8970   -4.1830    0.3360 c3        1 P8P     -0.077400
     47 H5A         6.3210    0.4010   -0.3230 hc        1 P8P      0.080700
     48 H5AA        7.1970   -1.1860   -0.3870 hc        1 P8P      0.080700
     49 H6A         7.9330   -0.7050   -2.7570 hc        1 P8P      0.021200
     50 H6AA        7.0650    0.8800   -2.6890 hc        1 P8P      0.021200
     51 H7A         8.4730    1.5690   -0.7300 hc        1 P8P      0.047200
     52 H7AA        9.3640   -0.0020   -0.8100 hc        1 P8P      0.047200
     53 H8A         9.2310    2.1260   -3.0570 hc        1 P8P      0.015367
     54 H8AA       10.6410    1.8000   -1.9670 hc        1 P8P      0.015367
     55 H8AB       10.1090    0.5460   -3.1610 hc        1 P8P      0.015367
     56 C17        -7.1840   -5.4930   -0.3660 c3        1 P8P     -0.079400
     57 C18        -8.6720   -5.7530   -0.4800 c3        1 P8P     -0.081400
     58 C19        -8.9610   -7.0560   -1.1780 c3        1 P8P     -0.088100
     59 H30        -7.3550   -4.1990    1.3600 hc        1 P8P      0.024700
     60 H31        -7.3810   -3.3420   -0.2280 hc        1 P8P      0.024700
     61 H32        -6.7270   -5.4760   -1.3900 hc        1 P8P      0.033700
     62 H33        -6.7000   -6.3340    0.1970 hc        1 P8P      0.033700
     63 H34        -9.1280   -5.7660    0.5450 hc        1 P8P      0.031200
     64 H35        -9.1540   -4.9100   -1.0430 hc        1 P8P      0.031200
     65 H36        -8.5340   -7.0510   -2.2110 hc        1 P8P      0.020367
     66 H37        -8.5080   -7.9100   -0.6190 hc        1 P8P      0.020367
     67 H38       -10.0620   -7.2280   -1.2530 hc        1 P8P      0.020367
@<TRIPOS>BOND
     1    1    2 1   
     2    1    3 1   
     3    2    4 1   
     4    2    5 1   
     5    2    6 1   
     6    3   12 1   
     7    3   13 1   
     8    3   14 1   
     9    6   11 1   
    10    7    8 2   
    11    7   15 1   
    12    7   18 1   
    13    9   10 1   
    14    9   16 2   
    15    9   22 1   
    16   11   17 1   
    17   11   29 1   
    18   11   30 1   
    19   14   33 1   
    20   15   19 1   
    21   15   31 1   
    22   15   32 1   
    23   16   20 1   
    24   16   34 1   
    25   17   18 1   
    26   17   21 1   
    27   17   35 1   
    28   19   23 1   
    29   19   36 1   
    30   19   37 1   
    31   20   24 1   
    32   20   38 1   
    33   20   39 1   
    34   21   22 1   
    35   21   40 1   
    36   21   41 1   
    37   23   25 1   
    38   23   42 1   
    39   23   43 1   
    40   24   44 1   
    41   24   45 1   
    42   24   46 1   
    43   25   26 1   
    44   25   47 1   
    45   25   48 1   
    46   26   27 1   
    47   26   49 1   
    48   26   50 1   
    49   27   28 1   
    50   27   51 1   
    51   27   52 1   
    52   28   53 1   
    53   28   54 1   
    54   28   55 1   
    55   46   56 1   
    56   46   59 1   
    57   46   60 1   
    58   56   57 1   
    59   56   61 1   
    60   56   62 1   
    61   57   58 1   
    62   57   63 1   
    63   57   64 1   
    64   58   65 1   
    65   58   66 1   
    66   58   67 1   
@<TRIPOS>SUBSTRUCTURE
     1 P8P         1 TEMP              0 ****  ****    0 ROOT
