@<TRIPOS>MOLECULE
P8P
   67    64     1     0     0
SMALL
bcc


@<TRIPOS>ATOM
      1 O1         -5.6930   -0.6190    4.2930 os        1 P8P     -1.211000
      2 P1         -4.1270   -0.4120    4.3470 p5        1 P8P      2.109000
      3 P2         -6.6150   -0.6660    5.5770 p5        1 P8P      1.627500
      4 O11        -3.5220   -1.3960    5.3190 o         1 P8P     -0.691500
      5 O12        -3.8210    0.9950    4.8000 o         1 P8P     -0.691500
      6 O13        -3.5150   -0.6470    2.9090 os        1 P8P     -0.764000
      7 C1A        -0.1980   -2.2570    1.3220 c1        1 P8P      0.314000
      8 O1A        -1.0460   -2.9530    1.8440 o         1 P8P     -0.490000
      9 C1B        -1.8520    1.8210   -1.5230 c1        1 P8P      0.314000
     10 O1B        -2.9140    2.3640   -1.2960 o         1 P8P     -0.490000
     11 C1C        -2.1330   -0.4420    2.7260 c3        1 P8P      0.106000
     12 O21        -6.0600    0.2640    6.6290 o         1 P8P     -0.874167
     13 O22        -8.0130   -0.2320    5.2090 o         1 P8P     -0.874167
     14 O23        -6.6510   -2.0750    6.1190 o         1 P8P     -0.874167
     15 C2A         1.1230   -2.8610    0.9000 c3        1 P8P     -0.193000
     16 C2B        -1.0820    2.1600   -2.7800 c3        1 P8P     -0.193000
     17 C2C        -1.8010   -0.5310    1.2530 c3        1 P8P     -0.099000
     18 O2C        -0.4510   -0.8930    1.0970 o         1 P8P     -0.590000
     19 C3A         1.7620   -3.5530    2.0840 c3        1 P8P     -0.149500
     20 C3B        -1.6840    3.3900   -3.4240 c3        1 P8P     -0.149500
     21 C3C        -2.0410    0.8120    0.6000 c3        1 P8P     -0.173000
     22 O3C        -1.3410    0.8730   -0.6200 o         1 P8P     -0.214000
     23 C4A         2.8290   -4.5090    1.5940 c3        1 P8P     -0.157500
     24 C4B        -0.6420    4.0690   -4.2860 c3        1 P8P     -0.157500
     25 C5A         3.8460   -4.7370    2.6920 c3        1 P8P     -0.157500
     26 C6A         4.6720   -5.9630    2.3680 c3        1 P8P     -0.157500
     27 C7A         5.9030   -5.9870    3.2480 c3        1 P8P     -0.159500
     28 C8A         6.6110   -7.3160    3.0880 c3        1 P8P     -0.208500
     29 H1C        -1.8870    0.4440    3.0630 h1        1 P8P      0.054500
     30 H1CA       -1.6330   -1.1280    3.2150 h1        1 P8P      0.054500
     31 H2A         1.7160   -2.1540    0.5770 hc        1 P8P      0.085250
     32 H2AA        0.9710   -3.5110    0.1860 hc        1 P8P      0.085250
     33 H2B        -1.1300    1.4090   -3.4040 hc        1 P8P      0.085250
     34 H2BA       -0.1470    2.3350   -2.5520 hc        1 P8P      0.085250
     35 H2C        -2.3700   -1.2040    0.8300 h1        1 P8P      0.181000
     36 H3A         2.1680   -2.8850    2.6730 hc        1 P8P      0.087250
     37 H3AA        1.0800   -4.0510    2.5780 hc        1 P8P      0.087250
     38 H3B        -1.9840    4.0080   -2.7280 hc        1 P8P      0.087250
     39 H3BA       -2.4450    3.1280   -3.9780 hc        1 P8P      0.087250
     40 H3C        -2.9990    0.9270    0.4330 h1        1 P8P      0.176000
     41 H3CA       -1.7250    1.5250    1.1940 h1        1 P8P      0.176000
     42 H4A         3.2740   -4.1280    0.8110 hc        1 P8P      0.071750
     43 H4AA        2.4160   -5.3620    1.3510 hc        1 P8P      0.071750
     44 H4B        -0.3090    3.4370   -4.9540 hc        1 P8P      0.071750
     45 H4BA        0.1000    4.3700   -3.7240 hc        1 P8P      0.071750
     46 C16        -1.2620    5.2600   -4.9830 c3        1 P8P     -0.157500
     47 H5A         4.4320   -3.9570    2.7600 hc        1 P8P      0.076750
     48 H5AA        3.3820   -4.8720    3.5430 hc        1 P8P      0.076750
     49 H6A         4.1400   -6.7670    2.5300 hc        1 P8P      0.076000
     50 H6AA        4.9430   -5.9340    1.4290 hc        1 P8P      0.076000
     51 H7A         6.5060   -5.2630    2.9850 hc        1 P8P      0.075750
     52 H7AA        5.6390   -5.8690    4.1820 hc        1 P8P      0.075750
     53 H8A         6.1000   -8.0150    3.5460 hc        1 P8P      0.066333
     54 H8AA        6.6830   -7.5350    2.1350 hc        1 P8P      0.066333
     55 H8AB        7.5080   -7.2570    3.4780 hc        1 P8P      0.066333
     56 C17        -0.1680    6.1710   -5.4950 c3        1 P8P     -0.157500
     57 C18        -0.7540    7.1600   -6.4770 c3        1 P8P     -0.159500
     58 C19         0.2440    8.2680   -6.7340 c3        1 P8P     -0.208500
     59 H30        -1.8070    4.9500   -5.7340 hc        1 P8P      0.076750
     60 H31        -1.8260    5.7500   -4.3510 hc        1 P8P      0.076750
     61 H32         0.5190    5.6360   -5.9410 hc        1 P8P      0.076000
     62 H33         0.2320    6.6540   -4.7440 hc        1 P8P      0.076000
     63 H34        -1.5760    7.5400   -6.1060 hc        1 P8P      0.075750
     64 H35        -0.9580    6.7030   -7.3180 hc        1 P8P      0.075750
     65 H36         0.2580    8.8790   -5.9680 hc        1 P8P      0.066333
     66 H37        -0.0150    8.7600   -7.5400 hc        1 P8P      0.066333
     67 H38         1.1360    7.8810   -6.8600 hc        1 P8P      0.066333
@<TRIPOS>BOND
     1    1    2 1   
     2    1    3 1   
     3    2    4 1   
     4    2    5 1   
     5    2    6 1   
     6    3   12 1   
     7    3   13 1   
     8    3   14 1   
     9    6   11 1   
    10    7    8 1   
    11    7   15 1   
    12    9   10 1   
    13    9   16 1   
    14   11   17 1   
    15   11   29 1   
    16   11   30 1   
    17   15   19 1   
    18   15   31 1   
    19   15   32 1   
    20   16   20 1   
    21   16   33 1   
    22   16   34 1   
    23   17   18 1   
    24   17   21 1   
    25   17   35 1   
    26   19   23 1   
    27   19   36 1   
    28   19   37 1   
    29   20   24 1   
    30   20   38 1   
    31   20   39 1   
    32   21   22 1   
    33   21   40 1   
    34   21   41 1   
    35   23   25 1   
    36   23   42 1   
    37   23   43 1   
    38   24   44 1   
    39   24   45 1   
    40   24   46 1   
    41   25   26 1   
    42   25   47 1   
    43   25   48 1   
    44   26   27 1   
    45   26   49 1   
    46   26   50 1   
    47   27   28 1   
    48   27   51 1   
    49   27   52 1   
    50   28   53 1   
    51   28   54 1   
    52   28   55 1   
    53   46   56 1   
    54   46   59 1   
    55   46   60 1   
    56   56   57 1   
    57   56   61 1   
    58   56   62 1   
    59   57   58 1   
    60   57   63 1   
    61   57   64 1   
    62   58   65 1   
    63   58   66 1   
    64   58   67 1   
@<TRIPOS>SUBSTRUCTURE
     1 P8P         1 TEMP              0 ****  ****    0 ROOT
