@<TRIPOS>MOLECULE
P8S
   29    27     1     0     0
SMALL
bcc


@<TRIPOS>ATOM
      1 F8C        -3.8200   -1.2180    4.5740 f         1 P8S     -0.209300
      2 C8         -2.7320   -1.5560    3.8720 c3        1 P8S      0.598900
      3 F8A        -1.6540   -1.5050    4.6660 f         1 P8S     -0.209300
      4 F8B        -2.8760   -2.7990    3.3950 f         1 P8S     -0.209300
      5 C7         -2.5550   -0.5920    2.7200 c3        1 P8S      0.346600
      6 F7A        -2.5930    0.6650    3.1800 f         1 P8S     -0.180800
      7 F7B        -3.5410   -0.7710    1.8320 f         1 P8S     -0.180800
      8 C6         -1.2220   -0.8440    2.0510 c3        1 P8S      0.345600
      9 F6A        -1.1000   -2.1490    1.7760 f         1 P8S     -0.182300
     10 F6B        -0.2330   -0.4660    2.8700 f         1 P8S     -0.182300
     11 C5         -1.1440   -0.0490    0.7660 c3        1 P8S      0.345600
     12 F5B        -2.0280   -0.5360   -0.1150 f         1 P8S     -0.184300
     13 F5A        -1.4260    1.2360    1.0180 f         1 P8S     -0.184300
     14 C4          0.2510   -0.1560    0.1900 c3        1 P8S      0.342600
     15 F4A         1.1130    0.4860    0.9890 f         1 P8S     -0.187800
     16 F4B         0.6000   -1.4450    0.1020 f         1 P8S     -0.187800
     17 C3          0.2780    0.4700   -1.1870 c3        1 P8S      0.334600
     18 F3B        -0.2630    1.6940   -1.1310 f         1 P8S     -0.194800
     19 F3A        -0.4250   -0.2900   -2.0360 f         1 P8S     -0.194800
     20 C2          1.7090    0.5720   -1.6670 c3        1 P8S      0.369600
     21 F2A         2.3520    1.5080   -0.9570 f         1 P8S     -0.206800
     22 F2B         2.3190   -0.6090   -1.5050 f         1 P8S     -0.206800
     23 C1          1.7240    0.9510   -3.1310 c3        1 P8S      0.312900
     24 F1B         1.0000    2.0630   -3.3120 f         1 P8S     -0.244300
     25 F1A         1.2000   -0.0460   -3.8550 f         1 P8S     -0.244300
     26 S1          3.3950    1.2430   -3.6490 s4        1 P8S      1.653500
     27 O3          3.4480    1.7380   -5.0750 o         1 P8S     -0.620900
     28 O1          4.2230   -0.0070   -3.4720 os        1 P8S     -1.016000
     29 O2          4.0010    2.4110   -2.9100 o         1 P8S     -0.620900
@<TRIPOS>BOND
     1    1    2 1   
     2    2    3 1   
     3    2    4 1   
     4    2    5 1   
     5    5    6 1   
     6    5    7 1   
     7    5    8 1   
     8    8    9 1   
     9    8   10 1   
    10    8   11 1   
    11   11   12 1   
    12   11   13 1   
    13   11   14 1   
    14   14   15 1   
    15   14   16 1   
    16   14   17 1   
    17   17   18 1   
    18   17   19 1   
    19   17   20 1   
    20   20   21 1   
    21   20   22 1   
    22   20   23 1   
    23   23   24 1   
    24   23   25 1   
    25   23   26 1   
    26   26   27 1   
    27   26   29 1   
@<TRIPOS>SUBSTRUCTURE
     1 P8S         1 TEMP              0 ****  ****    0 ROOT
