@<TRIPOS>MOLECULE
P8S
   29    27     1     0     0
SMALL
bcc


@<TRIPOS>ATOM
      1 F8C        -5.5260   -1.2220    1.0920 f         1 P8S     -0.137667
      2 C8         -5.4510   -0.4090   -0.0000 c3        1 P8S      0.385000
      3 F8A        -5.5260   -1.2210   -1.0940 f         1 P8S     -0.137667
      4 F8B        -6.6020    0.3280    0.0000 f         1 P8S     -0.137667
      5 C7         -4.1350    0.5290    0.0000 c3        1 P8S      0.203000
      6 F7A        -4.1670    1.3680   -1.0790 f         1 P8S     -0.110000
      7 F7B        -4.1670    1.3660    1.0810 f         1 P8S     -0.110000
      8 C6         -2.8090   -0.3830   -0.0000 c3        1 P8S      0.202000
      9 F6A        -2.8160   -1.2240    1.0790 f         1 P8S     -0.110000
     10 F6B        -2.8160   -1.2220   -1.0810 f         1 P8S     -0.110000
     11 C5         -1.4970    0.5560    0.0000 c3        1 P8S      0.202000
     12 F5B        -1.5260    1.3970   -1.0790 f         1 P8S     -0.113000
     13 F5A        -1.5260    1.3950    1.0810 f         1 P8S     -0.113000
     14 C4         -0.1660   -0.3570   -0.0000 c3        1 P8S      0.199000
     15 F4A        -0.1840   -1.1980    1.0790 f         1 P8S     -0.116000
     16 F4B        -0.1840   -1.1970   -1.0800 f         1 P8S     -0.116000
     17 C3          1.1500    0.5810    0.0000 c3        1 P8S      0.191000
     18 F3B         1.1070    1.4230   -1.0770 f         1 P8S     -0.123000
     19 F3A         1.1070    1.4210    1.0790 f         1 P8S     -0.123000
     20 C2          2.4960   -0.3270   -0.0000 c3        1 P8S      0.226000
     21 F2A         2.4510   -1.1750    1.0750 f         1 P8S     -0.134000
     22 F2B         2.4510   -1.1740   -1.0760 f         1 P8S     -0.134000
     23 C1          3.8050    0.5810    0.0000 c2        1 P8S     -0.256000
     24 F1B         3.7660    1.4320   -1.0730 f         1 P8S     -0.173000
     25 F1A         3.7660    1.4310    1.0750 f         1 P8S     -0.173000
     26 S1          5.7030   -0.5130   -0.0000 s4        1 P8S      2.862000
     27 O3          5.5770   -1.2210   -1.1750 o         1 P8S     -1.013333
     28 O1          6.5800    0.5500    0.0000 o         1 P8S     -1.013333
     29 O2          5.5770   -1.2230    1.1730 o         1 P8S     -1.013333
@<TRIPOS>BOND
     1    1    2 1   
     2    2    3 1   
     3    2    4 1   
     4    2    5 1   
     5    5    6 1   
     6    5    7 1   
     7    5    8 1   
     8    8    9 1   
     9    8   10 1   
    10    8   11 1   
    11   11   12 1   
    12   11   13 1   
    13   11   14 1   
    14   14   15 1   
    15   14   16 1   
    16   14   17 1   
    17   17   18 1   
    18   17   19 1   
    19   17   20 1   
    20   20   21 1   
    21   20   22 1   
    22   20   23 1   
    23   23   24 1   
    24   23   25 1   
    25   26   27 1   
    26   26   28 1   
    27   26   29 1   
@<TRIPOS>SUBSTRUCTURE
     1 P8S         1 TEMP              0 ****  ****    0 ROOT
