@<TRIPOS>MOLECULE
P8S
   29    27     1     0     0
SMALL
bcc


@<TRIPOS>ATOM
      1 F8C        -5.6200   -0.0960    1.5280 f         1 P8S     -0.138000
      2 C8         -5.4470   -0.2900    0.1890 c3        1 P8S      0.385000
      3 F8A        -5.4610   -1.6390   -0.0120 f         1 P8S     -0.138000
      4 F8B        -6.5770    0.1910   -0.4100 f         1 P8S     -0.138000
      5 C7         -4.1110    0.4210   -0.3780 c3        1 P8S      0.204000
      6 F7A        -4.1570    0.4680   -1.7440 f         1 P8S     -0.109500
      7 F7B        -4.0920    1.7340    0.0040 f         1 P8S     -0.109500
      8 C6         -2.8070   -0.3690    0.1340 c3        1 P8S      0.203000
      9 F6A        -2.9250   -0.6710    1.4640 f         1 P8S     -0.110500
     10 F6B        -2.7290   -1.5870   -0.4830 f         1 P8S     -0.110500
     11 C5         -1.4860    0.5180   -0.1380 c3        1 P8S      0.203000
     12 F5B        -1.5360    1.0680   -1.3900 f         1 P8S     -0.113000
     13 F5A        -1.4760    1.5970    0.7030 f         1 P8S     -0.113000
     14 C4         -0.1650   -0.3920    0.0430 c3        1 P8S      0.200000
     15 F4A        -0.2850   -1.1730    1.1600 f         1 P8S     -0.116500
     16 F4B        -0.0880   -1.2900   -0.9870 f         1 P8S     -0.116500
     17 C3          1.1480    0.5470    0.1230 c3        1 P8S      0.192000
     18 F3B         1.0670    1.5320   -0.8230 f         1 P8S     -0.123500
     19 F3A         1.1390    1.2240    1.3110 f         1 P8S     -0.123500
     20 C2          2.4940   -0.3440   -0.0610 c3        1 P8S      0.227000
     21 F2A         2.3580   -1.5040    0.6560 f         1 P8S     -0.135500
     22 F2B         2.5490   -0.7750   -1.3600 f         1 P8S     -0.135500
     23 C1          3.7910    0.4780    0.3660 c2        1 P8S     -0.256000
     24 F1B         3.6750    1.7750   -0.0590 f         1 P8S     -0.173000
     25 F1A         3.8100    0.5980    1.7310 f         1 P8S     -0.173000
     26 S1          5.6870   -0.3630   -0.3350 s4        1 P8S      2.863000
     27 O3          5.6460    0.0030   -1.6620 o         1 P8S     -1.013667
     28 O1          6.5630    0.3250    0.4760 o         1 P8S     -1.013667
     29 O2          5.4750   -1.6930   -0.0450 o         1 P8S     -1.013667
@<TRIPOS>BOND
     1    1    2 1   
     2    2    3 1   
     3    2    4 1   
     4    2    5 1   
     5    5    6 1   
     6    5    7 1   
     7    5    8 1   
     8    8    9 1   
     9    8   10 1   
    10    8   11 1   
    11   11   12 1   
    12   11   13 1   
    13   11   14 1   
    14   14   15 1   
    15   14   16 1   
    16   14   17 1   
    17   17   18 1   
    18   17   19 1   
    19   17   20 1   
    20   20   21 1   
    21   20   22 1   
    22   20   23 1   
    23   23   24 1   
    24   23   25 1   
    25   26   27 1   
    26   26   28 1   
    27   26   29 1   
@<TRIPOS>SUBSTRUCTURE
     1 P8S         1 TEMP              0 ****  ****    0 ROOT
