@<TRIPOS>MOLECULE
P90
   65    69     1     0     0
SMALL
bcc


@<TRIPOS>ATOM
      1 C1         -0.8710    0.6100    0.0300 c3        1 P90      0.183000
      2 C32         0.6400    0.3190    0.2690 c3        1 P90     -0.067000
      3 C33         1.4880    1.5030    0.5400 ca        1 P90     -0.425000
      4 C4A         1.5460    2.0420    1.8670 ca        1 P90     -0.039500
      5 C4B         2.6580    1.6920   -0.2700 ca        1 P90     -0.039500
      6 C5A         2.6040    2.7710    2.3120 ca        1 P90     -0.229500
      7 C5B         3.7280    2.4170    0.1500 ca        1 P90     -0.229500
      8 C36         3.7660    2.9900    1.4780 ca        1 P90     -0.006000
      9 C37         4.8530    3.6810    1.9220 c2        1 P90      0.045000
     10 F38         5.0610    4.2580    3.1300 f         1 P90     -0.120500
     11 F39         6.0110    3.9510    1.2770 f         1 P90     -0.120500
     12 P40         7.5140    5.2280    3.0560 p3        1 P90      2.386000
     13 O41         7.5430    6.1540    1.9060 o         1 P90     -1.132000
     14 O42         7.0020    5.7120    4.3540 o         1 P90     -1.132000
     15 O43         8.2460    3.9460    3.0010 o         1 P90     -1.132000
     16 N61        -1.6580    0.6110    1.2890 na        1 P90     -0.164000
     17 N62        -2.6110    1.5410    1.5640 n2        1 P90      0.083000
     18 N63        -3.2020    1.3260    2.6600 n2        1 P90     -0.112000
     19 C7A        -2.6650    0.1490    3.2510 ca        1 P90     -0.136000
     20 C7B        -1.6400   -0.3330    2.3370 ca        1 P90     -0.007000
     21 C8A        -2.9440   -0.5260    4.4420 ca        1 P90     -0.059000
     22 C8B        -0.9290   -1.5010    2.6480 ca        1 P90     -0.113000
     23 C9A        -2.2200   -1.6740    4.7200 ca        1 P90     -0.170000
     24 C9B        -1.2330   -2.1470    3.8360 ca        1 P90     -0.118000
     25 C51        -0.9810    1.9700   -0.6410 c2        1 P90     -0.320000
     26 S52         0.2940    3.1000   -0.5240 ss        1 P90      0.770000
     27 N53        -2.0590    2.3520   -1.3380 n2        1 P90     -0.131000
     28 C54        -1.8450    3.6420   -1.8190 ca        1 P90     -0.073000
     29 C55        -0.5750    4.2060   -1.4440 ca        1 P90     -0.455000
     30 C56        -0.2520    5.5010   -1.8770 ca        1 P90     -0.072000
     31 C57        -1.1460    6.2150   -2.6500 ca        1 P90     -0.158000
     32 C58        -2.3900    5.6600   -3.0150 ca        1 P90     -0.164000
     33 C59        -2.7480    4.3910   -2.6110 ca        1 P90     -0.091000
     34 C12        -1.4560   -0.4360   -0.9630 c3        1 P90     -0.155000
     35 C13        -1.1830   -1.8470   -0.6270 c2        1 P90     -0.117000
     36 C14        -1.9560   -2.9000   -0.9270 c2        1 P90     -0.169000
     37 C15        -3.2340   -2.9010   -1.6200 ca        1 P90     -0.021000
     38 C1A        -4.2290   -3.8040   -1.2090 ca        1 P90     -0.121500
     39 C1B        -3.4980   -2.0530   -2.7050 ca        1 P90     -0.121500
     40 C2A        -5.4580   -3.8470   -1.8590 ca        1 P90     -0.133000
     41 C2B        -4.7310   -2.1010   -3.3540 ca        1 P90     -0.133000
     42 C16        -5.7130   -2.9950   -2.9340 ca        1 P90     -0.143000
     43 H321        1.0050   -0.1910   -0.6650 hc        1 P90      0.070500
     44 H322        0.7490   -0.4160    1.1100 hc        1 P90      0.070500
     45 H4A         0.6870    1.8590    2.5320 ha        1 P90      0.090000
     46 H4B         2.6670    1.2360   -1.2740 ha        1 P90      0.090000
     47 H5A         2.6170    3.2110    3.3180 ha        1 P90      0.120000
     48 H5B         4.5990    2.5870   -0.4970 ha        1 P90      0.120000
     49 H8A        -3.7120   -0.1470    5.1300 ha        1 P90      0.136000
     50 H8B        -0.1500   -1.9010    1.9850 ha        1 P90      0.144000
     51 H9A        -2.4090   -2.2260    5.6510 ha        1 P90      0.119000
     52 H9B        -0.6790   -3.0600    4.1020 ha        1 P90      0.122000
     53 H56         0.7160    5.9400   -1.5910 ha        1 P90      0.133000
     54 H57        -0.8970    7.2310   -2.9870 ha        1 P90      0.108000
     55 H58        -3.0800    6.2560   -3.6270 ha        1 P90      0.102000
     56 H59        -3.7190    3.9580   -2.8890 ha        1 P90      0.120000
     57 H121       -0.9880   -0.2180   -1.9640 hc        1 P90      0.118000
     58 H122       -2.5630   -0.2670   -1.0690 hc        1 P90      0.118000
     59 H13        -0.2300   -2.0330   -0.0980 ha        1 P90      0.127000
     60 H14        -1.6260   -3.9060   -0.6070 ha        1 P90      0.115000
     61 H1A        -4.0320   -4.4730   -0.3580 ha        1 P90      0.137000
     62 H1B        -2.7280   -1.3440   -3.0460 ha        1 P90      0.137000
     63 H2A        -6.2320   -4.5510   -1.5210 ha        1 P90      0.123000
     64 H2B        -4.9270   -1.4220   -4.1970 ha        1 P90      0.123000
     65 H16        -6.6860   -3.0260   -3.4430 ha        1 P90      0.118000
@<TRIPOS>BOND
     1    1    2 1   
     2    1   16 1   
     3    1   25 1   
     4    1   34 1   
     5    2    3 1   
     6    2   43 1   
     7    2   44 1   
     8    3    4 1   
     9    3    5 1   
    10    4    6 1   
    11    4   45 1   
    12    5    7 1   
    13    5   46 1   
    14    6    8 1   
    15    6   47 1   
    16    7    8 1   
    17    7   48 1   
    18    8    9 1   
    19    9   10 1   
    20    9   11 1   
    21   12   13 1   
    22   12   14 1   
    23   12   15 1   
    24   16   17 1   
    25   16   20 1   
    26   17   18 1   
    27   18   19 1   
    28   19   20 1   
    29   19   21 1   
    30   20   22 1   
    31   21   23 1   
    32   21   49 1   
    33   22   24 1   
    34   22   50 1   
    35   23   24 1   
    36   23   51 1   
    37   24   52 1   
    38   25   26 1   
    39   25   27 1   
    40   26   29 1   
    41   27   28 1   
    42   28   29 1   
    43   28   33 1   
    44   29   30 1   
    45   30   31 1   
    46   30   53 1   
    47   31   32 1   
    48   31   54 1   
    49   32   33 1   
    50   32   55 1   
    51   33   56 1   
    52   34   35 1   
    53   34   57 1   
    54   34   58 1   
    55   35   36 1   
    56   35   59 1   
    57   36   37 1   
    58   36   60 1   
    59   37   38 1   
    60   37   39 1   
    61   38   40 1   
    62   38   61 1   
    63   39   41 1   
    64   39   62 1   
    65   40   42 1   
    66   40   63 1   
    67   41   42 1   
    68   41   64 1   
    69   42   65 1   
@<TRIPOS>SUBSTRUCTURE
     1 P90         1 TEMP              0 ****  ****    0 ROOT
