@<TRIPOS>MOLECULE
P90
   65    59     1     0     0
SMALL
bcc


@<TRIPOS>ATOM
      1 C1         -0.3160   -0.4840    0.4680 c3        1 P90      0.186000
      2 C32         1.1980   -0.4810    0.4410 c3        1 P90     -0.066000
      3 C33         1.7030    0.9540    0.4550 c2        1 P90     -0.426000
      4 C4A         1.6880    1.6820    1.6360 c2        1 P90     -0.051000
      5 C4B         2.2700    1.4990   -0.6870 c1        1 P90     -0.041000
      6 C5A         2.2400    2.9540    1.6740 c1        1 P90     -0.228000
      7 C5B         2.8220    2.7720   -0.6480 c1        1 P90     -0.230000
      8 C36         2.8070    3.4990    0.5320 c1        1 P90     -0.008000
      9 C37         3.2940    4.9340    0.5410 c3        1 P90      0.045000
     10 F38         2.6620    5.6140    1.5080 f         1 P90     -0.120000
     11 F39         3.0360    5.5000   -0.6430 f         1 P90     -0.120000
     12 P40         5.0820    4.9640    0.8500 p5        1 P90      1.427500
     13 O41         5.8220    4.8310   -0.4610 o         1 P90     -0.812500
     14 O42         5.4570    6.2690    1.5080 o         1 P90     -0.812500
     15 O43         5.4560    3.8180    1.7570 o         1 P90     -0.812500
     16 N61        -0.7640   -0.4660    1.8120 n3        1 P90     -0.167000
     17 N62        -1.6600    0.5580    1.7930 n2        1 P90      0.057000
     18 N63        -1.9450    0.8940    3.0810 n2        1 P90     -0.118000
     19 C7A        -1.2270    0.0800    3.8950 c1        1 P90     -0.144000
     20 C7B        -0.4950   -0.7630    3.1080 c1        1 P90     -0.005000
     21 C8A        -1.1370   -0.0100    5.2960 c1        1 P90     -0.071000
     22 C8B         0.3490   -1.7230    3.7000 c1        1 P90     -0.111000
     23 C9A        -0.3060   -0.9550    5.8790 c1        1 P90     -0.148333
     24 C9B         0.4370   -1.8110    5.0800 c1        1 P90     -0.148333
     25 C51        -0.8360    0.7390   -0.2530 c2        1 P90     -0.325000
     26 S52        -1.7170    1.9490   -0.6110 ss        1 P90      0.748000
     27 N53        -0.3250    0.1960   -1.4660 n2        1 P90     -0.120000
     28 C54        -0.8760    1.0610   -2.6730 c1        1 P90     -0.076000
     29 C55        -1.7000    2.0970   -2.1440 c1        1 P90     -0.451000
     30 C56        -2.2520    3.0450   -2.9940 c1        1 P90     -0.074000
     31 C57        -2.0000    2.9840   -4.3690 c1        1 P90     -0.148333
     32 C58        -1.1850    1.9590   -4.8920 c1        1 P90     -0.148333
     33 C59        -0.6270    1.0020   -4.0370 c1        1 P90     -0.088000
     34 C12        -0.8310   -1.7330   -0.2190 c3        1 P90     -0.150000
     35 C13        -0.9090   -2.8650    0.7820 c2        1 P90     -0.114000
     36 C14        -1.3840   -4.0710    0.4020 c1        1 P90     -0.169000
     37 C15        -1.8370   -4.2910   -1.0250 c1        1 P90     -0.026000
     38 C1A        -3.1860   -4.2130   -1.3430 c2        1 P90     -0.110000
     39 C1B        -0.9160   -4.6510   -1.9970 c1        1 P90     -0.132000
     40 C2A        -3.6120   -4.4950   -2.6330 c1        1 P90     -0.129000
     41 C2B        -1.3420   -4.9330   -3.2870 c1        1 P90     -0.148333
     42 C16        -2.6900   -4.8560   -3.6040 c1        1 P90     -0.148333
     43 H321        1.5100   -0.9280   -0.3690 hc        1 P90      0.070000
     44 H322        1.5390   -0.9550    1.2270 hc        1 P90      0.070000
     45 H4A         1.2890    1.2980    2.4410 ha        1 P90      0.097000
     46 H4B         2.2800    0.9870   -1.5170 ha        1 P90      0.085000
     47 H5A         2.2290    3.4660    2.5070 ha        1 P90      0.122000
     48 H5B         3.2210    3.1550   -1.4520 ha        1 P90      0.119000
     49 H8A        -1.6610    0.5930    5.8590 ha        1 P90      0.132000
     50 H8B         0.8840   -2.3160    3.1380 ha        1 P90      0.181000
     51 H9A        -0.2500   -1.0230    6.8490 ha        1 P90      0.116833
     52 H9B         1.0220   -2.4760    5.4900 ha        1 P90      0.116833
     53 H56        -2.8160    3.7540   -2.6330 ha        1 P90      0.132000
     54 H57        -2.3880    3.6500   -4.9650 ha        1 P90      0.116833
     55 H58        -0.9950    1.9270   -5.8490 ha        1 P90      0.116833
     56 H59        -0.0630    0.2930   -4.4000 ha        1 P90      0.123000
     57 H121       -1.7220   -1.5600   -0.5860 hc        1 P90      0.120000
     58 H122       -0.2220   -1.9810   -0.9460 hc        1 P90      0.120000
     59 H13        -0.6170   -2.7240    1.7010 ha        1 P90      0.127000
     60 H14        -1.4340   -4.8020    1.0490 ha        1 P90      0.116000
     61 H1A        -3.8390   -3.9970   -0.6500 ha        1 P90      0.164000
     62 H1B         0.0260   -4.7460   -1.7640 ha        1 P90      0.125000
     63 H2A        -4.5590   -4.4410   -2.8560 ha        1 P90      0.130000
     64 H2B        -0.6930   -5.1710   -3.9730 ha        1 P90      0.116833
     65 H16        -2.9900   -5.0540   -4.5120 ha        1 P90      0.116833
@<TRIPOS>BOND
     1    1    2 1   
     2    1   16 1   
     3    1   25 1   
     4    1   34 1   
     5    2    3 1   
     6    2   43 1   
     7    2   44 1   
     8    3    4 1   
     9    3    5 1   
    10    4    6 1   
    11    4   45 1   
    12    5   46 1   
    13    6   47 1   
    14    7    8 1   
    15    7   48 1   
    16    8    9 1   
    17    9   10 1   
    18    9   11 1   
    19    9   12 1   
    20   12   13 1   
    21   12   14 1   
    22   12   15 1   
    23   16   17 1   
    24   16   20 1   
    25   17   18 1   
    26   18   19 1   
    27   19   21 1   
    28   20   22 1   
    29   21   49 1   
    30   22   50 1   
    31   23   24 1   
    32   23   51 1   
    33   24   52 1   
    34   25   26 1   
    35   25   27 1   
    36   26   29 1   
    37   27   28 1   
    38   28   33 1   
    39   29   30 1   
    40   30   53 1   
    41   31   32 1   
    42   31   54 1   
    43   32   55 1   
    44   33   56 1   
    45   34   35 1   
    46   34   57 1   
    47   34   58 1   
    48   35   36 1   
    49   35   59 1   
    50   36   60 1   
    51   37   38 1   
    52   37   39 1   
    53   38   40 1   
    54   38   61 1   
    55   39   62 1   
    56   40   63 1   
    57   41   42 1   
    58   41   64 1   
    59   42   65 1   
@<TRIPOS>SUBSTRUCTURE
     1 P90         1 TEMP              0 ****  ****    0 ROOT
