@<TRIPOS>MOLECULE
P90
   65    69     1     0     0
SMALL
bcc


@<TRIPOS>ATOM
      1 C1         -0.3030    0.6590    1.2200 c3        1 P90      0.174000
      2 C32        -0.5880    1.5170   -0.0580 c3        1 P90     -0.066000
      3 C33        -0.0050    1.0000   -1.3170 ca        1 P90     -0.425000
      4 C4A        -0.6990   -0.0170   -2.0540 ca        1 P90     -0.040000
      5 C4B         0.8250    1.8830   -2.0870 ca        1 P90     -0.040000
      6 C5A        -0.5150   -0.2030   -3.3870 ca        1 P90     -0.228500
      7 C5B         1.0270    1.7170   -3.4200 ca        1 P90     -0.228500
      8 C36         0.3550    0.6640   -4.1520 ca        1 P90     -0.007000
      9 C37         0.5230    0.5140   -5.4950 c2        1 P90      0.046000
     10 F38        -0.0340   -0.3890   -6.3330 f         1 P90     -0.120500
     11 F39         1.2820    1.2530   -6.3390 f         1 P90     -0.120500
     12 P40         0.8550    0.2850   -8.7510 p3        1 P90      2.386000
     13 O41         2.0110    1.1860   -8.9380 o         1 P90     -1.132000
     14 O42         1.0860   -1.1730   -8.7200 o         1 P90     -1.132000
     15 O43        -0.5120    0.8240   -8.8870 o         1 P90     -1.132000
     16 N61        -1.3580   -0.3570    1.4350 na        1 P90     -0.161000
     17 N62        -1.1470   -1.6890    1.5790 n2        1 P90      0.083000
     18 N63        -2.2210   -2.3300    1.7730 n2        1 P90     -0.112000
     19 C7A        -3.3130   -1.4180    1.7780 ca        1 P90     -0.132000
     20 C7B        -2.7390   -0.1020    1.5550 ca        1 P90     -0.016000
     21 C8A        -4.6920   -1.5720    1.9440 ca        1 P90     -0.057000
     22 C8B        -3.5600    1.0340    1.5160 ca        1 P90     -0.114000
     23 C9A        -5.4800   -0.4330    1.8960 ca        1 P90     -0.170000
     24 C9B        -4.9210    0.8430    1.6870 ca        1 P90     -0.117000
     25 C51         1.0470   -0.0060    1.0570 c2        1 P90     -0.318000
     26 S52         1.7440   -0.1710   -0.4920 ss        1 P90      0.778000
     27 N53         1.7470   -0.5010    2.0850 n2        1 P90     -0.141000
     28 C54         2.9360   -1.0390    1.5970 ca        1 P90     -0.071000
     29 C55         3.0850   -0.9370    0.1690 ca        1 P90     -0.456000
     30 C56         4.2460   -1.4460   -0.4310 ca        1 P90     -0.071000
     31 C57         5.2260   -2.0330    0.3440 ca        1 P90     -0.158000
     32 C58         5.0770   -2.1310    1.7440 ca        1 P90     -0.163000
     33 C59         3.9520   -1.6450    2.3750 ca        1 P90     -0.092000
     34 C12        -0.2650    1.6510    2.4150 c3        1 P90     -0.143000
     35 C13        -0.3270    1.0500    3.7670 c2        1 P90     -0.087000
     36 C14        -0.7340    1.7520    4.8370 c2        1 P90     -0.191000
     37 C15        -0.7850    1.2440    6.1960 ca        1 P90     -0.007000
     38 C1A        -0.1070    0.0780    6.5850 ca        1 P90     -0.129000
     39 C1B        -1.5280    1.9450    7.1610 ca        1 P90     -0.129000
     40 C2A        -0.1770   -0.3750    7.9010 ca        1 P90     -0.133500
     41 C2B        -1.5960    1.4880    8.4750 ca        1 P90     -0.133500
     42 C16        -0.9210    0.3270    8.8490 ca        1 P90     -0.150000
     43 H321       -0.1660    2.5390    0.1500 hc        1 P90      0.070500
     44 H322       -1.6990    1.6370   -0.1680 hc        1 P90      0.070500
     45 H4A        -1.3910   -0.6680   -1.4980 ha        1 P90      0.090500
     46 H4B         1.3200    2.7130   -1.5590 ha        1 P90      0.090500
     47 H5A        -1.0240   -1.0100   -3.9310 ha        1 P90      0.120000
     48 H5B         1.6960    2.3760   -3.9890 ha        1 P90      0.120000
     49 H8A        -5.1280   -2.5680    2.1030 ha        1 P90      0.137000
     50 H8B        -3.1410    2.0350    1.3480 ha        1 P90      0.143000
     51 H9A        -6.5690   -0.5200    2.0190 ha        1 P90      0.119000
     52 H9B        -5.5920    1.7150    1.6530 ha        1 P90      0.121000
     53 H56         4.3640   -1.3750   -1.5230 ha        1 P90      0.133000
     54 H57         6.1350   -2.4350   -0.1240 ha        1 P90      0.109000
     55 H58         5.8750   -2.6070    2.3320 ha        1 P90      0.103000
     56 H59         3.8330   -1.7240    3.4640 ha        1 P90      0.119000
     57 H121        0.7010    2.2230    2.3280 hc        1 P90      0.100000
     58 H122       -1.1070    2.3860    2.2890 hc        1 P90      0.100000
     59 H13        -0.0020   -0.0010    3.8560 ha        1 P90      0.162000
     60 H14        -1.0730    2.7960    4.7190 ha        1 P90      0.113000
     61 H1A         0.4880   -0.4810    5.8460 ha        1 P90      0.138000
     62 H1B        -2.0650    2.8610    6.8710 ha        1 P90      0.138000
     63 H2A         0.3570   -1.2920    8.1890 ha        1 P90      0.120000
     64 H2B        -2.1840    2.0450    9.2180 ha        1 P90      0.120000
     65 H16        -0.9760   -0.0340    9.8850 ha        1 P90      0.116000
@<TRIPOS>BOND
     1    1    2 1   
     2    1   16 1   
     3    1   25 1   
     4    1   34 1   
     5    2    3 1   
     6    2   43 1   
     7    2   44 1   
     8    3    4 1   
     9    3    5 1   
    10    4    6 1   
    11    4   45 1   
    12    5    7 1   
    13    5   46 1   
    14    6    8 1   
    15    6   47 1   
    16    7    8 1   
    17    7   48 1   
    18    8    9 1   
    19    9   10 1   
    20    9   11 1   
    21   12   13 1   
    22   12   14 1   
    23   12   15 1   
    24   16   17 1   
    25   16   20 1   
    26   17   18 1   
    27   18   19 1   
    28   19   20 1   
    29   19   21 1   
    30   20   22 1   
    31   21   23 1   
    32   21   49 1   
    33   22   24 1   
    34   22   50 1   
    35   23   24 1   
    36   23   51 1   
    37   24   52 1   
    38   25   26 1   
    39   25   27 1   
    40   26   29 1   
    41   27   28 1   
    42   28   29 1   
    43   28   33 1   
    44   29   30 1   
    45   30   31 1   
    46   30   53 1   
    47   31   32 1   
    48   31   54 1   
    49   32   33 1   
    50   32   55 1   
    51   33   56 1   
    52   34   35 1   
    53   34   57 1   
    54   34   58 1   
    55   35   36 1   
    56   35   59 1   
    57   36   37 1   
    58   36   60 1   
    59   37   38 1   
    60   37   39 1   
    61   38   40 1   
    62   38   61 1   
    63   39   41 1   
    64   39   62 1   
    65   40   42 1   
    66   40   63 1   
    67   41   42 1   
    68   41   64 1   
    69   42   65 1   
@<TRIPOS>SUBSTRUCTURE
     1 P90         1 TEMP              0 ****  ****    0 ROOT
