@<TRIPOS>MOLECULE
P90
   65    69     1     0     0
SMALL
bcc


@<TRIPOS>ATOM
      1 C1         -0.8720    0.6030    0.0330 c3        1 P90      0.183000
      2 C32         0.6470    0.3400    0.2510 c3        1 P90     -0.067000
      3 C33         1.4750    1.5380    0.5250 ca        1 P90     -0.425000
      4 C4A         1.5380    2.0640    1.8580 ca        1 P90     -0.040000
      5 C4B         2.6310    1.7600   -0.2970 ca        1 P90     -0.040000
      6 C5A         2.5870    2.8080    2.2980 ca        1 P90     -0.229500
      7 C5B         3.6910    2.5020    0.1190 ca        1 P90     -0.229500
      8 C36         3.7340    3.0590    1.4530 ca        1 P90     -0.006000
      9 C37         4.8110    3.7690    1.8920 c2        1 P90      0.044000
     10 F38         5.0280    4.3380    3.0990 f         1 P90     -0.120500
     11 F39         5.9540    4.0670    1.2300 f         1 P90     -0.120500
     12 P40         7.4850    5.3450    2.9540 p3        1 P90      2.386000
     13 O41         8.1090    5.6380    1.6480 o         1 P90     -1.132000
     14 O42         6.7310    6.4130    3.6390 o         1 P90     -1.132000
     15 O43         7.8590    4.1130    3.6780 o         1 P90     -1.132000
     16 N61        -1.6430    0.5750    1.3000 na        1 P90     -0.164000
     17 N62        -2.6130    1.4810    1.5970 n2        1 P90      0.083000
     18 N63        -3.1860    1.2420    2.6970 n2        1 P90     -0.112000
     19 C7A        -2.6180    0.0710    3.2680 ca        1 P90     -0.136000
     20 C7B        -1.5940   -0.3800    2.3380 ca        1 P90     -0.007000
     21 C8A        -2.8690   -0.6220    4.4550 ca        1 P90     -0.059000
     22 C8B        -0.8550   -1.5360    2.6280 ca        1 P90     -0.113000
     23 C9A        -2.1180   -1.7580    4.7130 ca        1 P90     -0.170000
     24 C9B        -1.1320   -2.2010    3.8120 ca        1 P90     -0.118000
     25 C51        -1.0170    1.9680   -0.6220 c2        1 P90     -0.320000
     26 S52         0.2350    3.1220   -0.5060 ss        1 P90      0.770000
     27 N53        -2.1110    2.3350   -1.3020 n2        1 P90     -0.131000
     28 C54        -1.9280    3.6340   -1.7720 ca        1 P90     -0.072000
     29 C55        -0.6660    4.2200   -1.4050 ca        1 P90     -0.455000
     30 C56        -0.3750    5.5260   -1.8260 ca        1 P90     -0.072000
     31 C57        -1.2920    6.2300   -2.5810 ca        1 P90     -0.158000
     32 C58        -2.5290    5.6530   -2.9380 ca        1 P90     -0.164000
     33 C59        -2.8560    4.3730   -2.5450 ca        1 P90     -0.091000
     34 C12        -1.4480   -0.4440   -0.9650 c3        1 P90     -0.155000
     35 C13        -1.1420   -1.8530   -0.6480 c2        1 P90     -0.117000
     36 C14        -1.8970   -2.9180   -0.9490 c2        1 P90     -0.169000
     37 C15        -3.1830   -2.9370   -1.6280 ca        1 P90     -0.021000
     38 C1A        -4.1540   -3.8650   -1.2150 ca        1 P90     -0.121500
     39 C1B        -3.4770   -2.0830   -2.7000 ca        1 P90     -0.121500
     40 C2A        -5.3900   -3.9260   -1.8510 ca        1 P90     -0.133000
     41 C2B        -4.7160   -2.1490   -3.3360 ca        1 P90     -0.133000
     42 C16        -5.6750   -3.0670   -2.9140 ca        1 P90     -0.143000
     43 H321        0.7810   -0.4010    1.0830 hc        1 P90      0.070500
     44 H322        1.0120   -0.1520   -0.6940 hc        1 P90      0.070500
     45 H4A         0.6910    1.8550    2.5300 ha        1 P90      0.090000
     46 H4B         2.6360    1.3160   -1.3060 ha        1 P90      0.090000
     47 H5A         2.6040    3.2360    3.3090 ha        1 P90      0.120000
     48 H5B         4.5510    2.6960   -0.5360 ha        1 P90      0.120000
     49 H8A        -3.6370   -0.2670    5.1570 ha        1 P90      0.136000
     50 H8B        -0.0760   -1.9130    1.9520 ha        1 P90      0.144000
     51 H9A        -2.2850   -2.3240    5.6400 ha        1 P90      0.119000
     52 H9B        -0.5560   -3.1050    4.0630 ha        1 P90      0.122000
     53 H56         0.5870    5.9820   -1.5460 ha        1 P90      0.133000
     54 H57        -1.0680    7.2550   -2.9090 ha        1 P90      0.108000
     55 H58        -3.2380    6.2420   -3.5370 ha        1 P90      0.102000
     56 H59        -3.8200    3.9230   -2.8170 ha        1 P90      0.120000
     57 H121       -0.9960   -0.2060   -1.9690 hc        1 P90      0.118000
     58 H122       -2.5590   -0.2960   -1.0560 hc        1 P90      0.118000
     59 H13        -0.1790   -2.0250   -0.1320 ha        1 P90      0.127000
     60 H14        -1.5430   -3.9210   -0.6450 ha        1 P90      0.115000
     61 H1A        -3.9350   -4.5390   -0.3740 ha        1 P90      0.137000
     62 H1B        -2.7250   -1.3550   -3.0420 ha        1 P90      0.137000
     63 H2A        -6.1460   -4.6480   -1.5120 ha        1 P90      0.123000
     64 H2B        -4.9360   -1.4660   -4.1690 ha        1 P90      0.123000
     65 H16        -6.6530   -3.1130   -3.4120 ha        1 P90      0.118000
@<TRIPOS>BOND
     1    1    2 1   
     2    1   16 1   
     3    1   25 1   
     4    1   34 1   
     5    2    3 1   
     6    2   43 1   
     7    2   44 1   
     8    3    4 1   
     9    3    5 1   
    10    4    6 1   
    11    4   45 1   
    12    5    7 1   
    13    5   46 1   
    14    6    8 1   
    15    6   47 1   
    16    7    8 1   
    17    7   48 1   
    18    8    9 1   
    19    9   10 1   
    20    9   11 1   
    21   12   13 1   
    22   12   14 1   
    23   12   15 1   
    24   16   17 1   
    25   16   20 1   
    26   17   18 1   
    27   18   19 1   
    28   19   20 1   
    29   19   21 1   
    30   20   22 1   
    31   21   23 1   
    32   21   49 1   
    33   22   24 1   
    34   22   50 1   
    35   23   24 1   
    36   23   51 1   
    37   24   52 1   
    38   25   26 1   
    39   25   27 1   
    40   26   29 1   
    41   27   28 1   
    42   28   29 1   
    43   28   33 1   
    44   29   30 1   
    45   30   31 1   
    46   30   53 1   
    47   31   32 1   
    48   31   54 1   
    49   32   33 1   
    50   32   55 1   
    51   33   56 1   
    52   34   35 1   
    53   34   57 1   
    54   34   58 1   
    55   35   36 1   
    56   35   59 1   
    57   36   37 1   
    58   36   60 1   
    59   37   38 1   
    60   37   39 1   
    61   38   40 1   
    62   38   61 1   
    63   39   41 1   
    64   39   62 1   
    65   40   42 1   
    66   40   63 1   
    67   41   42 1   
    68   41   64 1   
    69   42   65 1   
@<TRIPOS>SUBSTRUCTURE
     1 P90         1 TEMP              0 ****  ****    0 ROOT
