@<TRIPOS>MOLECULE
P91
   45    47     1     0     0
SMALL
bcc


@<TRIPOS>ATOM
      1 C1          0.2960   -0.0980   -0.3660 ca        1 P91     -0.116000
      2 C2          1.6700    0.0740   -0.2060 ca        1 P91      0.076000
      3 C3          2.1720    0.3160    1.0850 ca        1 P91     -0.104000
      4 C4          1.3500    0.4000    2.2260 ca        1 P91     -0.041000
      5 C5          2.2370    0.7170    3.4090 c2        1 P91      0.357000
      6 C6          3.5980    0.5500    1.5200 c2        1 P91      0.360000
      7 C7          2.5210    0.0220   -1.3970 c2        1 P91     -0.092000
      8 O1          1.9360    0.8990    4.5880 o         1 P91     -0.271000
      9 O2          4.6270    0.5350    0.8450 o         1 P91     -0.268000
     10 O3         -6.4390    1.5190    4.6970 oh        1 P91     -0.366000
     11 O4         -4.6180   -0.6610    1.8880 o         1 P91     -0.196000
     12 C8          3.4920   -1.1110   -1.5240 c3        1 P91     -0.036000
     13 N1          3.5560    0.7890    2.9120 n         1 P91     -0.388000
     14 C9          4.1560   -1.1950   -2.8580 c2        1 P91     -0.091000
     15 C10         4.0880   -0.1800   -3.7490 c2        1 P91     -0.195000
     16 C11         3.4700    1.0480   -3.3700 c1        1 P91      0.013000
     17 N3         -4.1050    0.3200    3.9100 n4        1 P91     -0.148000
     18 C17        -7.8080    2.8190    6.1860 c2        1 P91     -0.263000
     19 C18        -6.6430    2.2710    5.8430 c2        1 P91     -0.052000
     20 C16        -2.3070   -0.0480    2.1830 c2        1 P91     -0.131000
     21 C15        -1.1630    0.1940    2.9850 c2        1 P91     -0.158000
     22 BR         -1.1510    0.3790    4.8150 br        1 P91      0.173000
     23 N2         -1.9220   -0.1910    0.8360 na        1 P91     -0.097000
     24 C21        -2.8060   -0.5050   -0.2480 c3        1 P91     -0.095000
     25 C14        -0.5410   -0.0400    0.7650 ca        1 P91      0.054000
     26 C13        -0.0270    0.2130    2.1070 ca        1 P91     -0.030000
     27 C12         2.4660    0.9880   -2.3510 c2        1 P91     -0.141000
     28 CL          2.6820   -2.6500   -1.1940 cl        1 P91     -0.076000
     29 H1         -0.1180   -0.2840   -1.3700 ha        1 P91      0.172000
     30 HO3        -7.2720    1.4680    4.2050 ho        1 P91      0.240000
     31 HN1         4.3510    0.9840    3.4700 hn        1 P91      0.281000
     32 H9          4.2870   -1.0130   -0.7260 h1        1 P91      0.172000
     33 H10         4.7560   -2.1020   -3.0360 ha        1 P91      0.162000
     34 H11         4.5870   -0.2290   -4.7310 ha        1 P91      0.175000
     35 HN3        -3.3090    0.2520    4.5810 hn        1 P91      0.275667
     36 H17        -4.9200   -0.2030    4.2610 hn        1 P91      0.275667
     37 H17A       -7.9120    3.4060    7.1080 ha        1 P91      0.145500
     38 H18        -8.7200    2.7220    5.5820 ha        1 P91      0.145500
     39 H18A       -5.7010    2.3360    6.4090 h4        1 P91      0.157000
     40 H21        -3.6400    0.2470   -0.2880 h1        1 P91      0.121333
     41 H21A       -2.2370   -0.4810   -1.2160 h1        1 P91      0.121333
     42 H21B       -3.2480   -1.5280   -0.0970 h1        1 P91      0.121333
     43 H12         1.7300    1.8080   -2.3130 ha        1 P91      0.159000
     44 C22        -3.7050   -0.1860    2.5580 c2        1 P91      0.322000
     45 H32        -4.4020    1.3050    3.8370 hn        1 P91      0.275667
@<TRIPOS>BOND
     1    1    2 1   
     2    1   25 1   
     3    1   29 1   
     4    2    3 1   
     5    2    7 1   
     6    3    4 1   
     7    3    6 1   
     8    4    5 1   
     9    4   26 1   
    10    5    8 1   
    11    5   13 1   
    12    6    9 1   
    13    6   13 1   
    14    7   12 1   
    15    7   27 1   
    16   10   19 1   
    17   10   30 1   
    18   11   44 1   
    19   12   14 1   
    20   12   28 1   
    21   12   32 1   
    22   13   31 1   
    23   14   15 1   
    24   14   33 1   
    25   15   16 1   
    26   15   34 1   
    27   16   27 1   
    28   17   35 1   
    29   17   36 1   
    30   17   44 1   
    31   17   45 1   
    32   18   19 1   
    33   18   37 1   
    34   18   38 1   
    35   19   39 1   
    36   20   21 1   
    37   20   23 1   
    38   20   44 1   
    39   21   22 1   
    40   21   26 1   
    41   23   24 1   
    42   23   25 1   
    43   24   40 1   
    44   24   41 1   
    45   24   42 1   
    46   25   26 1   
    47   27   43 1   
@<TRIPOS>SUBSTRUCTURE
     1 P91         1 TEMP              0 ****  ****    0 ROOT
