@<TRIPOS>MOLECULE
P91
   45    47     1     0     0
SMALL
bcc


@<TRIPOS>ATOM
      1 C1          0.1710   -0.0180   -0.2260 ca        1 P91     -0.116000
      2 C2          1.5620    0.0130   -0.1660 ca        1 P91      0.075000
      3 C3          2.1780    0.2720    1.0730 ca        1 P91     -0.104000
      4 C4          1.4520    0.5080    2.2560 ca        1 P91     -0.041000
      5 C5          2.4490    0.7930    3.3570 c2        1 P91      0.357000
      6 C6          3.6470    0.3740    1.3990 c2        1 P91      0.360000
      7 C7          2.3170   -0.1970   -1.4040 c2        1 P91     -0.092000
      8 O1          2.2520    1.0720    4.5390 o         1 P91     -0.270000
      9 O2          4.6180    0.2100    0.6610 o         1 P91     -0.268000
     10 O3         -5.9010    2.7290    5.1920 oh        1 P91     -0.363000
     11 O4         -4.6020    0.0700    2.3810 o         1 P91     -0.199000
     12 C8          3.1540   -1.4340   -1.5210 c3        1 P91     -0.036000
     13 N1          3.7290    0.6940    2.7720 n         1 P91     -0.389000
     14 C9          3.7100   -1.6640   -2.8860 c2        1 P91     -0.091000
     15 C10         3.6840   -0.7000   -3.8340 c2        1 P91     -0.195000
     16 C11         3.2250    0.6070   -3.4950 c1        1 P91      0.012000
     17 N3         -3.8490    1.1300    4.2840 n4        1 P91     -0.149000
     18 C17        -7.2540    0.8970    4.6150 c2        1 P91     -0.276000
     19 C18        -7.0120    1.9300    5.4270 c2        1 P91     -0.042000
     20 C16        -2.2260    0.4580    2.4780 c2        1 P91     -0.131000
     21 C15        -1.0090    0.6190    3.1870 c2        1 P91     -0.158000
     22 BR         -0.8500    0.9050    4.9970 br        1 P91      0.173000
     23 N2         -1.9550    0.1980    1.1200 na        1 P91     -0.098000
     24 C21        -2.9410   -0.0790    0.1180 c3        1 P91     -0.094000
     25 C14        -0.5740    0.1950    0.9510 ca        1 P91      0.054000
     26 C13         0.0580    0.4650    2.2380 ca        1 P91     -0.030000
     27 C12         2.2950    0.7140   -2.4110 c2        1 P91     -0.141000
     28 CL          2.2140   -2.8560   -1.0420 cl        1 P91     -0.076000
     29 H1         -0.3310   -0.2150   -1.1870 ha        1 P91      0.172000
     30 HO3        -6.0940    3.6080    5.5460 ho        1 P91      0.253000
     31 HN1         4.5770    0.8330    3.2650 hn        1 P91      0.281000
     32 H9          4.0090   -1.3770   -0.7830 h1        1 P91      0.172000
     33 H10         4.1980   -2.6390   -3.0450 ha        1 P91      0.162000
     34 H11         4.1040   -0.8580   -4.8410 ha        1 P91      0.175000
     35 HN3        -3.0300    1.0000    4.9160 hn        1 P91      0.276333
     36 H17        -4.7050    0.7400    4.7100 hn        1 P91      0.276333
     37 H17A       -8.0930    0.2150    4.8090 ha        1 P91      0.140000
     38 H18        -6.6720    0.6830    3.7100 ha        1 P91      0.140000
     39 H18A       -7.6120    2.1950    6.3120 h4        1 P91      0.159000
     40 H21        -3.6980    0.7520    0.0900 h1        1 P91      0.121667
     41 H21A       -3.4700   -1.0430    0.3580 h1        1 P91      0.121667
     42 H21B       -2.4450   -0.1640   -0.8850 h1        1 P91      0.121667
     43 H12         1.6520    1.6090   -2.3780 ha        1 P91      0.159000
     44 C22        -3.6000    0.4920    2.9520 c2        1 P91      0.323000
     45 H32        -4.0190    2.1390    4.1570 hn        1 P91      0.276333
@<TRIPOS>BOND
     1    1    2 1   
     2    1   25 1   
     3    1   29 1   
     4    2    3 1   
     5    2    7 1   
     6    3    4 1   
     7    3    6 1   
     8    4    5 1   
     9    4   26 1   
    10    5    8 1   
    11    5   13 1   
    12    6    9 1   
    13    6   13 1   
    14    7   12 1   
    15    7   27 1   
    16   10   19 1   
    17   10   30 1   
    18   11   44 1   
    19   12   14 1   
    20   12   28 1   
    21   12   32 1   
    22   13   31 1   
    23   14   15 1   
    24   14   33 1   
    25   15   16 1   
    26   15   34 1   
    27   16   27 1   
    28   17   35 1   
    29   17   36 1   
    30   17   44 1   
    31   17   45 1   
    32   18   19 1   
    33   18   37 1   
    34   18   38 1   
    35   19   39 1   
    36   20   21 1   
    37   20   23 1   
    38   20   44 1   
    39   21   22 1   
    40   21   26 1   
    41   23   24 1   
    42   23   25 1   
    43   24   40 1   
    44   24   41 1   
    45   24   42 1   
    46   25   26 1   
    47   27   43 1   
@<TRIPOS>SUBSTRUCTURE
     1 P91         1 TEMP              0 ****  ****    0 ROOT
