@<TRIPOS>MOLECULE
P91
   45    47     1     0     0
SMALL
bcc


@<TRIPOS>ATOM
      1 C1          0.1610   -0.0340   -0.2250 ca        1 P91     -0.126000
      2 C2          1.5540   -0.0040   -0.1730 ca        1 P91      0.079000
      3 C3          2.1750    0.2790    1.0580 ca        1 P91     -0.106000
      4 C4          1.4520    0.5300    2.2400 ca        1 P91     -0.039000
      5 C5          2.4500    0.8430    3.3330 c2        1 P91      0.357000
      6 C6          3.6440    0.4080    1.3760 c2        1 P91      0.359000
      7 C7          2.2930   -0.2410   -1.4130 c2        1 P91     -0.099000
      8 O1          2.2560    1.1370    4.5110 o         1 P91     -0.270000
      9 O2          4.6170    0.2540    0.6370 o         1 P91     -0.270000
     10 O3         -5.9000    2.7420    5.2010 oh        1 P91     -0.363000
     11 O4         -4.6000    0.0750    2.3980 o         1 P91     -0.199000
     12 C8          3.1770   -1.4440   -1.4960 c3        1 P91     -0.030000
     13 N1          3.7280    0.7500    2.7440 ns        1 P91     -0.390000
     14 C9          3.9270   -1.5710   -2.7760 c2        1 P91     -0.090000
     15 C10         3.7060   -0.7400   -3.8250 c2        1 P91     -0.181000
     16 C11         2.5970    0.1430   -3.7660 c1        1 P91      0.005000
     17 N3         -3.8420    1.1520    4.2900 nz        1 P91     -0.149000
     18 C17        -7.2450    0.9000    4.6370 c2        1 P91     -0.275000
     19 C18        -7.0060    1.9370    5.4430 c2        1 P91     -0.043000
     20 C16        -2.2250    0.4720    2.4810 c2        1 P91     -0.132000
     21 C15        -1.0050    0.6440    3.1830 c2        1 P91     -0.157000
     22 Br         -0.8390    0.9470    4.9900 br        1 P91      0.172000
     23 N2         -1.9590    0.1990    1.1250 na        1 P91     -0.098000
     24 C21        -2.9490   -0.0930    0.1300 c3        1 P91     -0.095000
     25 C14        -0.5790    0.1960    0.9500 ca        1 P91      0.058000
     26 C13         0.0580    0.4820    2.2310 ca        1 P91     -0.033000
     27 C12         2.1500    0.5840   -2.4890 c2        1 P91     -0.131000
     28 Cl          2.2410   -2.9270   -1.2190 cl        1 P91     -0.095000
     29 H1         -0.3450   -0.2460   -1.1810 ha        1 P91      0.173000
     30 HO3        -6.0970    3.6220    5.5510 ho        1 P91      0.253000
     31 HN1         4.5770    0.9060    3.2300 hn        1 P91      0.281000
     32 H9          3.9270   -1.4010   -0.6510 h1        1 P91      0.178000
     33 H10         4.6420   -2.4090   -2.8300 ha        1 P91      0.163000
     34 H11         4.2840   -0.8100   -4.7610 ha        1 P91      0.178000
     35 HN3        -3.0190    1.0320    4.9180 hn        1 P91      0.275667
     36 H17        -4.6940    0.7600    4.7230 hn        1 P91      0.275667
     37 H17A       -8.0800    0.2150    4.8370 ha        1 P91      0.139500
     38 H18        -6.6650    0.6860    3.7300 ha        1 P91      0.139500
     39 H18A       -7.6040    2.2030    6.3300 h4        1 P91      0.159000
     40 H21        -3.7120    0.7320    0.1000 h1        1 P91      0.121667
     41 H21A       -2.4570   -0.1820   -0.8750 h1        1 P91      0.121667
     42 H21B       -3.4690   -1.0590    0.3810 h1        1 P91      0.121667
     43 H12         1.6070    1.5410   -2.4270 ha        1 P91      0.163000
     44 C22        -3.5960    0.5050    2.9610 c2        1 P91      0.322000
     45 H32        -4.0190    2.1590    4.1560 hn        1 P91      0.275667
@<TRIPOS>BOND
     1    1    2 1   
     2    1   25 1   
     3    1   29 1   
     4    2    3 1   
     5    2    7 1   
     6    3    4 1   
     7    3    6 1   
     8    4    5 1   
     9    4   26 1   
    10    5    8 1   
    11    5   13 1   
    12    6    9 1   
    13    6   13 1   
    14    7   12 1   
    15    7   27 1   
    16   10   19 1   
    17   10   30 1   
    18   11   44 1   
    19   12   14 1   
    20   12   28 1   
    21   12   32 1   
    22   13   31 1   
    23   14   15 1   
    24   14   33 1   
    25   15   16 1   
    26   15   34 1   
    27   16   27 1   
    28   17   35 1   
    29   17   36 1   
    30   17   44 1   
    31   17   45 1   
    32   18   19 1   
    33   18   37 1   
    34   18   38 1   
    35   19   39 1   
    36   20   21 1   
    37   20   23 1   
    38   20   44 1   
    39   21   22 1   
    40   21   26 1   
    41   23   24 1   
    42   23   25 1   
    43   24   40 1   
    44   24   41 1   
    45   24   42 1   
    46   25   26 1   
    47   27   43 1   
@<TRIPOS>SUBSTRUCTURE
     1 P91         1 TEMP              0 ****  ****    0 ROOT
