@<TRIPOS>MOLECULE
P91
   44    37     1     0     0
SMALL
bcc


@<TRIPOS>ATOM
      1 C1          0.3950   -0.3830   -1.7810 c1        1 P91     -0.115000
      2 C2          1.7940   -0.3780   -1.7650 c1        1 P91      0.042000
      3 C3          2.4880   -0.3450   -0.5350 c1        1 P91     -0.117000
      4 C4          1.7850   -0.3190    0.6520 c1        1 P91     -0.058000
      5 C5          2.7960   -0.3610    1.8010 c2        1 P91      0.359000
      6 C6          3.9810   -0.3430   -0.1990 c2        1 P91      0.360000
      7 C7          2.4990   -0.2840   -2.9960 c1        1 P91     -0.048000
      8 O1          2.5290   -0.3660    2.9910 o         1 P91     -0.283000
      9 O2          4.8960   -0.3460   -1.0060 o         1 P91     -0.289000
     10 O3         -5.0780    1.7780    5.8670 oh        1 P91     -0.326000
     11 O4         -3.2780   -1.5050    2.6320 o         1 P91     -0.349000
     12 C8          2.9150   -1.5130   -3.4960 c1        1 P91     -0.038000
     13 N1          4.1140   -0.4130    1.2300 n         1 P91     -0.407000
     14 C9          3.5310   -1.5850   -4.7430 c1        1 P91     -0.114000
     15 C10         3.7300   -0.4240   -5.4920 c1        1 P91     -0.114000
     16 C11         3.3140    0.8050   -4.9920 c1        1 P91     -0.114000
     17 C22        -2.9090   -0.4260    2.1770 c1        1 P91      0.355000
     18 N3         -3.4210    0.8100    2.7360 n2        1 P91     -0.350000
     19 C17        -4.4280    0.7720    3.7640 c3        1 P91     -0.037000
     20 C18        -4.1390    1.8720    4.8090 c3        1 P91     -0.047000
     21 C16        -1.8530   -0.3850    1.0740 c2        1 P91     -0.015000
     22 C15        -0.5920   -0.3420    1.6550 c1        1 P91     -0.236000
     23 BR          0.0550   -0.0880    3.4350 br        1 P91      0.128000
     24 N2         -1.6930   -0.3930   -0.2880 n2        1 P91     -0.130000
     25 C21        -2.8460   -0.4590   -1.1750 c2        1 P91     -0.089000
     26 C14        -0.3260   -0.3560   -0.5630 c1        1 P91      0.019000
     27 C13         0.3490   -0.3250    0.6360 c1        1 P91     -0.001000
     28 C12         2.6990    0.8780   -3.7460 c1        1 P91     -0.114000
     29 CL          2.6730   -3.2070   -3.1470 cl        1 P91     -0.008000
     30 H1         -0.0860   -0.3320   -2.6360 ha        1 P91      0.155000
     31 HO3        -5.0160    2.4990    6.3830 ho        1 P91      0.207000
     32 HN1         4.9070   -0.5150    1.6990 hn        1 P91      0.262000
     33 H9          3.8240   -2.4520   -5.0950 ha        1 P91      0.142500
     34 H10         4.1630   -0.4740   -6.3690 ha        1 P91      0.142500
     35 H11         3.4540    1.6220   -5.5190 ha        1 P91      0.142500
     36 HN3        -3.1280    1.6070    2.4180 hn        1 P91      0.236000
     37 H17        -5.3180    0.9270    3.3590 h1        1 P91      0.119500
     38 H17A       -4.4160   -0.1020    4.1980 h1        1 P91      0.119500
     39 H18        -4.2130    2.7600    4.3820 h1        1 P91      0.071000
     40 H18A       -3.2380    1.7560    5.1640 h1        1 P91      0.071000
     41 H21        -3.2920    0.4160   -1.1970 ha        1 P91      0.109000
     42 H21A       -3.4720   -1.1350   -0.8460 ha        1 P91      0.109000
     43 H21B       -2.5480   -0.7000   -2.0850 ha        1 P91      0.109000
     44 H12         2.4020    1.7550   -3.3890 ha        1 P91      0.142500
@<TRIPOS>BOND
     1    1   26 1   
     2    1   30 1   
     3    2    3 1   
     4    3    6 1   
     5    4    5 1   
     6    4   27 1   
     7    5    8 1   
     8    5   13 1   
     9    6    9 1   
    10    6   13 1   
    11    7   12 1   
    12   10   20 1   
    13   10   31 1   
    14   11   17 1   
    15   12   29 1   
    16   13   32 1   
    17   14   15 1   
    18   14   33 1   
    19   15   34 1   
    20   16   28 1   
    21   16   35 1   
    22   17   21 1   
    23   18   19 1   
    24   18   36 1   
    25   19   20 1   
    26   19   37 1   
    27   19   38 1   
    28   20   39 1   
    29   20   40 1   
    30   21   22 1   
    31   21   24 1   
    32   22   27 1   
    33   24   26 1   
    34   25   41 1   
    35   25   42 1   
    36   25   43 1   
    37   28   44 1   
@<TRIPOS>SUBSTRUCTURE
     1 P91         1 TEMP              0 ****  ****    0 ROOT
