@<TRIPOS>MOLECULE
P91
   44    47     1     0     0
SMALL
bcc


@<TRIPOS>ATOM
      1 C1         -1.3580   -1.6510   -0.3260 ca        1 P91     -0.116000
      2 C2         -2.3380   -0.8000    0.2010 cp        1 P91      0.041000
      3 C3         -1.9330    0.3750    0.8360 ca        1 P91     -0.138600
      4 C4         -0.5690    0.7500    0.9660 ca        1 P91     -0.078600
      5 C5         -0.5280    2.0670    1.6950 c         1 P91      0.722100
      6 C6         -2.7730    1.4440    1.4740 c         1 P91      0.723100
      7 C7         -3.7480   -1.1840    0.0760 cp        1 P91     -0.047000
      8 O1          0.4260    2.7670    2.0340 o         1 P91     -0.558500
      9 O2         -3.9970    1.5240    1.5920 o         1 P91     -0.565500
     10 O3          6.8080   -0.5120    1.7200 oh        1 P91     -0.607800
     11 O4          3.9090   -2.0180   -1.8250 o         1 P91     -0.599100
     12 C8         -4.4820   -0.9200   -1.0910 ca        1 P91      0.040400
     13 N1         -1.8730    2.4180    1.9650 n         1 P91     -0.627500
     14 C9         -5.8230   -1.3090   -1.1900 ca        1 P91     -0.125000
     15 C10        -6.4340   -1.9650   -0.1240 ca        1 P91     -0.110000
     16 C11        -5.7130   -2.2340    1.0390 ca        1 P91     -0.128000
     17 N3          4.5380   -1.7720    0.3760 n         1 P91     -0.532900
     18 C17         5.9290   -2.0510    0.1360 c3        1 P91      0.081000
     19 C18         6.8640   -0.8520    0.3440 c3        1 P91      0.100400
     20 C16         2.2500   -1.2380   -0.2950 cc        1 P91     -0.059300
     21 C15         1.8720   -0.0650    0.3760 cd        1 P91     -0.096500
     22 BR          3.0270    1.2210    0.9850 br        1 P91      0.006300
     23 N2          1.1220   -1.9840   -0.6510 na        1 P91     -0.039400
     24 C21         1.1000   -3.2120   -1.3820 c3        1 P91      0.010600
     25 C14        -0.0110   -1.2940   -0.2050 ca        1 P91     -0.025200
     26 C13         0.4250   -0.0660    0.4550 ca        1 P91     -0.012800
     27 C12        -4.3790   -1.8450    1.1390 ca        1 P91     -0.093000
     28 CL         -3.7640   -0.1210   -2.4100 cl        1 P91     -0.086400
     29 H1         -1.6510   -2.5830   -0.8330 ha        1 P91      0.154000
     30 HO3         7.3590    0.2700    1.8380 ho        1 P91      0.407000
     31 HN1        -2.1460    3.2490    2.4260 hn        1 P91      0.348500
     32 H9         -6.3930   -1.0910   -2.1060 ha        1 P91      0.149000
     33 H10        -7.4890   -2.2670   -0.2020 ha        1 P91      0.139000
     34 H11        -6.1980   -2.7470    1.8820 ha        1 P91      0.139000
     35 HN3         4.3220   -1.3510    1.2530 hn        1 P91      0.333500
     36 H17         6.2360   -2.8650    0.8550 h1        1 P91      0.076200
     37 H17A        6.0630   -2.4220   -0.9190 h1        1 P91      0.076200
     38 H18         6.5550    0.0230   -0.2870 h1        1 P91      0.037200
     39 H18A        7.9090   -1.1570    0.0670 h1        1 P91      0.037200
     40 H21         0.9560   -4.0740   -0.6760 h1        1 P91      0.069033
     41 H21A        0.2490   -3.1950   -2.1150 h1        1 P91      0.069033
     42 H21B        2.0660   -3.3420   -1.9420 h1        1 P91      0.069033
     43 H12        -3.8140   -2.0490    2.0610 ha        1 P91      0.142000
     44 C22         3.6320   -1.6820   -0.6560 c         1 P91      0.678300
@<TRIPOS>BOND
     1    1    2 ar  
     2    1   25 ar  
     3    1   29 1   
     4    2    3 ar  
     5    2    7 1   
     6    3    4 ar  
     7    3    6 1   
     8    4    5 1   
     9    4   26 ar  
    10    5    8 2   
    11    5   13 1   
    12    6    9 2   
    13    6   13 1   
    14    7   12 ar  
    15    7   27 ar  
    16   10   19 1   
    17   10   30 1   
    18   11   44 2   
    19   12   14 ar  
    20   12   28 1   
    21   13   31 1   
    22   14   15 ar  
    23   14   32 1   
    24   15   16 ar  
    25   15   33 1   
    26   16   27 ar  
    27   16   34 1   
    28   17   18 1   
    29   17   35 1   
    30   17   44 1   
    31   18   19 1   
    32   18   36 1   
    33   18   37 1   
    34   19   38 1   
    35   19   39 1   
    36   20   21 2   
    37   20   23 1   
    38   20   44 1   
    39   21   22 1   
    40   21   26 1   
    41   23   24 1   
    42   23   25 1   
    43   24   40 1   
    44   24   41 1   
    45   24   42 1   
    46   25   26 ar  
    47   27   43 1   
@<TRIPOS>SUBSTRUCTURE
     1 P91         1 TEMP              0 ****  ****    0 ROOT
