@<TRIPOS>MOLECULE
P96
   62    64     1     0     0
SMALL
bcc


@<TRIPOS>ATOM
      1 C           6.4670    1.8450   -1.0900 ca        1 P96     -0.173500
      2 N           6.2690   -0.2030    0.2300 nh        1 P96     -0.706600
      3 C01         1.6420   -1.5230   -0.6390 ca        1 P96     -0.020000
      4 C1         -0.3500   -0.6010   -1.6840 ca        1 P96     -0.110300
      5 N1         -1.9990    1.1770   -1.2240 n3        1 P96     -0.725600
      6 C02         1.0840   -2.8050   -0.7080 ca        1 P96     -0.038000
      7 C2         -1.1200    0.5740   -2.2190 c3        1 P96      0.226100
      8 N2         -4.0490    4.1680    1.1600 n3        1 P96     -0.737600
      9 C03        -3.0720    1.9440   -1.8380 c3        1 P96      0.168800
     10 C3          0.9120   -0.4250   -1.1290 ca        1 P96     -0.054000
     11 C04         2.9200   -1.3300   -0.0830 cg        1 P96     -0.095000
     12 C4         -0.1800   -3.0050   -1.2630 ca        1 P96     -0.072100
     13 C05         4.0070   -1.1640    0.3920 c1        1 P96     -0.167100
     14 C06         5.3110   -0.9770    0.9870 c3        1 P96      0.260900
     15 C07         6.0840    1.1920    0.1060 ca        1 P96      0.127600
     16 C7         -0.8990   -1.9030   -1.7540 ca        1 P96      0.193100
     17 C08         5.6220    1.9840    1.1800 ca        1 P96     -0.173500
     18 C8         -4.0160    2.5870   -0.8230 c3        1 P96     -0.078400
     19 C09         5.5580    3.3690    1.0570 ca        1 P96     -0.102000
     20 C10        -3.2320    3.4750    0.1540 c3        1 P96      0.190500
     21 C12        -5.6660    5.5270   -0.2620 c3        1 P96     -0.112600
     22 C13        -3.3460    5.3230    1.7060 c3        1 P96      0.171300
     23 C14        -4.0180    5.9620    2.9100 c3        1 P96     -0.112600
     24 C15        -2.1800    2.5740    0.8310 c3        1 P96     -0.078400
     25 C16        -1.2740    1.9360   -0.2170 c3        1 P96      0.168800
     26 C17         5.9460    4.0000   -0.1230 ca        1 P96     -0.162000
     27 C18         6.4020    3.2300   -1.1920 ca        1 P96     -0.102000
     28 I2         -0.8960   -4.8970   -1.3150 i         1 P96     -0.137900
     29 C11        -5.4200    4.4520    0.7870 c3        1 P96      0.171300
     30 H           6.8290    1.2600   -1.9490 ha        1 P96      0.131500
     31 H18         6.7100    3.7190   -2.1290 ha        1 P96      0.130000
     32 HA          6.4670   -0.6280   -0.6560 hn        1 P96      0.388800
     33 H061        5.7790   -1.9980    1.1430 h1        1 P96      0.075700
     34 H062        5.1790   -0.5060    2.0060 h1        1 P96      0.075700
     35 H02         1.6590   -3.6610   -0.3170 ha        1 P96      0.152000
     36 H3          1.3460    0.5870   -1.0710 ha        1 P96      0.149000
     37 H21C       -0.3800    1.3250   -2.6310 h1        1 P96      0.046200
     38 H22C       -1.7560    0.2140   -3.0790 h1        1 P96      0.046200
     39 H031       -2.6660    2.7550   -2.5140 h1        1 P96      0.030200
     40 H032       -3.6720    1.2360   -2.4780 h1        1 P96      0.030200
     41 H161       -0.5730    1.2200    0.3010 h1        1 P96      0.030200
     42 H162       -0.6420    2.7480   -0.6880 h1        1 P96      0.030200
     43 H1         -2.4340   -2.9180   -2.2870 ho        1 P96      0.431000
     44 H10        -2.6730    4.2390   -0.4750 h1        1 P96      0.018700
     45 H131       -2.3220    4.9740    2.0240 h1        1 P96      0.038700
     46 H132       -3.1950    6.1220    0.9190 h1        1 P96      0.038700
     47 H111       -5.9010    3.4910    0.4500 h1        1 P96      0.038700
     48 H112       -5.9510    4.7600    1.7360 h1        1 P96      0.038700
     49 H81C       -4.7630    3.1930   -1.3990 hc        1 P96      0.055450
     50 H82C       -4.5660    1.7920   -0.2580 hc        1 P96      0.055450
     51 H08         5.3160    1.5210    2.1290 ha        1 P96      0.131500
     52 H09         5.1980    3.9690    1.9060 ha        1 P96      0.130000
     53 H17         5.8940    5.0940   -0.2110 ha        1 P96      0.131000
     54 H151       -1.5330    3.1650    1.5280 hc        1 P96      0.055450
     55 H152       -2.6970    1.7810    1.4310 hc        1 P96      0.055450
     56 H121       -5.3630    6.5310    0.1210 hc        1 P96      0.037533
     57 H122       -5.0940    5.3220   -1.1980 hc        1 P96      0.037533
     58 H123       -6.7540    5.5580   -0.5100 hc        1 P96      0.037533
     59 H141       -4.9410    6.5140    2.6100 hc        1 P96      0.037533
     60 H142       -4.2930    5.1970    3.6760 hc        1 P96      0.037533
     61 H143       -3.3070    6.6890    3.3720 hc        1 P96      0.037533
     62 O1         -2.1320   -1.9970   -2.3440 oh        1 P96     -0.480100
@<TRIPOS>BOND
     1    1   15 ar  
     2    1   27 ar  
     3    1   30 1   
     4    2   14 1   
     5    2   15 1   
     6    2   32 1   
     7    3    6 ar  
     8    3   10 ar  
     9    3   11 1   
    10    4    7 1   
    11    4   10 ar  
    12    4   16 ar  
    13    5    7 1   
    14    5    9 1   
    15    5   25 1   
    16    6   12 ar  
    17    6   35 1   
    18    7   37 1   
    19    7   38 1   
    20    8   20 1   
    21    8   22 1   
    22    8   29 1   
    23    9   18 1   
    24    9   39 1   
    25    9   40 1   
    26   10   36 1   
    27   11   13 3   
    28   12   16 ar  
    29   12   28 1   
    30   13   14 1   
    31   14   33 1   
    32   14   34 1   
    33   15   17 ar  
    34   16   62 1   
    35   17   19 ar  
    36   17   51 1   
    37   18   20 1   
    38   18   49 1   
    39   18   50 1   
    40   19   26 ar  
    41   19   52 1   
    42   20   24 1   
    43   20   44 1   
    44   21   29 1   
    45   21   56 1   
    46   21   57 1   
    47   21   58 1   
    48   22   23 1   
    49   22   45 1   
    50   22   46 1   
    51   23   59 1   
    52   23   60 1   
    53   23   61 1   
    54   24   25 1   
    55   24   54 1   
    56   24   55 1   
    57   25   41 1   
    58   25   42 1   
    59   26   27 ar  
    60   26   53 1   
    61   27   31 1   
    62   29   47 1   
    63   29   48 1   
    64   43   62 1   
@<TRIPOS>SUBSTRUCTURE
     1 P96         1 TEMP              0 ****  ****    0 ROOT
