@<TRIPOS>MOLECULE
P96
   62    57     1     0     0
SMALL
bcc


@<TRIPOS>ATOM
      1 C           8.7440    2.1800   -0.0040 c1        1 P96     -0.136000
      2 N           6.7550    1.4630   -0.7040 n3        1 P96     -0.261000
      3 C01         1.8640    1.9120   -0.4850 c1        1 P96     -0.016000
      4 C1         -0.5100    1.8250   -0.8920 c1        1 P96     -0.103000
      5 N1         -2.4630    0.4230   -0.5950 n3        1 P96     -0.253000
      6 O1         -1.4320    3.3610    1.1670 oh        1 P96     -0.234000
      7 C02         1.6320    2.5330    0.7390 c1        1 P96     -0.036000
      8 C2         -1.8530    1.3810   -1.4750 c2        1 P96     -0.018000
      9 N2         -5.1560   -2.5070    0.8560 n3        1 P96     -0.261000
     10 C03        -2.4180   -0.9150   -1.2160 c3        1 P96     -0.065500
     11 C3          0.7920    1.5580   -1.3010 c1        1 P96     -0.056000
     12 C04         3.2830    1.5210   -0.8820 c1        1 P96     -0.100000
     13 C4          0.3290    2.8000    1.1470 c1        1 P96     -0.358000
     14 C05         4.3980    1.2140   -1.1930 c1        1 P96     -0.193000
     15 C06         5.8180    0.8240   -1.5890 c2        1 P96      0.050000
     16 C07         8.1630    1.2950   -0.9080 c1        1 P96      0.043000
     17 C7         -0.7420    2.4460    0.3330 c2        1 P96      0.147000
     18 C08         8.9660    0.5420   -1.7580 c1        1 P96     -0.163000
     19 C8         -3.1730   -1.9580   -0.4060 c3        1 P96     -0.168000
     20 C09        10.3500    0.6730   -1.7040 c1        1 P96     -0.136000
     21 C10        -4.5580   -1.5270   -0.0800 c3        1 P96     -0.010000
     22 C12        -5.4540   -2.3950    3.2710 c3        1 P96     -0.214000
     23 C13        -6.0800   -3.3530    0.1400 c3        1 P96     -0.063000
     24 C14        -6.3270   -4.6310    0.9420 c3        1 P96     -0.214000
     25 C15        -4.5960   -0.1770    0.5460 c3        1 P96     -0.168000
     26 C16        -3.8350    0.8590   -0.2680 c3        1 P96     -0.065500
     27 C17        10.9310    1.5570   -0.8000 c1        1 P96     -0.136000
     28 C18        10.1270    2.3110    0.0500 c1        1 P96     -0.136000
     29 I2         -0.0220    3.7620    2.9920 i         1 P96      0.149000
     30 C11        -5.8570   -1.8080    1.9030 c3        1 P96     -0.063000
     31 H           8.1770    2.7130    0.5970 ha        1 P96      0.130500
     32 H18        10.5370    2.9350    0.6890 ha        1 P96      0.130500
     33 HA          6.4520    1.9610    0.0030 hn        1 P96      0.183000
     34 H061        5.9920    1.1110   -2.5130 h4        1 P96      0.114500
     35 H062        5.9200   -0.1530   -1.5240 h4        1 P96      0.114500
     36 H02         2.3850    2.7820    1.3120 ha        1 P96      0.155000
     37 H3          0.9550    1.1200   -2.1630 ha        1 P96      0.146000
     38 H21C       -1.7080    0.9710   -2.3550 h4        1 P96      0.085000
     39 H22C       -2.4430    2.1610   -1.5700 h4        1 P96      0.085000
     40 H031       -1.4800   -1.1950   -1.2990 h1        1 P96      0.069000
     41 H032       -2.8160   -0.8610   -2.1150 h1        1 P96      0.069000
     42 H161       -4.3240    1.0270   -1.1050 h1        1 P96      0.069000
     43 H162       -3.7890    1.6970    0.2480 h1        1 P96      0.069000
     44 H1         -1.8660    2.9120    1.8050 ho        1 P96      0.230000
     45 H10        -5.0910   -1.5100   -0.9070 h1        1 P96      0.083000
     46 H131       -6.9300   -2.8760    0.0120 h1        1 P96      0.066500
     47 H132       -5.6990   -3.5850   -0.7380 h1        1 P96      0.066500
     48 H111       -5.6240   -0.8590    1.8740 h1        1 P96      0.066500
     49 H112       -6.8280   -1.9120    1.7740 h1        1 P96      0.066500
     50 H81C       -2.6850   -2.1240    0.4330 hc        1 P96      0.093750
     51 H82C       -3.2140   -2.7930   -0.9230 hc        1 P96      0.093750
     52 H08         8.5560   -0.0810   -2.3950 ha        1 P96      0.133000
     53 H09        10.9170    0.1420   -2.3030 ha        1 P96      0.130500
     54 H17        11.9070    1.6490   -0.7620 ha        1 P96      0.130500
     55 H151       -4.1980   -0.2310    1.4440 hc        1 P96      0.093750
     56 H152       -5.5340    0.1090    0.6290 hc        1 P96      0.093750
     57 H121       -6.2640   -2.6140    3.7850 hc        1 P96      0.078667
     58 H122       -4.9210   -1.7340    3.7660 hc        1 P96      0.078667
     59 H123       -4.9200   -3.2110    3.1340 hc        1 P96      0.078667
     60 H141       -7.2940   -4.7540    1.0720 hc        1 P96      0.078667
     61 H142       -5.9620   -5.4010    0.4520 hc        1 P96      0.078667
     62 H143       -5.8860   -4.5600    1.8150 hc        1 P96      0.078667
@<TRIPOS>BOND
     1    1   28 1   
     2    1   31 1   
     3    2   15 1   
     4    2   16 1   
     5    2   33 1   
     6    3    7 1   
     7    3   12 1   
     8    4   11 1   
     9    4   17 1   
    10    5    8 1   
    11    5   10 1   
    12    5   26 1   
    13    6   17 1   
    14    6   44 1   
    15    7   36 1   
    16    8   38 1   
    17    8   39 1   
    18    9   21 1   
    19    9   23 1   
    20    9   30 1   
    21   10   19 1   
    22   10   40 1   
    23   10   41 1   
    24   11   37 1   
    25   12   14 1   
    26   13   17 1   
    27   13   29 1   
    28   15   34 1   
    29   15   35 1   
    30   16   18 1   
    31   18   52 1   
    32   19   21 1   
    33   19   50 1   
    34   19   51 1   
    35   20   27 1   
    36   20   53 1   
    37   21   25 1   
    38   21   45 1   
    39   22   30 1   
    40   22   57 1   
    41   22   58 1   
    42   22   59 1   
    43   23   24 1   
    44   23   46 1   
    45   23   47 1   
    46   24   60 1   
    47   24   61 1   
    48   24   62 1   
    49   25   26 1   
    50   25   55 1   
    51   25   56 1   
    52   26   42 1   
    53   26   43 1   
    54   27   54 1   
    55   28   32 1   
    56   30   48 1   
    57   30   49 1   
@<TRIPOS>SUBSTRUCTURE
     1 P96         1 TEMP              0 ****  ****    0 ROOT
