@<TRIPOS>MOLECULE
P96
   64    66     1     0     0
SMALL
bcc


@<TRIPOS>ATOM
      1 C           0.8970    0.5970    1.2570 ca        1 P96     -0.103000
      2 N           2.4270    1.1750   -0.6110 n4        1 P96     -0.634400
      3 C01         4.2570    0.0060   -4.9410 ca        1 P96     -0.083000
      4 C1          4.0250   -0.8630   -7.1970 ca        1 P96     -0.126300
      5 N1          3.9760   -3.0420   -8.4010 n3        1 P96     -0.725600
      6 C02         5.2230    0.9210   -5.3900 ca        1 P96     -0.006000
      7 C2          3.3260   -1.7490   -8.1860 c3        1 P96      0.221100
      8 N2          5.7030   -6.5160  -10.4040 n4        1 P96     -0.688400
      9 C03         5.2900   -2.9190   -9.0150 c3        1 P96      0.163800
     10 C3          3.6700   -0.8900   -5.8530 ca        1 P96     -0.017000
     11 C04         3.8800    0.0000   -3.5870 cg        1 P96      0.065000
     12 C4          5.6000    0.9610   -6.7300 ca        1 P96     -0.079100
     13 C05         3.5590    0.0240   -2.4300 c1        1 P96     -0.284100
     14 C06         3.2360   -0.0270   -1.0390 c3        1 P96      0.235900
     15 C07         2.1200    1.1380    0.8220 ca        1 P96     -0.068400
     16 C7          5.0000    0.0660   -7.6350 ca        1 P96      0.205100
     17 C08         3.0480    1.6550    1.7430 ca        1 P96     -0.103000
     18 C8          5.9780   -4.2640   -9.2530 c3        1 P96     -0.100900
     19 C09         2.7380    1.6310    3.1010 ca        1 P96     -0.099500
     20 C10         5.0800   -5.1650  -10.1090 c3        1 P96      0.126500
     21 C12         7.5430   -5.6230  -11.9300 c3        1 P96     -0.130600
     22 C13         4.9540   -7.2260  -11.4970 c3        1 P96      0.108800
     23 C14         5.2150   -8.7170  -11.5400 c3        1 P96     -0.130600
     24 C15         3.7370   -5.3190   -9.3810 c3        1 P96     -0.100900
     25 C16         3.1100   -3.9430   -9.1530 c3        1 P96      0.163800
     26 C17         1.5250    1.0970    3.5420 ca        1 P96     -0.066000
     27 C18         0.6100    0.5840    2.6200 ca        1 P96     -0.099500
     28 I2          6.9900    2.3190   -7.2830 i         1 P96     -0.079900
     29 C11         7.1680   -6.4470  -10.7170 c3        1 P96      0.108800
     30 H           0.1610    0.1910    0.5440 ha        1 P96      0.154500
     31 H18        -0.3500    0.1650    2.9680 ha        1 P96      0.175500
     32 HA          2.9570    2.0300   -0.8190 hn        1 P96      0.456300
     33 H061        4.1750   -0.0410   -0.4060 hx        1 P96      0.121200
     34 H062        2.6250   -0.9490   -0.7990 hx        1 P96      0.121200
     35 H02         5.6840    1.6170   -4.6680 ha        1 P96      0.161000
     36 H3          2.9180   -1.6150   -5.5030 ha        1 P96      0.155000
     37 H21C        2.2860   -1.9590   -7.7980 h1        1 P96      0.061700
     38 H22C        3.2240   -1.1760   -9.1570 h1        1 P96      0.061700
     39 H031        5.2430   -2.3560   -9.9950 h1        1 P96      0.059450
     40 H032        5.9350   -2.3150   -8.3150 h1        1 P96      0.059450
     41 H161        2.1640   -4.0910   -8.5570 h1        1 P96      0.059450
     42 H162        2.8210   -3.5100  -10.1570 h1        1 P96      0.059450
     43 H1          5.8830    0.7640   -9.1940 ho        1 P96      0.451000
     44 H10         4.9130   -4.6710  -11.1130 hx        1 P96      0.104700
     45 H131        3.8510   -7.0530  -11.3350 hx        1 P96      0.101450
     46 H132        5.2420   -6.7490  -12.4770 hx        1 P96      0.101450
     47 H111        7.6890   -6.0420   -9.8010 hx        1 P96      0.101450
     48 H112        7.5170   -7.5110  -10.8710 hx        1 P96      0.101450
     49 H81C        6.9490   -4.0490   -9.7730 hc        1 P96      0.070950
     50 H82C        6.2000   -4.7580   -8.2720 hc        1 P96      0.070950
     51 H08         4.0080    2.0830    1.4130 ha        1 P96      0.154500
     52 H09         3.4590    2.0390    3.8300 ha        1 P96      0.175500
     53 H17         1.2880    1.0840    4.6200 ha        1 P96      0.176000
     54 H151        3.0060   -5.9230   -9.9790 hc        1 P96      0.070950
     55 H152        3.8910   -5.8320   -8.3950 hc        1 P96      0.070950
     56 H121        7.2140   -6.1100  -12.8810 hc        1 P96      0.077533
     57 H122        7.1190   -4.5900  -11.8890 hc        1 P96      0.077533
     58 H123        8.6610   -5.5420  -11.9560 hc        1 P96      0.077533
     59 H141        6.2680   -8.9510  -11.8340 hc        1 P96      0.077533
     60 H142        4.9930   -9.2090  -10.5620 hc        1 P96      0.077533
     61 H143        4.5370   -9.1620  -12.3140 hc        1 P96      0.077533
     62 O1          5.3070    0.0120   -8.9670 oh        1 P96     -0.492100
     63 HN3         1.5510    1.2020   -1.1460 hn        1 P96      0.456300
     64 H21         5.6120   -7.0820   -9.5480 hn        1 P96      0.440800
@<TRIPOS>BOND
     1    1   15 ar  
     2    1   27 ar  
     3    1   30 1   
     4    2   14 1   
     5    2   15 1   
     6    2   32 1   
     7    2   63 1   
     8    3    6 ar  
     9    3   10 ar  
    10    3   11 1   
    11    4    7 1   
    12    4   10 ar  
    13    4   16 ar  
    14    5    7 1   
    15    5    9 1   
    16    5   25 1   
    17    6   12 ar  
    18    6   35 1   
    19    7   37 1   
    20    7   38 1   
    21    8   20 1   
    22    8   22 1   
    23    8   29 1   
    24    8   64 1   
    25    9   18 1   
    26    9   39 1   
    27    9   40 1   
    28   10   36 1   
    29   11   13 3   
    30   12   16 ar  
    31   12   28 1   
    32   13   14 1   
    33   14   33 1   
    34   14   34 1   
    35   15   17 ar  
    36   16   62 1   
    37   17   19 ar  
    38   17   51 1   
    39   18   20 1   
    40   18   49 1   
    41   18   50 1   
    42   19   26 ar  
    43   19   52 1   
    44   20   24 1   
    45   20   44 1   
    46   21   29 1   
    47   21   56 1   
    48   21   57 1   
    49   21   58 1   
    50   22   23 1   
    51   22   45 1   
    52   22   46 1   
    53   23   59 1   
    54   23   60 1   
    55   23   61 1   
    56   24   25 1   
    57   24   54 1   
    58   24   55 1   
    59   25   41 1   
    60   25   42 1   
    61   26   27 ar  
    62   26   53 1   
    63   27   31 1   
    64   29   47 1   
    65   29   48 1   
    66   43   62 1   
@<TRIPOS>SUBSTRUCTURE
     1 P96         1 TEMP              0 ****  ****    0 ROOT
