@<TRIPOS>MOLECULE
P96
   63    65     1     0     0
SMALL
bcc


@<TRIPOS>ATOM
      1 C           0.5120    1.8990    1.0370 ca        1 P96     -0.178500
      2 N           2.0780    0.5750   -0.2900 nu        1 P96     -0.716600
      3 C01         4.3630   -0.3530   -4.4490 ca        1 P96      0.001000
      4 C1          3.7760   -1.3510   -6.5840 ca        1 P96     -0.133300
      5 N1          2.8720   -3.5260   -7.3430 n3        1 P96     -0.733600
      6 C02         5.5700    0.1050   -4.9980 ca        1 P96     -0.033000
      7 C2          2.7870   -2.0710   -7.4520 c3        1 P96      0.229100
      8 N2          3.1900   -7.7870   -8.0830 nx        1 P96     -0.690400
      9 C03         4.1440   -4.0610   -7.8020 c3        1 P96      0.167800
     10 C3          3.4700   -1.0800   -5.2540 ca        1 P96     -0.043000
     11 C04         4.0460   -0.0870   -3.1060 cg        1 P96     -0.125000
     12 C4          5.9010   -0.1680   -6.3250 ca        1 P96     -0.064100
     13 C05         3.7790    0.1360   -1.9600 c1        1 P96     -0.102100
     14 C06         3.4910    0.3900   -0.5690 c3        1 P96      0.255900
     15 C07         1.7490    1.2200    0.9210 ca        1 P96      0.122600
     16 C7          5.0060   -0.9060   -7.1160 ca        1 P96      0.165100
     17 C08         2.5790    1.1340    2.0600 ca        1 P96     -0.178500
     18 C8          4.2630   -5.5670   -7.5570 c3        1 P96     -0.098400
     19 C09         2.1750    1.6960    3.2680 ca        1 P96     -0.096500
     20 C10         3.0900   -6.2810   -8.2380 c3        1 P96      0.127500
     21 C12         3.9220   -9.3000   -6.2030 c3        1 P96     -0.133600
     22 C13         2.2910   -8.4720   -9.0700 c3        1 P96      0.108800
     23 C14         2.5110   -9.9660   -9.1710 c3        1 P96     -0.133600
     24 C15         1.7600   -5.7060   -7.7490 c3        1 P96     -0.098400
     25 C16         1.7450   -4.1910   -7.9800 c3        1 P96      0.167800
     26 C17         0.9520    2.3550    3.3730 ca        1 P96     -0.158000
     27 C18         0.1260    2.4510    2.2530 ca        1 P96     -0.096500
     28 I2          7.6640    0.5310   -7.0270 i         1 P96     -0.112900
     29 C11         2.9360   -8.2500   -6.6770 c3        1 P96      0.108800
     30 H          -0.1550    1.9880    0.1670 ha        1 P96      0.130500
     31 H18        -0.8410    2.9710    2.3280 ha        1 P96      0.134000
     32 HA          1.5730    0.9500   -1.0700 hn        1 P96      0.392800
     33 H061        3.8370   -0.5020    0.0390 h1        1 P96      0.067200
     34 H062        4.1090    1.2830   -0.2370 h1        1 P96      0.067200
     35 H02         6.2600    0.6860   -4.3630 ha        1 P96      0.163000
     36 H3          2.5170   -1.4340   -4.8290 ha        1 P96      0.153000
     37 H21C        1.7470   -1.7730   -7.1300 h1        1 P96      0.058700
     38 H22C        2.9300   -1.7320   -8.5220 h1        1 P96      0.058700
     39 H031        4.9640   -3.5400   -7.2280 h1        1 P96      0.059700
     40 H032        4.3200   -3.8540   -8.8990 h1        1 P96      0.059700
     41 H161        1.7090   -3.9980   -9.0930 h1        1 P96      0.059700
     42 H162        0.7960   -3.7830   -7.5290 h1        1 P96      0.059700
     43 H1          6.0290   -0.7720   -8.7360 ho        1 P96      0.440000
     44 H10         3.1690   -6.0870   -9.3540 hx        1 P96      0.095700
     45 H131        2.4780   -8.0000  -10.0790 hx        1 P96      0.101700
     46 H132        1.2250   -8.2580   -8.7720 hx        1 P96      0.101700
     47 H111        3.0010   -7.3550   -5.9900 hx        1 P96      0.101700
     48 H112        1.8840   -8.6520   -6.6220 hx        1 P96      0.101700
     49 H81C        4.2670   -5.7650   -6.4530 hc        1 P96      0.068200
     50 H82C        5.2390   -5.9160   -7.9820 hc        1 P96      0.068200
     51 H08         3.5470    0.6140    2.0100 ha        1 P96      0.130500
     52 H09         2.8330    1.6170    4.1460 ha        1 P96      0.134000
     53 H17         0.6400    2.7970    4.3290 ha        1 P96      0.137000
     54 H151        0.9030   -6.1530   -8.3160 hc        1 P96      0.068200
     55 H152        1.6100   -5.9170   -6.6580 hc        1 P96      0.068200
     56 H121        3.6350   -9.5990   -5.1630 hc        1 P96      0.075867
     57 H122        4.9650   -8.8990   -6.1740 hc        1 P96      0.075867
     58 H123        3.9030  -10.2120   -6.8480 hc        1 P96      0.075867
     59 H141        3.5740  -10.2170   -9.4050 hc        1 P96      0.075867
     60 H142        2.2140  -10.4900   -8.2290 hc        1 P96      0.075867
     61 H143        1.8690  -10.3540  -10.0020 hc        1 P96      0.075867
     62 O1          5.2530   -1.2660   -8.4200 oh        1 P96     -0.508100
     63 H21         4.1600   -8.0410   -8.3180 hn        1 P96      0.441800
@<TRIPOS>BOND
     1    1   15 ar  
     2    1   27 ar  
     3    1   30 1   
     4    2   14 1   
     5    2   15 1   
     6    2   32 1   
     7    3    6 ar  
     8    3   10 ar  
     9    3   11 1   
    10    4    7 1   
    11    4   10 ar  
    12    4   16 ar  
    13    5    7 1   
    14    5    9 1   
    15    5   25 1   
    16    6   12 ar  
    17    6   35 1   
    18    7   37 1   
    19    7   38 1   
    20    8   20 1   
    21    8   22 1   
    22    8   29 1   
    23    8   63 1   
    24    9   18 1   
    25    9   39 1   
    26    9   40 1   
    27   10   36 1   
    28   11   13 3   
    29   12   16 ar  
    30   12   28 1   
    31   13   14 1   
    32   14   33 1   
    33   14   34 1   
    34   15   17 ar  
    35   16   62 1   
    36   17   19 ar  
    37   17   51 1   
    38   18   20 1   
    39   18   49 1   
    40   18   50 1   
    41   19   26 ar  
    42   19   52 1   
    43   20   24 1   
    44   20   44 1   
    45   21   29 1   
    46   21   56 1   
    47   21   57 1   
    48   21   58 1   
    49   22   23 1   
    50   22   45 1   
    51   22   46 1   
    52   23   59 1   
    53   23   60 1   
    54   23   61 1   
    55   24   25 1   
    56   24   54 1   
    57   24   55 1   
    58   25   41 1   
    59   25   42 1   
    60   26   27 ar  
    61   26   53 1   
    62   27   31 1   
    63   29   47 1   
    64   29   48 1   
    65   43   62 1   
@<TRIPOS>SUBSTRUCTURE
     1 P96         1 TEMP              0 ****  ****    0 ROOT
