@<TRIPOS>MOLECULE
P97
   50    52     1     0     0
SMALL
bcc


@<TRIPOS>ATOM
      1 N4          2.5470   -2.1490   -0.5070 n3        1 P97     -0.889800
      2 C3          2.5820   -0.7670   -0.0910 c3        1 P97      0.123500
      3 C5          1.1890   -0.2300    0.3290 c         1 P97      0.615100
      4 O7          0.3730   -0.9880    0.9020 o         1 P97     -0.641100
      5 C2          3.5250   -0.5300    1.1080 c3        1 P97     -0.029100
      6 C1          4.9510   -0.5110    0.6860 ca        1 P97     -0.085300
      7 C8          5.6230    0.7080    0.5320 ca        1 P97     -0.117500
      8 C12         5.6410   -1.7080    0.4560 ca        1 P97     -0.117500
      9 C9          6.9640    0.7300    0.1540 ca        1 P97     -0.130500
     10 C11         6.9820   -1.6820    0.0770 ca        1 P97     -0.130500
     11 C10         7.6460   -0.4650   -0.0740 ca        1 P97     -0.127000
     12 N6          0.8350    1.0670    0.0200 n         1 P97     -0.455800
     13 C13        -0.3830    1.6840    0.5330 c3        1 P97      0.031700
     14 C14        -1.6160    1.4090   -0.3640 c         1 P97      0.652100
     15 O15        -2.2420    2.3390   -0.9080 o         1 P97     -0.609100
     16 C19        -0.1100    3.2000    0.6370 c3        1 P97     -0.088400
     17 C20         1.2120    3.4510   -0.0790 c3        1 P97     -0.090400
     18 C21         1.7790    2.0700   -0.4430 c3        1 P97      0.085000
     19 N16        -1.9730    0.0890   -0.5320 n         1 P97     -0.557900
     20 C17        -3.1770   -0.2990   -1.2160 c3        1 P97      0.131300
     21 C18        -4.1930   -0.9680   -0.3350 ca        1 P97     -0.222600
     22 C22        -3.8530   -2.1810    0.3070 ca        1 P97      0.408200
     23 N23        -4.6880   -2.8790    1.0960 nb        1 P97     -0.661000
     24 C24        -5.9260   -2.3780    1.2780 ca        1 P97      0.403200
     25 C25        -6.3730   -1.1830    0.6920 ca        1 P97     -0.246300
     26 C26        -5.4860   -0.4680   -0.1260 ca        1 P97      0.064400
     27 CL27       -6.0210    0.9770   -0.8340 cl        1 P97     -0.065400
     28 HN4         2.2250   -2.7370    0.2380 hn        1 P97      0.363300
     29 HN4A        1.9430   -2.2610   -1.2970 hn        1 P97      0.363300
     30 H3          2.9610   -0.1690   -0.9740 h1        1 P97      0.082700
     31 H2          3.3660   -1.3280    1.8820 hc        1 P97      0.059700
     32 H2A         3.2570    0.4500    1.5850 hc        1 P97      0.059700
     33 H8          5.0900    1.6540    0.7140 ha        1 P97      0.134000
     34 H12         5.1150   -2.6680    0.5660 ha        1 P97      0.134000
     35 H9          7.4840    1.6920    0.0370 ha        1 P97      0.132000
     36 H11         7.5160   -2.6270   -0.1050 ha        1 P97      0.132000
     37 H10         8.7040   -0.4470   -0.3720 ha        1 P97      0.132000
     38 H13        -0.6210    1.2550    1.5520 h1        1 P97      0.084700
     39 H19        -0.9400    3.7880    0.1700 hc        1 P97      0.075200
     40 H19A       -0.0410    3.4890    1.7150 hc        1 P97      0.075200
     41 H20         1.0540    4.0570   -1.0050 hc        1 P97      0.058200
     42 H20A        1.9270    4.0050    0.5780 hc        1 P97      0.058200
     43 H21         2.7880    1.9170    0.0330 h1        1 P97      0.050700
     44 H21A        1.9000    1.9720   -1.5580 h1        1 P97      0.050700
     45 HN16       -1.5210   -0.6050    0.0220 hn        1 P97      0.334500
     46 H17        -3.6230    0.6100   -1.7150 h1        1 P97      0.077700
     47 H17A       -2.8920   -1.0360   -2.0260 h1        1 P97      0.077700
     48 H22        -2.8450   -2.6160    0.1730 h4        1 P97      0.030100
     49 H24        -6.5940   -2.9700    1.9300 h4        1 P97      0.028100
     50 H25        -7.3940   -0.8200    0.8750 ha        1 P97      0.158000
@<TRIPOS>BOND
     1    1    2 1   
     2    1   28 1   
     3    1   29 1   
     4    2    3 1   
     5    2    5 1   
     6    2   30 1   
     7    3    4 2   
     8    3   12 1   
     9    5    6 1   
    10    5   31 1   
    11    5   32 1   
    12    6    7 ar  
    13    6    8 ar  
    14    7    9 ar  
    15    7   33 1   
    16    8   10 ar  
    17    8   34 1   
    18    9   11 ar  
    19    9   35 1   
    20   10   11 ar  
    21   10   36 1   
    22   11   37 1   
    23   12   13 1   
    24   12   18 1   
    25   13   14 1   
    26   13   16 1   
    27   13   38 1   
    28   14   15 2   
    29   14   19 1   
    30   16   17 1   
    31   16   39 1   
    32   16   40 1   
    33   17   18 1   
    34   17   41 1   
    35   17   42 1   
    36   18   43 1   
    37   18   44 1   
    38   19   20 1   
    39   19   45 1   
    40   20   21 1   
    41   20   46 1   
    42   20   47 1   
    43   21   22 ar  
    44   21   26 ar  
    45   22   23 ar  
    46   22   48 1   
    47   23   24 ar  
    48   24   25 ar  
    49   24   49 1   
    50   25   26 ar  
    51   25   50 1   
    52   26   27 1   
@<TRIPOS>SUBSTRUCTURE
     1 P97         1 TEMP              0 ****  ****    0 ROOT
