@<TRIPOS>MOLECULE
P98
   53    57     1     0     0
SMALL
bcc


@<TRIPOS>ATOM
      1 C25         4.1170   -3.9980   -0.3670 ca        1 P98     -0.131000
      2 C15        -8.1420   -1.4090   -0.5850 ca        1 P98     -0.126000
      3 C14        -8.0040   -0.2570   -1.3960 ca        1 P98     -0.125000
      4 C24         3.1080   -3.3750   -1.0990 ca        1 P98     -0.117500
      5 C26         4.9080   -3.2450    0.4990 ca        1 P98     -0.117500
      6 C16        -7.1360   -1.7750    0.2740 ca        1 P98     -0.112000
      7 C9         -4.8810   -1.3490    1.2350 ca        1 P98     -0.086000
      8 C13        -6.8700    0.5130   -1.3410 ca        1 P98     -0.164300
      9 C4          1.4050    3.0760    0.4510 ca        1 P98     -0.040000
     10 C23         2.8880   -2.0060   -0.9790 ca        1 P98     -0.138000
     11 C27         4.6990   -1.8760    0.6400 ca        1 P98     -0.138000
     12 C1          0.1250    2.5630    0.6050 ca        1 P98     -0.212000
     13 C10        -3.7600   -0.5610    1.2760 ca        1 P98     -0.222300
     14 C3          0.9220    0.2430    0.3680 ca        1 P98     -0.161000
     15 C11        -5.9490   -1.0050    0.3590 ca        1 P98     -0.144300
     16 C12        -5.8000    0.1610   -0.4540 ca        1 P98      0.397600
     17 C17         2.4680    2.1880    0.2560 ca        1 P98      0.043400
     18 C18         2.2110    0.7590    0.2180 ca        1 P98     -0.036200
     19 C22         3.6870   -1.2350   -0.1060 ca        1 P98      0.013800
     20 C2         -0.1060    1.1720    0.5640 ca        1 P98      0.135100
     21 C7         -3.6930    0.5930    0.4250 ca        1 P98      0.416600
     22 C20         4.4150    1.2090   -0.0660 cc        1 P98      0.436800
     23 C29         6.3570    1.7970   -1.4880 c3        1 P98     -0.090100
     24 C30         6.6700    1.3140    0.9420 c3        1 P98     -0.090100
     25 C6         -2.4680    1.4740    0.5160 c3        1 P98      0.076100
     26 C28         5.8810    0.9720   -0.3080 c3        1 P98     -0.077000
     27 N8         -4.6640    0.9450   -0.4120 nb        1 P98     -0.658000
     28 N21         3.8470    2.4210    0.0750 nd        1 P98     -0.560100
     29 N19         3.4610    0.1480    0.0270 na        1 P98     -0.109400
     30 H1          4.2870   -5.0800   -0.4700 ha        1 P98      0.137000
     31 H3         -8.8250    0.0150   -2.0770 ha        1 P98      0.136000
     32 H4          2.4790   -3.9650   -1.7820 ha        1 P98      0.138500
     33 H5          5.7020   -3.7330    1.0850 ha        1 P98      0.138500
     34 H6         -7.2310   -2.6690    0.9090 ha        1 P98      0.134000
     35 H7         -4.9750   -2.2450    1.8670 ha        1 P98      0.140000
     36 H8         -6.7650    1.4090   -1.9730 ha        1 P98      0.150000
     37 H9          1.5860    4.1600    0.4840 ha        1 P98      0.150000
     38 H10         2.0860   -1.5270   -1.5630 ha        1 P98      0.147500
     39 H11         5.3250   -1.2980    1.3390 ha        1 P98      0.147500
     40 H12        -0.7140    3.2550    0.7660 ha        1 P98      0.140000
     41 H13        -2.9050   -0.7890    1.9290 ha        1 P98      0.161000
     42 H14         0.7140   -0.8340    0.3460 ha        1 P98      0.158000
     43 H15         6.2720    2.8890   -1.2700 hc        1 P98      0.044867
     44 H16         7.4270    1.5580   -1.7020 hc        1 P98      0.044867
     45 H17         5.7490    1.5670   -2.3960 hc        1 P98      0.044867
     46 H18         6.3270    0.6950    1.8050 hc        1 P98      0.044867
     47 H19         7.7550    1.1160    0.7660 hc        1 P98      0.044867
     48 H20         6.5420    2.3920    1.2050 hc        1 P98      0.044867
     49 H21        -2.3000    2.0590   -0.4260 h1        1 P98      0.064700
     50 H22        -2.5840    2.1720    1.3890 h1        1 P98      0.064700
     51 H23         6.0420   -0.1180   -0.5520 hc        1 P98      0.063700
     52 O5         -1.3540    0.6050    0.7650 os        1 P98     -0.336900
     53 H2         -9.0650   -2.0040   -0.6550 ha        1 P98      0.135000
@<TRIPOS>BOND
     1    1    4 ar  
     2    1    5 ar  
     3    1   30 1   
     4    2    3 ar  
     5    2    6 ar  
     6    2   53 1   
     7    3    8 ar  
     8    3   31 1   
     9    4   10 ar  
    10    4   32 1   
    11    5   11 ar  
    12    5   33 1   
    13    6   15 ar  
    14    6   34 1   
    15    7   13 ar  
    16    7   15 ar  
    17    7   35 1   
    18    8   16 ar  
    19    8   36 1   
    20    9   12 ar  
    21    9   17 ar  
    22    9   37 1   
    23   10   19 ar  
    24   10   38 1   
    25   11   19 ar  
    26   11   39 1   
    27   12   20 ar  
    28   12   40 1   
    29   13   21 ar  
    30   13   41 1   
    31   14   18 ar  
    32   14   20 ar  
    33   14   42 1   
    34   15   16 ar  
    35   16   27 ar  
    36   17   18 ar  
    37   17   28 1   
    38   18   29 1   
    39   19   29 1   
    40   20   52 1   
    41   21   25 1   
    42   21   27 ar  
    43   22   26 1   
    44   22   28 2   
    45   22   29 1   
    46   23   26 1   
    47   23   43 1   
    48   23   44 1   
    49   23   45 1   
    50   24   26 1   
    51   24   46 1   
    52   24   47 1   
    53   24   48 1   
    54   25   49 1   
    55   25   50 1   
    56   25   52 1   
    57   26   51 1   
@<TRIPOS>SUBSTRUCTURE
     1 P98         1 TEMP              0 ****  ****    0 ROOT
