@<TRIPOS>MOLECULE
P98
   53    56     1     0     0
SMALL
bcc


@<TRIPOS>ATOM
      1 C25        -0.1620   -0.7290    0.8000 c3        1 P98     -0.060000
      2 C15         7.4510   11.0560    2.9800 c2        1 P98     -0.061000
      3 C14         7.8190   11.1440    4.3730 c2        1 P98     -0.465000
      4 C24         1.1210   -1.4190    0.4340 c2        1 P98     -0.148000
      5 C26        -0.5720    1.1310    2.4360 c1        1 P98      0.247000
      6 C16         6.8380   10.0140    2.3970 c2        1 P98     -0.135000
      7 C9          5.2300    8.1600    2.7300 c2        1 P98     -0.088000
      8 C13         8.6240   12.0190    4.9390 c1        1 P98      0.221000
      9 C4          4.0060    1.3190    6.2770 c1        1 P98     -0.038000
     10 C23         2.1720   -0.9270    1.1080 c2        1 P98     -0.184000
     11 C27         0.2450    0.2990    1.8260 c2        1 P98     -0.468000
     12 C1          4.5190    2.6260    5.8510 c3        1 P98     -0.210000
     13 C10         4.8960    6.9530    3.3420 c2        1 P98     -0.149000
     14 C3          3.4650    2.3760    3.5780 c2        1 P98     -0.234000
     15 C11         6.4620    8.7640    3.0260 c2        1 P98     -0.085000
     16 C12         7.3190    8.0870    3.9270 c2        1 P98     -0.066000
     17 C17         3.2500    0.6000    5.3480 c2        1 P98     -0.203000
     18 C18         2.9810    1.1070    4.0160 c2        1 P98      0.061000
     19 C22         1.7650    0.2370    2.0040 c3        1 P98      0.140000
     20 C2          4.2030    3.1030    4.4730 c2        1 P98      0.091000
     21 C7          5.8150    6.3630    4.2340 c2        1 P98     -0.033000
     22 C20         2.0340   -0.9200    4.3120 c2        1 P98     -0.024000
     23 C29         2.1960   -3.3490    3.9010 c3        1 P98     -0.207500
     24 C30         0.1920   -2.4010    5.0500 c3        1 P98     -0.207500
     25 C6          5.4570    5.0770    4.9350 c3        1 P98      0.022000
     26 C28         1.2540   -2.1640    3.9940 c3        1 P98     -0.032000
     27 N8          7.0190    6.9210    4.5190 n2        1 P98     -0.133000
     28 N21         2.6390   -0.6630    5.4810 n2        1 P98     -0.049000
     29 N19         2.2180    0.1520    3.3660 na        1 P98     -0.168000
     30 H1         -0.6240   -0.2400   -0.0960 hc        1 P98      0.109000
     31 H3          7.3530   10.3880    5.0480 ha        1 P98      0.202000
     32 H4          1.1240   -2.2200   -0.3080 ha        1 P98      0.153000
     33 H5         -0.8980   -1.4570    1.2280 hc        1 P98      0.109000
     34 H6          6.5670   10.0840    1.3270 ha        1 P98      0.136000
     35 H7          4.5340    8.6380    2.0260 ha        1 P98      0.144000
     36 H8          8.3150    8.5020    4.1700 h4        1 P98      0.169000
     37 H9          5.6420    2.5780    5.9800 hc        1 P98      0.158000
     38 H10         3.2150   -1.2440    1.0610 ha        1 P98      0.161000
     39 H11         2.2050    1.1860    1.5630 h1        1 P98      0.127000
     40 H12         4.1340    3.3770    6.6020 hc        1 P98      0.158000
     41 H13         3.9400    6.4540    3.1310 ha        1 P98      0.160000
     42 H14         3.2520    2.7550    2.5700 ha        1 P98      0.150000
     43 H15         2.7250   -3.5090    4.8710 hc        1 P98      0.083667
     44 H16         2.9570   -3.1800    3.1020 hc        1 P98      0.083667
     45 H17         1.6150   -4.2710    3.6540 hc        1 P98      0.083667
     46 H18         0.6590   -2.5900    6.0460 hc        1 P98      0.083667
     47 H19        -0.4220   -3.2910    4.7690 hc        1 P98      0.083667
     48 H20        -0.4800   -1.5140    5.1360 hc        1 P98      0.083667
     49 H21         6.3680    4.4750    5.1960 h1        1 P98      0.106000
     50 H22         4.8690    5.3080    5.8630 h1        1 P98      0.106000
     51 H23         0.7430   -2.0290    2.9950 hc        1 P98      0.098000
     52 O5          4.6360    4.3290    4.0220 os        1 P98     -0.214000
     53 H2          7.6910   11.9460    2.3700 ha        1 P98      0.132000
@<TRIPOS>BOND
     1    1    4 1   
     2    1   11 1   
     3    1   30 1   
     4    1   33 1   
     5    2    3 1   
     6    2    6 1   
     7    2   53 1   
     8    3    8 1   
     9    3   31 1   
    10    4   10 1   
    11    4   32 1   
    12    5   11 1   
    13    6   15 1   
    14    6   34 1   
    15    7   13 1   
    16    7   15 1   
    17    7   35 1   
    18    9   12 1   
    19    9   17 1   
    20   10   19 1   
    21   10   38 1   
    22   11   19 1   
    23   12   20 1   
    24   12   37 1   
    25   12   40 1   
    26   13   21 1   
    27   13   41 1   
    28   14   18 1   
    29   14   20 1   
    30   14   42 1   
    31   15   16 1   
    32   16   27 1   
    33   16   36 1   
    34   17   18 1   
    35   17   28 1   
    36   18   29 1   
    37   19   29 1   
    38   19   39 1   
    39   20   52 1   
    40   21   25 1   
    41   21   27 1   
    42   22   26 1   
    43   22   28 1   
    44   22   29 1   
    45   23   26 1   
    46   23   43 1   
    47   23   44 1   
    48   23   45 1   
    49   24   26 1   
    50   24   46 1   
    51   24   47 1   
    52   24   48 1   
    53   25   49 1   
    54   25   50 1   
    55   25   52 1   
    56   26   51 1   
@<TRIPOS>SUBSTRUCTURE
     1 P98         1 TEMP              0 ****  ****    0 ROOT
