@<TRIPOS>MOLECULE
P98
   53    43     1     0     0
SMALL
bcc


@<TRIPOS>ATOM
      1 C25        -2.3620   -2.8630   -3.8160 c1        1 P98     -0.125100
      2 C15        -0.6190    8.4080   -0.6560 c1        1 P98     -0.125100
      3 C14        -1.2780    7.9880    0.5490 c1        1 P98     -0.125100
      4 C24        -1.0220   -3.1300   -3.7870 c1        1 P98     -0.125100
      5 C26        -3.0540   -2.5850   -2.6180 c1        1 P98     -0.125100
      6 C16         0.3500    7.6280   -1.2140 c1        1 P98     -0.112000
      7 C9          1.6710    5.5340   -1.1940 c1        1 P98     -0.125100
      8 C13        -0.9210    6.7550    1.1620 c1        1 P98     -0.099000
      9 C4          1.6950   -1.6360    2.6220 c1        1 P98     -0.125100
     10 C23        -0.3250   -3.1280   -2.5550 c1        1 P98     -0.125100
     11 C27        -2.3720   -2.5830   -1.4050 c1        1 P98     -0.137000
     12 C1          1.7920   -0.2700    2.3660 c1        1 P98     -0.125100
     13 C10         1.9750    4.3000   -0.6240 c1        1 P98     -0.125100
     14 C3          0.5230   -0.5650    0.3140 c1        1 P98     -0.161000
     15 C11         0.7190    6.3660   -0.5900 c1        1 P98     -0.079000
     16 C12         0.0750    5.9520    0.5880 c2        1 P98      0.004000
     17 C17         1.0000   -2.4850    1.7110 c1        1 P98     -0.043500
     18 C18         0.4240   -1.9520    0.5740 c1        1 P98     -0.043500
     19 C22        -1.0040   -2.8550   -1.3740 c1        1 P98      0.059000
     20 C2          1.2050    0.2700    1.2080 c1        1 P98      0.090000
     21 C7          1.3140    3.8870    0.5770 c1        1 P98     -0.006000
     22 C20         0.0240   -4.1290    0.5940 c1        1 P98      0.035000
     23 C29         0.8050   -6.4870    0.4860 c3        1 P98     -0.208000
     24 C30        -1.1420   -5.8920    1.9790 c3        1 P98     -0.208000
     25 C6          1.3690    2.6180    1.4200 c3        1 P98      0.020000
     26 C28        -0.4180   -5.5920    0.6270 c2        1 P98     -0.041000
     27 N8          0.3850    4.7030    1.1630 n2        1 P98     -0.132000
     28 N21         0.7510   -3.8270    1.7170 n1        1 P98     -0.147000
     29 N19        -0.1750   -2.9680   -0.1090 n1        1 P98     -0.147000
     30 O5          1.1010    1.4570    0.5670 os        1 P98     -0.220000
     31 H1         -2.8390   -2.8650   -4.6650 ha        1 P98      0.142100
     32 H2         -0.8450    9.1880   -1.0440 ha        1 P98      0.142100
     33 H3         -1.9660    8.5450    0.9430 ha        1 P98      0.142100
     34 H4         -0.5310   -3.3270   -4.6400 ha        1 P98      0.142100
     35 H5         -4.0220   -2.3930   -2.6410 ha        1 P98      0.142100
     36 H6          0.8180    7.9310   -2.0730 ha        1 P98      0.134000
     37 H7          2.1190    5.8190   -2.0100 ha        1 P98      0.142100
     38 H8         -1.3940    6.4500    2.0300 ha        1 P98      0.150000
     39 H9          2.0870   -1.9990    3.4010 ha        1 P98      0.142100
     40 H10         0.6510   -3.3220   -2.5350 ha        1 P98      0.142100
     41 H11        -2.8620   -2.3860   -0.5590 ha        1 P98      0.150000
     42 H12         2.3050    0.3560    3.0360 ha        1 P98      0.142100
     43 H13         2.6500    3.7120   -1.0440 ha        1 P98      0.142100
     44 H14         0.1270   -0.2000   -0.4660 ha        1 P98      0.158000
     45 H15         1.3840   -6.1300   -0.2100 hc        1 P98      0.084167
     46 H16         1.3030   -6.5160    1.3500 hc        1 P98      0.084167
     47 H17         0.5410   -7.3310    0.2590 hc        1 P98      0.084167
     48 H18        -0.5290   -5.8300    2.6830 hc        1 P98      0.084167
     49 H19        -1.8390   -5.2630    2.1120 hc        1 P98      0.084167
     50 H20        -1.5150   -6.7870    1.9520 hc        1 P98      0.084167
     51 H21         0.6720    2.6670    2.1530 h1        1 P98      0.104000
     52 H22         2.2380    2.5330    1.8120 h1        1 P98      0.104000
     53 H23        -1.0430   -5.7670   -0.1300 ha        1 P98      0.102000
@<TRIPOS>BOND
     1    1    5 1   
     2    1   31 1   
     3    2    3 1   
     4    2   32 1   
     5    3   33 1   
     6    4   10 1   
     7    4   34 1   
     8    5   35 1   
     9    6   15 1   
    10    6   36 1   
    11    7   13 1   
    12    7   37 1   
    13    8   16 1   
    14    8   38 1   
    15    9   12 1   
    16    9   39 1   
    17   10   40 1   
    18   11   19 1   
    19   11   41 1   
    20   12   42 1   
    21   13   43 1   
    22   14   20 1   
    23   14   44 1   
    24   15   16 1   
    25   16   27 1   
    26   17   18 1   
    27   20   30 1   
    28   21   25 1   
    29   21   27 1   
    30   22   28 1   
    31   22   29 1   
    32   23   26 1   
    33   23   45 1   
    34   23   46 1   
    35   23   47 1   
    36   24   26 1   
    37   24   48 1   
    38   24   49 1   
    39   24   50 1   
    40   25   30 1   
    41   25   51 1   
    42   25   52 1   
    43   26   53 1   
@<TRIPOS>SUBSTRUCTURE
     1 P98         1 TEMP              0 ****  ****    0 ROOT
