@<TRIPOS>MOLECULE
P98
   53    56     1     0     0
SMALL
bcc


@<TRIPOS>ATOM
      1 C25        -0.1390   -0.7490    0.7960 c3        1 P98     -0.060000
      2 C15         7.4610   11.0490    2.9460 c2        1 P98     -0.061000
      3 C14         7.8140   11.1490    4.3420 c2        1 P98     -0.465000
      4 C24         1.1460   -1.4430    0.4480 c2        1 P98     -0.148000
      5 C26        -0.5620    1.1260    2.4120 c1        1 P98      0.247000
      6 C16         6.8550   10.0010    2.3660 c2        1 P98     -0.135000
      7 C9          5.2430    8.1510    2.6990 c2        1 P98     -0.088000
      8 C13         8.6140   12.0290    4.9090 c1        1 P98      0.221000
      9 C4          3.9790    1.3420    6.2940 c1        1 P98     -0.038000
     10 C23         2.1920   -0.9470    1.1270 c2        1 P98     -0.184000
     11 C27         0.2600    0.2870    1.8170 c2        1 P98     -0.468000
     12 C1          4.4980    2.6450    5.8610 c3        1 P98     -0.210000
     13 C10         4.9020    6.9500    3.3180 c2        1 P98     -0.149000
     14 C3          3.4650    2.3760    3.5800 c2        1 P98     -0.234000
     15 C11         6.4710    8.7570    3.0030 c2        1 P98     -0.085000
     16 C12         7.3180    8.0880    3.9180 c2        1 P98     -0.066000
     17 C17         3.2320    0.6150    5.3640 c2        1 P98     -0.203000
     18 C18         2.9750    1.1120    4.0240 c2        1 P98      0.061000
     19 C22         1.7770    0.2260    2.0090 c3        1 P98      0.140000
     20 C2          4.1950    3.1110    4.4760 c2        1 P98      0.091000
     21 C7          5.8110    6.3680    4.2250 c2        1 P98     -0.033000
     22 C20         2.0240   -0.9120    4.3290 c2        1 P98     -0.024000
     23 C29         2.1880   -3.3450    3.9380 c3        1 P98     -0.207500
     24 C30         0.1750   -2.3870    5.0630 c3        1 P98     -0.207500
     25 C6          5.4460    5.0870    4.9330 c3        1 P98      0.022000
     26 C28         1.2460   -2.1590    4.0140 c3        1 P98     -0.032000
     27 N8          7.0120    6.9280    4.5170 n2        1 P98     -0.133000
     28 N21         2.6190   -0.6460    5.5020 n2        1 P98     -0.049000
     29 N19         2.2180    0.1520    3.3760 na        1 P98     -0.168000
     30 H1         -0.5930   -0.2680   -0.1080 hc        1 P98      0.109000
     31 H3          7.3410   10.3990    5.0190 ha        1 P98      0.202000
     32 H4          1.1550   -2.2510   -0.2880 ha        1 P98      0.153000
     33 H5         -0.8800   -1.4730    1.2240 hc        1 P98      0.109000
     34 H6          6.5960   10.0620    1.2920 ha        1 P98      0.136000
     35 H7          4.5540    8.6230    1.9820 ha        1 P98      0.144000
     36 H8          8.3120    8.5060    4.1690 h4        1 P98      0.169000
     37 H9          5.6190    2.5980    6.0010 hc        1 P98      0.158000
     38 H10         3.2350   -1.2660    1.0930 ha        1 P98      0.161000
     39 H11         2.2230    1.1700    1.5640 h1        1 P98      0.127000
     40 H12         4.1050    3.4030    6.6020 hc        1 P98      0.158000
     41 H13         3.9470    6.4490    3.1010 ha        1 P98      0.160000
     42 H14         3.2620    2.7470    2.5670 ha        1 P98      0.150000
     43 H15         2.7100   -3.4970    4.9130 hc        1 P98      0.083667
     44 H16         2.9560   -3.1820    3.1430 hc        1 P98      0.083667
     45 H17         1.6100   -4.2680    3.6940 hc        1 P98      0.083667
     46 H18         0.6350   -2.5690    6.0650 hc        1 P98      0.083667
     47 H19        -0.4360   -3.2790    4.7840 hc        1 P98      0.083667
     48 H20        -0.4960   -1.4990    5.1370 hc        1 P98      0.083667
     49 H21         6.3540    4.4870    5.2090 h1        1 P98      0.106000
     50 H22         4.8480    5.3270    5.8540 h1        1 P98      0.106000
     51 H23         0.7440   -2.0310    3.0110 hc        1 P98      0.098000
     52 O5          4.6330    4.3320    4.0190 os        1 P98     -0.214000
     53 H2          7.7080   11.9330    2.3310 ha        1 P98      0.132000
@<TRIPOS>BOND
     1    1    4 1   
     2    1   11 1   
     3    1   30 1   
     4    1   33 1   
     5    2    3 1   
     6    2    6 1   
     7    2   53 1   
     8    3    8 1   
     9    3   31 1   
    10    4   10 1   
    11    4   32 1   
    12    5   11 1   
    13    6   15 1   
    14    6   34 1   
    15    7   13 1   
    16    7   15 1   
    17    7   35 1   
    18    9   12 1   
    19    9   17 1   
    20   10   19 1   
    21   10   38 1   
    22   11   19 1   
    23   12   20 1   
    24   12   37 1   
    25   12   40 1   
    26   13   21 1   
    27   13   41 1   
    28   14   18 1   
    29   14   20 1   
    30   14   42 1   
    31   15   16 1   
    32   16   27 1   
    33   16   36 1   
    34   17   18 1   
    35   17   28 1   
    36   18   29 1   
    37   19   29 1   
    38   19   39 1   
    39   20   52 1   
    40   21   25 1   
    41   21   27 1   
    42   22   26 1   
    43   22   28 1   
    44   22   29 1   
    45   23   26 1   
    46   23   43 1   
    47   23   44 1   
    48   23   45 1   
    49   24   26 1   
    50   24   46 1   
    51   24   47 1   
    52   24   48 1   
    53   25   49 1   
    54   25   50 1   
    55   25   52 1   
    56   26   51 1   
@<TRIPOS>SUBSTRUCTURE
     1 P98         1 TEMP              0 ****  ****    0 ROOT
