@<TRIPOS>MOLECULE
P99
   42    38     1     0     0
SMALL
bcc


@<TRIPOS>ATOM
      1 N01         6.6190    0.7620   -3.8050 n         1 P99     -0.412000
      2 C02         6.8770    0.1120   -2.5720 c2        1 P99      0.303000
      3 O03         8.0210   -0.0300   -2.1880 o         1 P99     -0.377000
      4 C04         5.7320   -0.4350   -1.7510 c3        1 P99     -0.049000
      5 O05         5.7030    0.2070   -0.4990 os        1 P99     -0.213000
      6 C06         4.5090    0.0110    0.2130 c2        1 P99     -0.045000
      7 C07         3.4210    0.8380   -0.0170 c1        1 P99      0.136000
      8 F08         3.5090    1.8240   -0.9190 f         1 P99     -0.080000
      9 C09         2.2550    0.6700    0.7150 c2        1 P99     -0.192000
     10 C10         2.1780   -0.3250    1.6760 c1        1 P99     -0.192000
     11 S11         0.7230   -0.4740    2.6820 s         1 P99      0.267000
     12 C12        -0.5000   -1.4290    1.8180 c3        1 P99     -0.345000
     13 C13        -1.8840   -0.9690    2.2290 c3        1 P99     -0.006000
     14 N14        -2.7210   -0.8930    1.0790 n3        1 P99     -0.889000
     15 S15        -3.1110    0.5700    0.4410 s4        1 P99      2.075800
     16 O16        -2.2890    0.8790   -0.6960 o         1 P99     -0.545900
     17 O17        -2.7620    1.6380    1.3350 o         1 P99     -0.545900
     18 C18        -4.8310    0.6180    0.0230 c1        1 P99     -0.836000
     19 C19        -5.2380    0.3100   -1.2660 c2        1 P99     -0.015000
     20 C20        -6.5730    0.4300   -1.6180 c1        1 P99     -0.156000
     21 C21        -7.5010    0.8570   -0.6820 c1        1 P99     -0.109000
     22 C22        -7.0940    1.1640    0.6070 c1        1 P99     -0.109000
     23 C23        -5.7590    1.0450    0.9590 c1        1 P99     -0.018000
     24 C24         3.2670   -1.1530    1.9060 c2        1 P99     -0.174000
     25 C25         4.4320   -0.9850    1.1750 c2        1 P99      0.118000
     26 F26         5.4970   -1.7580    1.4240 f         1 P99     -0.089000
     27 HN01        7.3070    0.9520   -4.3740 hn        1 P99      0.232500
     28 HN0A        5.7610    0.9830   -4.0350 hn        1 P99      0.232500
     29 H04         5.8540   -1.3980   -1.6210 h1        1 P99      0.115000
     30 H04A        4.8870   -0.2740   -2.2210 h1        1 P99      0.115000
     31 H09         1.4890    1.2520    0.5530 ha        1 P99      0.191000
     32 H12        -0.3880   -1.3060    0.8540 h1        1 P99      0.128000
     33 H12A       -0.3910   -2.3760    2.0410 h1        1 P99      0.128000
     34 H13        -1.8240   -0.0850    2.6480 h1        1 P99      0.106000
     35 H13A       -2.2650   -1.6080    2.8690 h1        1 P99      0.106000
     36 HN14       -3.0180   -1.6590    0.6800 hn        1 P99      0.243000
     37 H19        -4.5850    0.0100   -1.9250 ha        1 P99      0.148000
     38 H20        -6.8600    0.2140   -2.5250 ha        1 P99      0.144000
     39 H21        -8.4410    0.9410   -0.9290 ha        1 P99      0.142500
     40 H22        -7.7470    1.4650    1.2660 ha        1 P99      0.142500
     41 H23        -5.4730    1.2610    1.8660 ha        1 P99      0.158000
     42 H24         3.2130   -1.8540    2.5830 ha        1 P99      0.165000
@<TRIPOS>BOND
     1    1    2 1   
     2    1   27 1   
     3    1   28 1   
     4    2    3 1   
     5    2    4 1   
     6    4    5 1   
     7    4   29 1   
     8    4   30 1   
     9    5    6 1   
    10    6    7 1   
    11    6   25 1   
    12    7    9 1   
    13    9   10 1   
    14    9   31 1   
    15   10   24 1   
    16   11   12 1   
    17   12   13 1   
    18   12   32 1   
    19   12   33 1   
    20   13   14 1   
    21   13   34 1   
    22   13   35 1   
    23   14   15 1   
    24   14   36 1   
    25   15   16 1   
    26   15   17 1   
    27   18   19 1   
    28   18   23 1   
    29   19   20 1   
    30   19   37 1   
    31   20   38 1   
    32   21   22 1   
    33   21   39 1   
    34   22   40 1   
    35   23   41 1   
    36   24   25 1   
    37   24   42 1   
    38   25   26 1   
@<TRIPOS>SUBSTRUCTURE
     1 P99         1 TEMP              0 ****  ****    0 ROOT
