@<TRIPOS>MOLECULE
P99
   44    44     1     0     0
SMALL
bcc


@<TRIPOS>ATOM
      1 N01         1.8720   -0.8480    0.8820 n4        1 P99     -0.759400
      2 C02         0.9740   -0.6430   -0.3130 c         1 P99      0.511100
      3 O03         0.0950   -1.4710   -0.4690 o         1 P99     -0.376100
      4 C04         1.2400    0.5860   -1.1620 c3        1 P99      0.059400
      5 O05         2.5560    1.0800   -0.9520 os        1 P99     -0.316900
      6 C06         3.4490    0.8550   -1.9930 ca        1 P99     -0.052900
      7 C07         4.4450   -0.1390   -1.8430 ca        1 P99      0.183900
      8 F08         4.4000   -0.9600   -0.7650 f         1 P99     -0.125900
      9 C09         5.4650   -0.2640   -2.7890 ca        1 P99     -0.168500
     10 C10         5.4990    0.5980   -3.9020 ca        1 P99      0.048900
     11 S11         6.7920    0.3170   -4.9460 ss        1 P99     -0.062000
     12 C12         6.7320    1.5820   -6.1760 c3        1 P99     -0.096300
     13 C13         8.0290    1.4270   -6.9590 c3        1 P99      0.123800
     14 N14         8.2020    2.3500   -8.0750 n3        1 P99     -0.998800
     15 S15        10.2490    1.9120   -9.1080 s4        1 P99      1.672300
     16 O16        10.9440    2.6190   -8.1790 o         1 P99     -0.433400
     17 O17        10.0870    0.5640   -9.0430 o         1 P99     -0.433400
     18 C18         9.9200    2.6190  -10.4620 ca        1 P99     -0.611500
     19 C19        10.2300    3.9880  -10.6740 ca        1 P99      0.024500
     20 C20         9.9990    4.5990  -11.8950 ca        1 P99     -0.148500
     21 C21         9.4490    3.8650  -12.9540 ca        1 P99      0.033000
     22 C22         9.1300    2.5130  -12.7740 ca        1 P99     -0.148500
     23 C23         9.3610    1.9020  -11.5530 ca        1 P99      0.024500
     24 C24         4.5120    1.5700   -4.0660 ca        1 P99     -0.168500
     25 C25         3.4840    1.7090   -3.1140 ca        1 P99      0.183900
     26 F26         2.5320    2.6490   -3.2780 f         1 P99     -0.125900
     27 HN01        1.7400   -0.0770    1.5460 hn        1 P99      0.478467
     28 HN0A        1.6630   -1.7390    1.3480 hn        1 P99      0.478467
     29 H04         1.0270    0.3320   -2.2360 h1        1 P99      0.139200
     30 H04A        0.5480    1.4080   -0.8110 h1        1 P99      0.139200
     31 H09         6.2430   -1.0350   -2.6550 ha        1 P99      0.177000
     32 H12         5.8430    1.4530   -6.8420 h1        1 P99      0.087200
     33 H12A        6.6660    2.5980   -5.7130 h1        1 P99      0.087200
     34 H13         8.9010    1.5770   -6.2540 h1        1 P99      0.104200
     35 H13A        8.0900    0.3760   -7.3740 h1        1 P99      0.104200
     36 HN14        7.4440    2.2560   -8.7300 hn        1 P99      0.402800
     37 H19        10.6820    4.5710   -9.8480 ha        1 P99      0.173000
     38 H20        10.2570    5.6630  -12.0380 ha        1 P99      0.186000
     39 H21         9.2730    4.3510  -13.9320 ha        1 P99      0.184000
     40 H22         8.7020    1.9330  -13.6110 ha        1 P99      0.186000
     41 H23         9.1220    0.8290  -11.4240 ha        1 P99      0.173000
     42 H24         4.5140    2.2490   -4.9330 ha        1 P99      0.177000
     43 H013        2.8560   -0.8390    0.5690 hn        1 P99      0.478467
     44 H142        8.2150    3.3010   -7.7400 hn        1 P99      0.402800
@<TRIPOS>BOND
     1    1    2 1   
     2    1   27 1   
     3    1   28 1   
     4    1   43 1   
     5    2    3 2   
     6    2    4 1   
     7    4    5 1   
     8    4   29 1   
     9    4   30 1   
    10    5    6 1   
    11    6    7 ar  
    12    6   25 ar  
    13    7    8 1   
    14    7    9 ar  
    15    9   10 ar  
    16    9   31 1   
    17   10   11 1   
    18   10   24 ar  
    19   11   12 1   
    20   12   13 1   
    21   12   32 1   
    22   12   33 1   
    23   13   14 1   
    24   13   34 1   
    25   13   35 1   
    26   14   36 1   
    27   14   44 1   
    28   15   16 1   
    29   15   17 1   
    30   15   18 1   
    31   18   19 ar  
    32   18   23 ar  
    33   19   20 ar  
    34   19   37 1   
    35   20   21 ar  
    36   20   38 1   
    37   21   22 ar  
    38   21   39 1   
    39   22   23 ar  
    40   22   40 1   
    41   23   41 1   
    42   24   25 ar  
    43   24   42 1   
    44   25   26 1   
@<TRIPOS>SUBSTRUCTURE
     1 P99         1 TEMP              0 ****  ****    0 ROOT
