@<TRIPOS>MOLECULE
P99
   44    44     1     0     0
SMALL
bcc


@<TRIPOS>ATOM
      1 N01         2.0190   -0.2910    1.1140 n4        1 P99     -0.759400
      2 C02         1.2520   -0.7690   -0.0950 c         1 P99      0.511100
      3 O03         0.7120   -1.8560    0.0110 o         1 P99     -0.376100
      4 C04         1.2060    0.1680   -1.2870 c3        1 P99      0.059400
      5 O05         2.2600    1.1210   -1.2320 os        1 P99     -0.316900
      6 C06         3.2950    0.9150   -2.1360 ca        1 P99     -0.052900
      7 C07         4.5340    0.4220   -1.6620 ca        1 P99      0.183900
      8 F08         4.6290    0.0040   -0.3760 f         1 P99     -0.125900
      9 C09         5.6440    0.3750   -2.5090 ca        1 P99     -0.169000
     10 C10         5.5300    0.8150   -3.8410 ca        1 P99      0.048900
     11 S11         6.9600    0.7010   -4.7230 ss        1 P99     -0.061000
     12 C12         6.6150    1.3420   -6.3320 c3        1 P99     -0.097300
     13 C13         7.9220    1.1940   -7.0990 c3        1 P99      0.125800
     14 N14         7.9020    1.6890   -8.4710 n3        1 P99     -0.998800
     15 S15         9.9970    1.3510   -9.4450 s4        1 P99      1.672300
     16 O16        10.6700    1.6180   -8.2940 o         1 P99     -0.432900
     17 O17         9.6790    0.0910   -9.8410 o         1 P99     -0.432900
     18 C18         9.8880    2.4950  -10.5040 ca        1 P99     -0.611500
     19 C19        10.3690    3.8030  -10.2330 ca        1 P99      0.024500
     20 C20        10.3320    4.7990  -11.1940 ca        1 P99     -0.148500
     21 C21         9.8130    4.5270  -12.4660 ca        1 P99      0.033000
     22 C22         9.3280    3.2470  -12.7630 ca        1 P99     -0.148500
     23 C23         9.3650    2.2510  -11.8020 ca        1 P99      0.024500
     24 C24         4.3090    1.2910   -4.3190 ca        1 P99     -0.169000
     25 C25         3.1860    1.3470   -3.4730 ca        1 P99      0.183900
     26 F26         2.0070    1.8040   -3.9420 f         1 P99     -0.125900
     27 HN01        2.0580   -1.0220    1.8350 hn        1 P99      0.478467
     28 HN0A        1.5650    0.5440    1.5000 hn        1 P99      0.478467
     29 H04         1.2140   -0.4480   -2.2270 h1        1 P99      0.139200
     30 H04A        0.2510    0.7680   -1.2210 h1        1 P99      0.139200
     31 H09         6.6070   -0.0030   -2.1250 ha        1 P99      0.177000
     32 H12         5.7940    0.7690   -6.8300 h1        1 P99      0.086700
     33 H12A        6.2990    2.4130   -6.2790 h1        1 P99      0.086700
     34 H13         8.7430    1.7460   -6.5480 h1        1 P99      0.103700
     35 H13A        8.2020    0.0990   -7.1360 h1        1 P99      0.103700
     36 HN14        7.6510    2.6640   -8.4900 hn        1 P99      0.402800
     37 H19        10.7970    4.0210   -9.2350 ha        1 P99      0.173000
     38 H20        10.7200    5.8060  -10.9620 ha        1 P99      0.186000
     39 H21         9.7910    5.3200  -13.2370 ha        1 P99      0.184000
     40 H22         8.9240    3.0310  -13.7680 ha        1 P99      0.186000
     41 H23         8.9960    1.2370  -12.0500 ha        1 P99      0.173000
     42 H24         4.1970    1.6390   -5.3580 ha        1 P99      0.177000
     43 H013        2.9760   -0.0340    0.8250 hn        1 P99      0.478467
     44 H142        7.2250    1.1770   -9.0150 hn        1 P99      0.402800
@<TRIPOS>BOND
     1    1    2 1   
     2    1   27 1   
     3    1   28 1   
     4    1   43 1   
     5    2    3 2   
     6    2    4 1   
     7    4    5 1   
     8    4   29 1   
     9    4   30 1   
    10    5    6 1   
    11    6    7 ar  
    12    6   25 ar  
    13    7    8 1   
    14    7    9 ar  
    15    9   10 ar  
    16    9   31 1   
    17   10   11 1   
    18   10   24 ar  
    19   11   12 1   
    20   12   13 1   
    21   12   32 1   
    22   12   33 1   
    23   13   14 1   
    24   13   34 1   
    25   13   35 1   
    26   14   36 1   
    27   14   44 1   
    28   15   16 1   
    29   15   17 1   
    30   15   18 1   
    31   18   19 ar  
    32   18   23 ar  
    33   19   20 ar  
    34   19   37 1   
    35   20   21 ar  
    36   20   38 1   
    37   21   22 ar  
    38   21   39 1   
    39   22   23 ar  
    40   22   40 1   
    41   23   41 1   
    42   24   25 ar  
    43   24   42 1   
    44   25   26 1   
@<TRIPOS>SUBSTRUCTURE
     1 P99         1 TEMP              0 ****  ****    0 ROOT
