@<TRIPOS>MOLECULE
P99
   42    43     1     0     0
SMALL
bcc


@<TRIPOS>ATOM
      1 N01         7.4700   -0.7620    1.0650 n         1 P99     -0.661000
      2 C02         7.1770    0.5630    1.2310 c         1 P99      0.627100
      3 O03         7.4670    1.1590    2.2900 o         1 P99     -0.615100
      4 C04         6.5380    1.3370    0.0840 c3        1 P99      0.049400
      5 O05         5.8460    0.5110   -0.8560 os        1 P99     -0.315900
      6 C06         4.5460    0.1850   -0.5110 ca        1 P99      0.005100
      7 C07         4.2190   -1.1810   -0.3370 ca        1 P99      0.157900
      8 F08         5.1920   -2.1190   -0.3940 f         1 P99     -0.125900
      9 C09         2.8900   -1.5660   -0.1180 ca        1 P99     -0.177000
     10 C10         1.8760   -0.6000   -0.0610 ca        1 P99      0.040900
     11 S11         0.3290   -1.2170    0.2280 ss        1 P99     -0.140000
     12 C12        -0.7480    0.1830    0.2380 c3        1 P99     -0.072300
     13 C13        -2.1510   -0.3870    0.4460 c3        1 P99      0.242800
     14 N14        -3.1510    0.6050    0.6950 n3        1 P99     -0.914100
     15 S15        -4.3950    0.9390   -0.2920 sy        1 P99      1.516200
     16 O16        -4.7460    2.2940   -0.1120 o         1 P99     -0.651800
     17 O17        -4.0920    0.5110   -1.6030 o         1 P99     -0.651800
     18 C18        -5.6360   -0.0240    0.3170 ca        1 P99     -0.387500
     19 C19        -6.4990    0.4640    1.3070 ca        1 P99     -0.016000
     20 C20        -7.5410   -0.3190    1.7960 ca        1 P99     -0.156000
     21 C21        -7.7360   -1.6070    1.2960 ca        1 P99     -0.064000
     22 C22        -6.8910   -2.1040    0.3030 ca        1 P99     -0.156000
     23 C23        -5.8510   -1.3150   -0.1810 ca        1 P99     -0.016000
     24 C24         2.1860    0.7490   -0.2350 ca        1 P99     -0.177000
     25 C25         3.5140    1.1460   -0.4690 ca        1 P99      0.157900
     26 F26         3.7940    2.4580   -0.6440 f         1 P99     -0.125900
     27 HN01        7.1820   -1.2410    0.2480 hn        1 P99      0.320500
     28 HN0A        7.8720   -1.2740    1.8100 hn        1 P99      0.320500
     29 H04         5.8670    2.1280    0.5080 h1        1 P99      0.095200
     30 H04A        7.3530    1.8060   -0.5330 h1        1 P99      0.095200
     31 H09         2.6510   -2.6330    0.0100 ha        1 P99      0.162500
     32 H12        -0.4740    0.8870    1.0610 h1        1 P99      0.079700
     33 H12A       -0.6930    0.7450   -0.7260 h1        1 P99      0.079700
     34 H13        -2.4420   -0.9680   -0.4790 h1        1 P99      0.065700
     35 H13A       -2.1150   -1.1080    1.3170 h1        1 P99      0.065700
     36 HN14       -3.0060    1.1190    1.5310 hn        1 P99      0.447800
     37 H19        -6.3570    1.4920    1.6870 ha        1 P99      0.152500
     38 H20        -8.2110    0.0790    2.5720 ha        1 P99      0.143000
     39 H21        -8.5590   -2.2290    1.6800 ha        1 P99      0.139000
     40 H22        -7.0480   -3.1160   -0.1010 ha        1 P99      0.143000
     41 H23        -5.1930   -1.7000   -0.9810 ha        1 P99      0.152500
     42 H24         1.4060    1.5240   -0.2030 ha        1 P99      0.162500
@<TRIPOS>BOND
     1    1    2 1   
     2    1   27 1   
     3    1   28 1   
     4    2    3 2   
     5    2    4 1   
     6    4    5 1   
     7    4   29 1   
     8    4   30 1   
     9    5    6 1   
    10    6    7 ar  
    11    6   25 ar  
    12    7    8 1   
    13    7    9 ar  
    14    9   10 ar  
    15    9   31 1   
    16   10   11 1   
    17   10   24 ar  
    18   11   12 1   
    19   12   13 1   
    20   12   32 1   
    21   12   33 1   
    22   13   14 1   
    23   13   34 1   
    24   13   35 1   
    25   14   15 1   
    26   14   36 1   
    27   15   16 2   
    28   15   17 2   
    29   15   18 1   
    30   18   19 ar  
    31   18   23 ar  
    32   19   20 ar  
    33   19   37 1   
    34   20   21 ar  
    35   20   38 1   
    36   21   22 ar  
    37   21   39 1   
    38   22   23 ar  
    39   22   40 1   
    40   23   41 1   
    41   24   25 ar  
    42   24   42 1   
    43   25   26 1   
@<TRIPOS>SUBSTRUCTURE
     1 P99         1 TEMP              0 ****  ****    0 ROOT
