@<TRIPOS>MOLECULE
P99
   44    44     1     0     0
SMALL
bcc


@<TRIPOS>ATOM
      1 N01         1.8730   -0.8170    0.8970 nz        1 P99     -0.759400
      2 C02         0.9880   -0.7130   -0.3220 c         1 P99      0.511100
      3 O03         0.1590   -1.5950   -0.4570 o         1 P99     -0.376100
      4 C04         1.2020    0.4920   -1.2180 c3        1 P99      0.059400
      5 O05         2.4840    1.0680   -1.0060 os        1 P99     -0.316900
      6 C06         3.4080    0.8500   -2.0210 ca        1 P99     -0.052900
      7 C07         4.4550   -0.0790   -1.8110 ca        1 P99      0.183900
      8 F08         4.4350   -0.8550   -0.7000 f         1 P99     -0.125900
      9 C09         5.4980   -0.1850   -2.7340 ca        1 P99     -0.168500
     10 C10         5.5070    0.6300   -3.8820 ca        1 P99      0.048900
     11 S11         6.8330    0.3790   -4.8900 ss        1 P99     -0.062000
     12 C12         6.7260    1.5840   -6.1760 c3        1 P99     -0.096300
     13 C13         8.0400    1.4630   -6.9350 c3        1 P99      0.123800
     14 N14         8.1830    2.3470   -8.0870 n8        1 P99     -0.998800
     15 S15        10.2640    1.9650   -9.0720 s4        1 P99      1.672300
     16 O16        10.9170    2.7060   -8.1390 o         1 P99     -0.433400
     17 O17        10.1460    0.6130   -8.9910 o         1 P99     -0.433400
     18 C18         9.9410    2.6420  -10.4420 ca        1 P99     -0.611500
     19 C19        10.2100    4.0190  -10.6670 ca        1 P99      0.024500
     20 C20         9.9830    4.6050  -11.9000 ca        1 P99     -0.148000
     21 C21         9.4800    3.8400  -12.9600 ca        1 P99      0.033000
     22 C22         9.2010    2.4810  -12.7670 ca        1 P99     -0.148000
     23 C23         9.4280    1.8930  -11.5340 ca        1 P99      0.024500
     24 C24         4.4710    1.5370   -4.1040 ca        1 P99     -0.168500
     25 C25         3.4180    1.6580   -3.1770 ca        1 P99      0.183900
     26 F26         2.4180    2.5340   -3.3970 f         1 P99     -0.125900
     27 HN01        1.7040   -1.6980    1.3970 hn        1 P99      0.478467
     28 HN0A        1.6850   -0.0280    1.5240 hn        1 P99      0.478467
     29 H04         1.0250    0.1810   -2.2830 h1        1 P99      0.139200
     30 H04A        0.4580    1.2870   -0.9150 h1        1 P99      0.139200
     31 H09         6.3160   -0.9050   -2.5530 ha        1 P99      0.177000
     32 H12         5.8550    1.3790   -6.8460 h1        1 P99      0.087200
     33 H12A        6.6000    2.6150   -5.7590 h1        1 P99      0.087200
     34 H13         8.8930    1.6870   -6.2270 h1        1 P99      0.104200
     35 H13A        8.1600    0.4000   -7.3050 h1        1 P99      0.104200
     36 HN14        8.1410    3.3100   -7.7930 hn        1 P99      0.402300
     37 H19        10.6240    4.6270   -9.8390 ha        1 P99      0.173500
     38 H20        10.2080    5.6760  -12.0530 ha        1 P99      0.186000
     39 H21         9.3070    4.3070  -13.9470 ha        1 P99      0.184000
     40 H22         8.8110    1.8750  -13.6040 ha        1 P99      0.186000
     41 H23         9.2220    0.8140  -11.3960 ha        1 P99      0.173500
     42 H24         4.4520    2.1790   -4.9990 ha        1 P99      0.177000
     43 H013        2.8600   -0.7660    0.6000 hn        1 P99      0.478467
     44 H142        7.4410    2.1850   -8.7480 hn        1 P99      0.402300
@<TRIPOS>BOND
     1    1    2 1   
     2    1   27 1   
     3    1   28 1   
     4    1   43 1   
     5    2    3 2   
     6    2    4 1   
     7    4    5 1   
     8    4   29 1   
     9    4   30 1   
    10    5    6 1   
    11    6    7 ar  
    12    6   25 ar  
    13    7    8 1   
    14    7    9 ar  
    15    9   10 ar  
    16    9   31 1   
    17   10   11 1   
    18   10   24 ar  
    19   11   12 1   
    20   12   13 1   
    21   12   32 1   
    22   12   33 1   
    23   13   14 1   
    24   13   34 1   
    25   13   35 1   
    26   14   36 1   
    27   14   44 1   
    28   15   16 1   
    29   15   17 1   
    30   15   18 1   
    31   18   19 ar  
    32   18   23 ar  
    33   19   20 ar  
    34   19   37 1   
    35   20   21 ar  
    36   20   38 1   
    37   21   22 ar  
    38   21   39 1   
    39   22   23 ar  
    40   22   40 1   
    41   23   41 1   
    42   24   25 ar  
    43   24   42 1   
    44   25   26 1   
@<TRIPOS>SUBSTRUCTURE
     1 P99         1 TEMP              0 ****  ****    0 ROOT
