@<TRIPOS>MOLECULE
P9A
   61    60     1     0     0
SMALL
bcc


@<TRIPOS>ATOM
      1 O16         0.7320    0.4830    2.0010 os        1 P9A     -0.135000
      2 O19         3.1430   -3.4070   -2.5990 o         1 P9A     -0.283000
      3 O20         4.0190   -0.6740   -7.3230 o         1 P9A     -0.459000
      4 O32         2.1680    2.7830   -6.0290 o         1 P9A     -0.223500
      5 O33         2.1260    4.6920   -7.4500 o         1 P9A     -0.223500
      6 N28         2.8220   -0.2980   -5.4310 n         1 P9A     -0.433000
      7 C1          3.5840   -1.1050   -6.2230 c2        1 P9A      0.308000
      8 C2          3.8720   -2.5160   -5.7810 c3        1 P9A     -0.241000
      9 C3          1.8720   -0.5260   -2.5210 c1        1 P9A     -0.026000
     10 C4          2.1300   -1.5200   -1.4660 c3        1 P9A     -0.204000
     11 C5          2.1380   -2.8960   -2.1120 c2        1 P9A      0.225000
     12 C6          2.1340   -4.7220    0.7340 c2        1 P9A     -0.198000
     13 C7          1.2090   -3.7910    0.5080 c2        1 P9A     -0.159000
     14 C8          1.3430   -2.3570    0.8290 cx        1 P9A     -0.071000
     15 C9          1.0890   -1.4540   -0.3450 c3        1 P9A     -0.134000
     16 C10         1.0510    1.3530    2.9080 c1        1 P9A      0.045000
     17 C11         0.6380    0.8950    4.2770 c3        1 P9A     -0.278000
     18 C12        -0.0080   -0.4770    4.0660 c3        1 P9A     -0.196000
     19 C13         2.3090   -1.9130    1.9010 cx        1 P9A     -0.187000
     20 C14         0.8440   -1.9600    2.2180 cx        1 P9A     -0.156000
     21 C15         0.0470   -0.7300    2.5440 c3        1 P9A      0.031000
     22 C17        -1.3350   -0.7710    1.9220 c3        1 P9A     -0.211000
     23 C18         3.5330   -1.1780   -0.9440 c3        1 P9A     -0.190000
     24 C22         3.8240    3.3900  -10.1690 c2        1 P9A     -0.112000
     25 C23         3.9690    2.1510   -9.4690 c2        1 P9A      0.115000
     26 C24         4.6350    1.0090   -9.9920 c2        1 P9A     -0.299000
     27 C25         5.2160    1.0290  -11.2870 c2        1 P9A      0.204000
     28 C26         5.0220    2.2600  -11.8740 c1        1 P9A     -0.175000
     29 C27         4.4300    3.2560  -11.3930 c1        1 P9A     -0.063000
     30 HO30        5.8690   -0.7500  -11.2540 ho        1 P9A      0.230000
     31 HO31        3.5630    1.2470   -7.8190 ho        1 P9A      0.266000
     32 HN28        2.6360    0.6330   -5.7170 hn        1 P9A      0.245500
     33 H2          4.8320   -2.8500   -6.2420 hc        1 P9A      0.109000
     34 H2A         3.0500   -3.1810   -6.1430 hc        1 P9A      0.109000
     35 H3          1.4360    0.4250   -2.1790 ha        1 P9A      0.061000
     36 H3A         3.9460   -2.6090   -4.6700 hc        1 P9A      0.109000
     37 H6          1.1490   -3.4040   -2.1230 h4        1 P9A      0.097000
     38 H6A         1.9700   -5.7780    0.4770 ha        1 P9A      0.120000
     39 H7          0.2350   -4.0570    0.0590 ha        1 P9A      0.124000
     40 H7A         3.1150   -4.5010    1.1740 ha        1 P9A      0.120000
     41 H9          0.0860   -1.7120   -0.7810 hc        1 P9A      0.102500
     42 H10         1.0410   -0.3890    0.0140 hc        1 P9A      0.102500
     43 H11         1.5330    0.8400    4.9450 hc        1 P9A      0.132000
     44 H11A       -0.0760    1.6320    4.7230 hc        1 P9A      0.132000
     45 H12        -1.0660   -0.4820    4.4230 hc        1 P9A      0.103500
     46 H13         0.5490   -1.2690    4.6220 hc        1 P9A      0.103500
     47 H13A        2.7920   -0.9240    1.7850 hc        1 P9A      0.122000
     48 H14         0.4860   -2.8090    2.8420 hc        1 P9A      0.130000
     49 H14A        2.9820   -2.6550    2.3670 hc        1 P9A      0.122000
     50 H17        -1.8850   -1.6680    2.2910 hc        1 P9A      0.090000
     51 H17A       -1.9080    0.1480    2.1920 hc        1 P9A      0.090000
     52 H17B       -1.2530   -0.8260    0.8090 hc        1 P9A      0.090000
     53 H18         3.5350   -0.1710   -0.4650 hc        1 P9A      0.101667
     54 H18A        4.2720   -1.2050   -1.7810 hc        1 P9A      0.101667
     55 H18B        3.8260   -1.9440   -0.1850 hc        1 P9A      0.101667
     56 H26         4.6970    0.0980   -9.3780 ha        1 P9A      0.182000
     57 H27         3.3100    4.2560   -9.7490 ha        1 P9A      0.174000
     58 O31         3.4090    2.1250   -8.2150 oh        1 P9A     -0.301000
     59 O30         5.8720   -0.0070  -11.8790 oh        1 P9A     -0.229000
     60 H282        2.5050   -0.5930   -4.5310 hn        1 P9A      0.245500
     61 C21         2.1540    3.7310   -6.7520 c1        1 P9A      0.445000
@<TRIPOS>BOND
     1    1   16 1   
     2    1   21 1   
     3    2   11 1   
     4    3    7 1   
     5    4   61 1   
     6    5   61 1   
     7    6    7 1   
     8    6   32 1   
     9    6   60 1   
    10    7    8 1   
    11    8   33 1   
    12    8   34 1   
    13    8   36 1   
    14    9   10 1   
    15    9   35 1   
    16   10   11 1   
    17   10   15 1   
    18   10   23 1   
    19   11   37 1   
    20   12   13 1   
    21   12   38 1   
    22   12   40 1   
    23   13   14 1   
    24   13   39 1   
    25   14   15 1   
    26   14   19 1   
    27   14   20 1   
    28   15   41 1   
    29   15   42 1   
    30   16   17 1   
    31   17   18 1   
    32   17   43 1   
    33   17   44 1   
    34   18   21 1   
    35   18   45 1   
    36   18   46 1   
    37   19   20 1   
    38   19   47 1   
    39   19   49 1   
    40   20   21 1   
    41   20   48 1   
    42   21   22 1   
    43   22   50 1   
    44   22   51 1   
    45   22   52 1   
    46   23   53 1   
    47   23   54 1   
    48   23   55 1   
    49   24   25 1   
    50   24   29 1   
    51   24   57 1   
    52   25   26 1   
    53   25   58 1   
    54   26   27 1   
    55   26   56 1   
    56   27   28 1   
    57   27   59 1   
    58   28   29 1   
    59   30   59 1   
    60   31   58 1   
@<TRIPOS>SUBSTRUCTURE
     1 P9A         1 TEMP              0 ****  ****    0 ROOT
