@<TRIPOS>MOLECULE
P9A
   60    57     1     0     0
SMALL
bcc


@<TRIPOS>ATOM
      1 O16        -0.4650   -1.3100   -1.1280 os        1 P9A     -0.036000
      2 O19         3.2600   -3.4720   -2.6080 o         1 P9A     -0.321000
      3 O20         1.7750    0.3030   -3.8650 o         1 P9A     -0.444000
      4 O32         3.5970    4.2080   -9.1730 o         1 P9A     -0.539500
      5 O33         4.9430    2.6470  -10.0460 o         1 P9A     -0.539500
      6 N28         1.2540    1.2560   -5.9130 n         1 P9A     -0.266000
      7 C1          0.9590    0.8900   -4.6150 c2        1 P9A      0.313000
      8 C2         -0.4530    1.1570   -4.1410 c3        1 P9A     -0.257000
      9 C3          4.0760    0.0090   -2.2740 c1        1 P9A      0.002000
     10 C4          3.5740   -1.2540   -1.6780 c3        1 P9A     -0.191000
     11 C5          3.0790   -2.2560   -2.7050 c2        1 P9A      0.173000
     12 C6          3.6910   -4.9480    1.0070 c1        1 P9A     -0.062000
     13 C7          2.5670   -4.2100    0.4930 c3        1 P9A     -0.236000
     14 C8          2.4040   -2.7680    0.8500 c2        1 P9A     -0.083000
     15 C9          2.3950   -0.8350   -0.7830 c3        1 P9A     -0.098000
     16 C10        -0.6610   -0.0620   -0.9440 c1        1 P9A     -0.032000
     17 C11         2.0560    1.4720    1.9530 c1        1 P9A     -0.220000
     18 C12         0.8770    1.6560    2.0310 c1        1 P9A     -0.220000
     19 C13         2.8790   -2.2470    1.9870 c2        1 P9A     -0.222000
     20 C14         1.6510   -1.9330   -0.1010 c2        1 P9A     -0.077000
     21 C15         0.3210   -2.1100   -0.2410 c2        1 P9A     -0.096000
     22 C17        -0.5070   -3.1560    0.4010 c3        1 P9A     -0.177000
     23 C18         4.7520   -1.8160   -0.8850 c3        1 P9A     -0.181000
     24 C22         4.4770    2.5810   -7.6590 c3        1 P9A     -0.065000
     25 C23         3.1110    2.4280   -6.9590 c2        1 P9A      0.093000
     26 C24         2.5590    1.2620   -6.4570 c2        1 P9A     -0.189000
     27 C25         3.2710   -0.1290   -6.4460 c3        1 P9A      0.248000
     28 C26         4.5250    0.1910   -7.1110 c1        1 P9A     -0.301000
     29 C27         4.9770    1.2330   -7.5470 c1        1 P9A     -0.074000
     30 HO30        2.3550   -0.8380   -7.9940 ho        1 P9A      0.211000
     31 HO31        2.6700    4.2140   -7.5230 ho        1 P9A      0.287000
     32 HN28        0.6310    1.9030   -6.3480 hn        1 P9A      0.225000
     33 H2         -1.1970    0.7070   -4.8410 hc        1 P9A      0.107000
     34 H2A        -0.6320    2.2560   -4.0740 hc        1 P9A      0.107000
     35 H3          4.1230    0.0400   -3.3740 ha        1 P9A      0.072000
     36 H3A        -0.5900    0.7010   -3.1260 hc        1 P9A      0.107000
     37 H6          2.5390   -1.8030   -3.5710 h4        1 P9A      0.145000
     38 H6A         4.5290   -4.3650    1.4230 ha        1 P9A      0.037000
     39 H7          2.6890   -4.3180   -0.6410 hc        1 P9A      0.173500
     40 H7A         1.6120   -4.7610    0.7420 hc        1 P9A      0.173500
     41 H9          2.7920   -0.1370    0.0070 hc        1 P9A      0.114500
     42 H10         1.6950   -0.2450   -1.4430 hc        1 P9A      0.114500
     43 H11         3.1030    1.3170    1.8690 ha        1 P9A      0.221000
     44 H11A       -0.1840    0.4670   -0.0880 ha        1 P9A      0.034000
     45 H12        -0.1680    1.8240    2.0980 ha        1 P9A      0.221000
     46 H13         2.7470   -1.1870    2.2460 ha        1 P9A      0.116500
     47 H13A        3.4320   -2.8450    2.7230 ha        1 P9A      0.116500
     48 H14        -0.0580   -6.3800    1.4010 ha        1 P9A      0.001000
     49 H14A       -0.3430   -5.7710    1.3200 ha        1 P9A      0.001000
     50 H17        -0.1010   -3.4130    1.4110 hc        1 P9A      0.094000
     51 H17A       -1.5640   -2.8090    0.5110 hc        1 P9A      0.094000
     52 H17B       -0.5060   -4.0790   -0.2330 hc        1 P9A      0.094000
     53 H18         4.9690   -1.1670   -0.0040 hc        1 P9A      0.085000
     54 H18A        4.5120   -2.8490   -0.5350 hc        1 P9A      0.085000
     55 H18B        5.6600   -1.8670   -1.5330 hc        1 P9A      0.085000
     56 H26         3.3940   -0.4960   -5.3880 h1        1 P9A      0.129000
     57 H27         5.0940    3.3200   -7.0770 hc        1 P9A      0.125000
     58 C21         4.3270    3.1730   -9.0940 c2        1 P9A      0.352000
     59 O31         2.3900    3.5840   -6.8200 oh        1 P9A     -0.311000
     60 O30         2.5010   -1.1220   -7.0830 oh        1 P9A     -0.319000
@<TRIPOS>BOND
     1    1   16 1   
     2    1   21 1   
     3    2   11 1   
     4    3    7 1   
     5    4   58 1   
     6    5   58 1   
     7    6    7 1   
     8    6   26 1   
     9    6   32 1   
    10    7    8 1   
    11    8   33 1   
    12    8   34 1   
    13    8   36 1   
    14    9   10 1   
    15    9   35 1   
    16   10   11 1   
    17   10   15 1   
    18   10   23 1   
    19   11   37 1   
    20   12   13 1   
    21   12   38 1   
    22   13   14 1   
    23   13   39 1   
    24   13   40 1   
    25   14   19 1   
    26   14   20 1   
    27   15   20 1   
    28   15   41 1   
    29   15   42 1   
    30   16   44 1   
    31   17   18 1   
    32   17   43 1   
    33   18   45 1   
    34   19   46 1   
    35   19   47 1   
    36   20   21 1   
    37   21   22 1   
    38   22   50 1   
    39   22   51 1   
    40   22   52 1   
    41   23   53 1   
    42   23   54 1   
    43   23   55 1   
    44   24   25 1   
    45   24   29 1   
    46   24   57 1   
    47   24   58 1   
    48   25   26 1   
    49   25   59 1   
    50   26   27 1   
    51   27   28 1   
    52   27   56 1   
    53   27   60 1   
    54   28   29 1   
    55   30   60 1   
    56   31   59 1   
    57   48   49 1   
@<TRIPOS>SUBSTRUCTURE
     1 P9A         1 TEMP              0 ****  ****    0 ROOT
