@<TRIPOS>MOLECULE
P9A
   60    61     1     0     0
SMALL
bcc


@<TRIPOS>ATOM
      1 O16         0.7690    0.0090    0.6100 os        1 P9A     -0.116000
      2 O19         5.2810   -3.7880   -1.5770 o         1 P9A     -0.303000
      3 O20         4.5340    0.4060   -4.9900 o         1 P9A     -0.365000
      4 O32         5.5350    3.9390   -8.0590 o         1 P9A     -0.246000
      5 O33         4.4710    4.0350  -10.0500 os        1 P9A     -0.212000
      6 N28         2.3710    0.1830   -5.8100 ns        1 P9A     -0.284000
      7 C1          3.3630   -0.0010   -4.8630 c2        1 P9A      0.305000
      8 C2          2.9400   -0.8120   -3.6410 c3        1 P9A     -0.189000
      9 C3          3.9640   -0.7100   -2.5320 c3        1 P9A     -0.132000
     10 C4          3.8400   -1.8430   -1.4930 c3        1 P9A     -0.203000
     11 C5          4.4100   -3.1030   -2.1190 c2        1 P9A      0.167000
     12 C6          2.2860   -5.1530    1.2060 c1        1 P9A     -0.063000
     13 C7          2.3750   -4.2950    0.0530 c3        1 P9A     -0.235000
     14 C8          2.1710   -2.8070    0.1730 cx        1 P9A     -0.138000
     15 C9          2.3610   -2.0660   -1.1230 c3        1 P9A     -0.103000
     16 C10         0.4940    0.9690    1.4350 c1        1 P9A      0.052000
     17 C11        -0.4420    0.5100    2.5200 c3        1 P9A     -0.280000
     18 C12        -0.7040   -0.9680    2.2280 c3        1 P9A     -0.197000
     19 C13         2.5540   -2.0880    1.4440 cx        1 P9A     -0.205000
     20 C14         1.1040   -2.3600    1.1620 cx        1 P9A     -0.157000
     21 C15         0.0870   -1.2790    0.9370 c3        1 P9A      0.030000
     22 C17        -0.8340   -1.6010   -0.2240 c3        1 P9A     -0.212000
     23 C18         4.5150   -1.3850   -0.2630 c1        1 P9A      0.000000
     24 C22         3.4280    2.5880   -8.5020 c2        1 P9A      0.023000
     25 C23         3.2670    1.9430   -7.2530 c2        1 P9A     -0.128000
     26 C24         2.4080    0.8810   -7.0020 c2        1 P9A      0.076000
     27 C25         1.3270    0.3960   -8.0440 c3        1 P9A      0.169000
     28 C26         3.4130    3.4750  -10.6560 c1        1 P9A      0.067000
     29 C27         2.7560    2.5620   -9.7010 c2        1 P9A     -0.361000
     30 HO30        0.7690    1.3580   -8.2850 h1        1 P9A     -0.014000
     31 HO31        4.8720    2.1120   -6.2120 ho        1 P9A      0.212000
     32 HN28        1.5590   -0.4230   -5.7600 hn        1 P9A      0.275000
     33 H2          2.8120   -1.8770   -3.9730 hc        1 P9A      0.102500
     34 H2A         1.9450   -0.4490   -3.2700 hc        1 P9A      0.102500
     35 H3          4.9990   -0.7300   -2.9680 hc        1 P9A      0.123500
     36 H3A         3.8410    0.2740   -2.0030 hc        1 P9A      0.123500
     37 H6          3.9980   -3.3730   -3.1170 h4        1 P9A      0.104000
     38 H6A         2.2200   -4.6830    2.1990 ha        1 P9A      0.037000
     39 H7          3.4150   -4.5060   -0.3580 hc        1 P9A      0.161000
     40 H7A         1.6550   -4.6970   -0.7220 hc        1 P9A      0.161000
     41 H9          1.8860   -1.0480   -1.0410 hc        1 P9A      0.115000
     42 H10         1.8590   -2.6230   -1.9570 hc        1 P9A      0.115000
     43 H11         0.0340    0.6640    3.5200 hc        1 P9A      0.126000
     44 H11A       -1.3800    1.1180    2.4890 hc        1 P9A      0.126000
     45 H12        -1.7930   -1.1610    2.0720 hc        1 P9A      0.098500
     46 H13        -0.3560   -1.6080    3.0740 hc        1 P9A      0.098500
     47 H13A        2.9250   -1.0420    1.3560 hc        1 P9A      0.139500
     48 H14         0.6270   -3.1910    1.7320 hc        1 P9A      0.115000
     49 H14A        3.0550   -2.6450    2.2550 hc        1 P9A      0.139500
     50 H17        -1.3820   -2.5510   -0.0150 hc        1 P9A      0.091333
     51 H17A       -0.2460   -1.7200   -1.1650 hc        1 P9A      0.091333
     52 H17B       -1.5730   -0.7770   -0.3700 hc        1 P9A      0.091333
     53 H18         5.2650   -2.0860    0.1430 ha        1 P9A      0.046000
     54 H18A        2.7760    1.3370    0.0990 ha        1 P9A      0.001000
     55 H18B        3.1820    0.7970    0.0340 ha        1 P9A      0.001000
     56 H26         1.9730    0.1400   -8.9480 h1        1 P9A     -0.014000
     57 H27         1.8660    1.9920   -9.9620 ha        1 P9A      0.185000
     58 C21         4.5830    3.5450   -8.7040 c2        1 P9A      0.271000
     59 O31         3.9850    2.5070   -6.2030 oh        1 P9A     -0.279000
     60 O30         0.5700   -0.5830   -7.6150 o         1 P9A     -0.707000
@<TRIPOS>BOND
     1    1   16 1   
     2    1   21 1   
     3    2   11 1   
     4    3    7 1   
     5    4   58 1   
     6    5   28 1   
     7    5   58 1   
     8    6    7 1   
     9    6   26 1   
    10    6   32 1   
    11    7    8 1   
    12    8    9 1   
    13    8   33 1   
    14    8   34 1   
    15    9   10 1   
    16    9   35 1   
    17    9   36 1   
    18   10   11 1   
    19   10   15 1   
    20   10   23 1   
    21   11   37 1   
    22   12   13 1   
    23   12   38 1   
    24   13   14 1   
    25   13   39 1   
    26   13   40 1   
    27   14   15 1   
    28   14   19 1   
    29   14   20 1   
    30   15   41 1   
    31   15   42 1   
    32   16   17 1   
    33   17   18 1   
    34   17   43 1   
    35   17   44 1   
    36   18   21 1   
    37   18   45 1   
    38   18   46 1   
    39   19   20 1   
    40   19   47 1   
    41   19   49 1   
    42   20   21 1   
    43   20   48 1   
    44   21   22 1   
    45   22   50 1   
    46   22   51 1   
    47   22   52 1   
    48   23   53 1   
    49   24   25 1   
    50   24   29 1   
    51   24   58 1   
    52   25   26 1   
    53   25   59 1   
    54   26   27 1   
    55   27   30 1   
    56   27   56 1   
    57   27   60 1   
    58   28   29 1   
    59   29   57 1   
    60   31   59 1   
    61   54   55 1   
@<TRIPOS>SUBSTRUCTURE
     1 P9A         1 TEMP              0 ****  ****    0 ROOT
