@<TRIPOS>MOLECULE
P9A
   60    64     1     0     0
SMALL
bcc


@<TRIPOS>ATOM
      1 O16         3.2890   -2.3560    0.0000 os        1 P9A     -0.408600
      2 O19         1.8730    3.4510    0.1740 o         1 P9A     -0.528100
      3 O20        -1.6080    0.4870    1.7530 o         1 P9A     -0.633100
      4 O32        -5.2930   -1.7320   -3.4910 o         1 P9A     -0.830800
      5 O33        -7.2480   -1.8380   -2.4330 o         1 P9A     -0.830800
      6 N28        -2.3610    1.1740   -0.3260 n         1 P9A     -0.414100
      7 C1         -1.3640    0.8340    0.5770 c         1 P9A      0.646100
      8 C2          0.0730    0.9980    0.0950 c3        1 P9A     -0.163400
      9 C3          1.0170    1.0500    1.2750 c3        1 P9A     -0.064400
     10 C4          2.5070    1.2420    0.9330 c3        1 P9A     -0.125000
     11 C5          2.7000    2.5350    0.1480 c         1 P9A      0.573100
     12 C6          3.9940    2.6960   -0.6020 c3        1 P9A     -0.178400
     13 C7          4.2710    1.5100   -1.4950 c3        1 P9A     -0.056400
     14 C8          4.2990    0.2240   -0.7100 c3        1 P9A     -0.056000
     15 C9          3.0170    0.0320    0.1430 c3        1 P9A     -0.070700
     16 C10         3.1320   -1.2810    0.9620 c3        1 P9A      0.139100
     17 C11         4.4550   -1.4050    1.7440 c3        1 P9A     -0.105400
     18 C12         5.4420   -1.4350    0.5700 c3        1 P9A     -0.094700
     19 C13         5.5860    0.0230    0.1150 c3        1 P9A     -0.072400
     20 C14         4.3870   -1.0230   -1.6280 c3        1 P9A     -0.095400
     21 C15         4.6040   -2.1310   -0.5770 c3        1 P9A      0.133800
     22 C17         5.1540   -3.4260   -1.0930 c3        1 P9A     -0.077100
     23 C18         3.2170    1.4620    2.2690 c3        1 P9A     -0.089100
     24 C22        -5.4910   -0.6170   -1.3730 ca        1 P9A     -0.235600
     25 C23        -4.1640   -0.1580   -1.3470 ca        1 P9A      0.187100
     26 C24        -3.6790    0.6490   -0.2690 ca        1 P9A     -0.132400
     27 C25        -4.5740    0.9480    0.7830 ca        1 P9A      0.164100
     28 C26        -5.8950    0.4740    0.7600 ca        1 P9A     -0.224000
     29 C27        -6.3370   -0.2900   -0.3120 ca        1 P9A     -0.041000
     30 HO30       -3.3100    1.6440    2.0530 ho        1 P9A      0.436000
     31 HO31       -3.6940   -0.9590   -3.0400 ho        1 P9A      0.496000
     32 HN28       -2.0520    1.2990   -1.2710 hn        1 P9A      0.311500
     33 H2          0.2900    0.1190   -0.5680 hc        1 P9A      0.071200
     34 H2A         0.1780    1.9340   -0.5150 hc        1 P9A      0.071200
     35 H3          0.7010    1.9070    1.9310 hc        1 P9A      0.065700
     36 H3A         0.9010    0.1110    1.8780 hc        1 P9A      0.065700
     37 H6          3.9580    3.6360   -1.2140 hc        1 P9A      0.065700
     38 H6A         4.8170    2.8100    0.1540 hc        1 P9A      0.065700
     39 H7          3.4800    1.4420   -2.2880 hc        1 P9A      0.049700
     40 H7A         5.2550    1.6570   -2.0150 hc        1 P9A      0.049700
     41 H9          2.2100   -0.1820   -0.6230 hc        1 P9A      0.072700
     42 H10         2.2130   -1.5080    1.5470 h1        1 P9A      0.098700
     43 H11         4.6520   -0.5720    2.4510 hc        1 P9A      0.057200
     44 H11A        4.4660   -2.3660    2.3120 hc        1 P9A      0.057200
     45 H12         6.4010   -1.9460    0.7830 hc        1 P9A      0.067700
     46 H13         6.4840    0.1590   -0.5370 hc        1 P9A      0.044700
     47 H13A        5.6720    0.7300    0.9700 hc        1 P9A      0.044700
     48 H14         3.4510   -1.1940   -2.2090 hc        1 P9A      0.058200
     49 H14A        5.2480   -0.9440   -2.3310 hc        1 P9A      0.058200
     50 H17         5.2670   -4.1580   -0.2580 hc        1 P9A      0.045700
     51 H17A        4.4600   -3.8610   -1.8530 hc        1 P9A      0.045700
     52 H17B        6.1500   -3.2510   -1.5650 hc        1 P9A      0.045700
     53 H18         3.0180    0.6010    2.9510 hc        1 P9A      0.042700
     54 H18A        4.3170    1.5800    2.1280 hc        1 P9A      0.042700
     55 H18B        2.8230    2.3890    2.7550 hc        1 P9A      0.042700
     56 H26        -6.5620    0.7260    1.5940 ha        1 P9A      0.131000
     57 H27        -7.3750   -0.6640   -0.3480 ha        1 P9A      0.159000
     58 C21        -6.0510   -1.4540   -2.5080 c         1 P9A      0.921200
     59 O31        -3.2580   -0.4210   -2.3400 oh        1 P9A     -0.573100
     60 O30        -4.2540    1.7460    1.8600 oh        1 P9A     -0.528100
@<TRIPOS>BOND
     1    1   16 1   
     2    1   21 1   
     3    2   11 2   
     4    3    7 2   
     5    4   58 1   
     6    5   58 1   
     7    6    7 1   
     8    6   26 1   
     9    6   32 1   
    10    7    8 1   
    11    8    9 1   
    12    8   33 1   
    13    8   34 1   
    14    9   10 1   
    15    9   35 1   
    16    9   36 1   
    17   10   11 1   
    18   10   15 1   
    19   10   23 1   
    20   11   12 1   
    21   12   13 1   
    22   12   37 1   
    23   12   38 1   
    24   13   14 1   
    25   13   39 1   
    26   13   40 1   
    27   14   15 1   
    28   14   19 1   
    29   14   20 1   
    30   15   16 1   
    31   15   41 1   
    32   16   17 1   
    33   16   42 1   
    34   17   18 1   
    35   17   43 1   
    36   17   44 1   
    37   18   19 1   
    38   18   21 1   
    39   18   45 1   
    40   19   46 1   
    41   19   47 1   
    42   20   21 1   
    43   20   48 1   
    44   20   49 1   
    45   21   22 1   
    46   22   50 1   
    47   22   51 1   
    48   22   52 1   
    49   23   53 1   
    50   23   54 1   
    51   23   55 1   
    52   24   25 ar  
    53   24   29 ar  
    54   24   58 1   
    55   25   26 ar  
    56   25   59 1   
    57   26   27 ar  
    58   27   28 ar  
    59   27   60 1   
    60   28   29 ar  
    61   28   56 1   
    62   29   57 1   
    63   30   60 1   
    64   31   59 1   
@<TRIPOS>SUBSTRUCTURE
     1 P9A         1 TEMP              0 ****  ****    0 ROOT
