@<TRIPOS>MOLECULE
P9B
   36    37     1     0     0
SMALL
bcc


@<TRIPOS>ATOM
      1 C1         -0.0930   -0.3900    0.1060 ca        1 P9B     -0.399500
      2 N1         -1.1820   -2.0880   -1.7520 n4        1 P9B     -0.813500
      3 O1         -2.5240   -1.0250    0.1060 o         1 P9B     -0.508800
      4 S1         -1.5390   -0.5720   -0.7350 sy        1 P9B      1.440200
      5 C2          0.9210    0.4430   -0.3900 ca        1 P9B      0.030000
      6 O2         -1.6530    0.3920   -1.7040 o         1 P9B     -0.508800
      7 C3          2.0520    0.7500    0.3730 ca        1 P9B     -0.107000
      8 C4          2.1670    0.2080    1.6650 ca        1 P9B      0.010600
      9 C5          1.1730   -0.6400    2.1830 ca        1 P9B     -0.107000
     10 C6          0.0560   -0.9290    1.3940 ca        1 P9B      0.030000
     11 N7          3.3760    0.4870    2.4770 n4        1 P9B     -0.525200
     12 C8          3.4770    1.9330    2.8780 c         1 P9B      0.482100
     13 O8          3.4250    2.8170    2.0430 o         1 P9B     -0.272100
     14 N9          3.6750    2.2710    4.3330 n4        1 P9B     -0.470200
     15 C10         4.9380    1.7990    4.8820 ca        1 P9B     -0.201400
     16 C11         6.0330    2.6930    5.0280 ca        1 P9B      0.142400
     17 F11         5.9470    3.9430    4.5430 f         1 P9B     -0.093400
     18 C12         7.2130    2.2740    5.7030 ca        1 P9B      0.137400
     19 F12         8.2340    3.1310    5.8390 f         1 P9B     -0.021400
     20 C13         7.3010    0.9590    6.2360 ca        1 P9B      0.225900
     21 F13         8.3950    0.5640    6.8840 f         1 P9B      0.004100
     22 C14         6.2040    0.0490    6.0680 ca        1 P9B      0.137400
     23 F14         6.2870   -1.1990    6.5500 f         1 P9B     -0.021400
     24 C15         5.0460    0.4700    5.3910 ca        1 P9B      0.142400
     25 F15         4.0050   -0.3820    5.2150 f         1 P9B     -0.093400
     26 HN1        -1.2790   -1.8820   -2.7550 hn        1 P9B      0.483800
     27 H2          0.8270    0.9050   -1.3980 ha        1 P9B      0.218000
     28 H3          2.8190    1.4250   -0.0560 ha        1 P9B      0.200000
     29 H5          1.2400   -1.0950    3.1890 ha        1 P9B      0.200000
     30 H6         -0.7380   -1.5790    1.8240 ha        1 P9B      0.218000
     31 HN7         3.3890   -0.1500    3.3000 hn        1 P9B      0.512300
     32 HN9         2.8940    1.8890    4.8990 hn        1 P9B      0.525800
     33 HN1A       -0.2570   -2.4940   -1.6230 hn        1 P9B      0.483800
     34 H13        -1.8630   -2.8320   -1.5450 hn        1 P9B      0.483800
     35 H72         4.2090    0.2780    1.8870 hn        1 P9B      0.512300
     36 H92         3.6530    3.3200    4.3970 hn        1 P9B      0.525800
@<TRIPOS>BOND
     1    1    4 1   
     2    1    5 ar  
     3    1   10 ar  
     4    2    4 1   
     5    2   26 1   
     6    2   33 1   
     7    2   34 1   
     8    3    4 2   
     9    4    6 2   
    10    5    7 ar  
    11    5   27 1   
    12    7    8 ar  
    13    7   28 1   
    14    8    9 ar  
    15    8   11 1   
    16    9   10 ar  
    17    9   29 1   
    18   10   30 1   
    19   11   12 1   
    20   11   31 1   
    21   11   35 1   
    22   12   13 2   
    23   12   14 1   
    24   14   15 1   
    25   14   32 1   
    26   14   36 1   
    27   15   16 ar  
    28   15   24 ar  
    29   16   17 1   
    30   16   18 ar  
    31   18   19 1   
    32   18   20 ar  
    33   20   21 1   
    34   20   22 ar  
    35   22   23 1   
    36   22   24 ar  
    37   24   25 1   
@<TRIPOS>SUBSTRUCTURE
     1 P9B         1 TEMP              0 ****  ****    0 ROOT
