@<TRIPOS>MOLECULE
P9B
   34    35     1     0     0
SMALL
bcc


@<TRIPOS>ATOM
      1 C1         -0.3710   -0.0300   -0.0380 ca        1 P9B     -0.639500
      2 N1         -0.7700   -1.8240   -1.9740 nz        1 P9B     -0.782500
      3 O1         -2.6460   -0.3610   -1.0340 o         1 P9B     -0.576800
      4 S1         -1.3200   -0.0800   -1.2930 sy        1 P9B      1.513200
      5 C2          0.9350    0.5230   -0.1140 ca        1 P9B      0.050000
      6 O2         -0.9440    0.6920   -2.3720 o         1 P9B     -0.576800
      7 C3          1.7580    0.6320    0.9800 ca        1 P9B     -0.213500
      8 C4          1.3160    0.1950    2.2650 ca        1 P9B      0.238600
      9 C5         -0.0090   -0.3460    2.3590 ca        1 P9B     -0.213500
     10 C6         -0.8050   -0.4500    1.2460 ca        1 P9B      0.050000
     11 N7          2.0740    0.2730    3.4080 ns        1 P9B     -0.452100
     12 C8          3.4410    0.6980    3.4660 c         1 P9B      0.778100
     13 O8          4.1360    0.7400    2.4340 o         1 P9B     -0.558100
     14 N9          3.9260    1.1000    4.7210 ns        1 P9B     -0.438100
     15 C10         5.3040    1.3620    4.8920 ca        1 P9B     -0.020400
     16 C11         5.9400    2.4230    4.1980 ca        1 P9B      0.127900
     17 F11         5.2590    3.1860    3.3190 f         1 P9B     -0.101900
     18 C12         7.3160    2.7000    4.4130 ca        1 P9B      0.088400
     19 F12         7.9060    3.7040    3.7350 f         1 P9B     -0.085400
     20 C13         8.0620    1.9350    5.3390 ca        1 P9B      0.122900
     21 F13         9.3640    2.2040    5.5470 f         1 P9B     -0.079900
     22 C14         7.4310    0.8840    6.0490 ca        1 P9B      0.088400
     23 F14         8.1310    0.1520    6.9380 f         1 P9B     -0.085400
     24 C15         6.0660    0.5960    5.8170 ca        1 P9B      0.127900
     25 F15         5.4820   -0.4130    6.5030 f         1 P9B     -0.101900
     26 HN1        -1.5660   -2.4560   -2.0020 hn        1 P9B      0.449133
     27 H2          1.2960    0.8990   -1.0920 ha        1 P9B      0.168500
     28 H3          2.7650    1.0730    0.8550 ha        1 P9B      0.189000
     29 H5         -0.4020   -0.6810    3.3340 ha        1 P9B      0.189000
     30 H6         -1.8290   -0.8600    1.3510 ha        1 P9B      0.168500
     31 HN7         1.6150    0.0400    4.2650 hn        1 P9B      0.341500
     32 HN9         3.4480    0.8180    5.5510 hn        1 P9B      0.336500
     33 HN1A       -0.4100   -1.7320   -2.9200 hn        1 P9B      0.449133
     34 H13        -0.0490   -2.2480   -1.4010 hn        1 P9B      0.449133
@<TRIPOS>BOND
     1    1    4 1   
     2    1    5 ar  
     3    1   10 ar  
     4    2    4 1   
     5    2   26 1   
     6    2   33 1   
     7    2   34 1   
     8    3    4 2   
     9    4    6 2   
    10    5    7 ar  
    11    5   27 1   
    12    7    8 ar  
    13    7   28 1   
    14    8    9 ar  
    15    8   11 1   
    16    9   10 ar  
    17    9   29 1   
    18   10   30 1   
    19   11   12 1   
    20   11   31 1   
    21   12   13 2   
    22   12   14 1   
    23   14   15 1   
    24   14   32 1   
    25   15   16 ar  
    26   15   24 ar  
    27   16   17 1   
    28   16   18 ar  
    29   18   19 1   
    30   18   20 ar  
    31   20   21 1   
    32   20   22 ar  
    33   22   23 1   
    34   22   24 ar  
    35   24   25 1   
@<TRIPOS>SUBSTRUCTURE
     1 P9B         1 TEMP              0 ****  ****    0 ROOT
