@<TRIPOS>MOLECULE
P9B
   33    29     1     0     0
SMALL
bcc


@<TRIPOS>ATOM
      1 C1         -2.3810    1.6060   -2.6470 c1        1 P9B     -0.861000
      2 N1         -4.0610    2.9840   -4.4140 n3        1 P9B     -0.953000
      3 O1         -2.7410    4.2360   -2.6370 o         1 P9B     -0.938500
      4 S1         -3.4370    3.0060   -2.8960 s6        1 P9B      2.871000
      5 C2         -2.7900    0.7420   -1.6450 c1        1 P9B      0.012000
      6 O2         -4.4760    3.0580   -1.9060 o         1 P9B     -0.938500
      7 C3         -1.9540    0.4810   -0.5700 c1        1 P9B     -0.184000
      8 C4         -0.7080    1.0850   -0.4980 c1        1 P9B      0.144000
      9 C5         -0.2990    1.9500   -1.5010 c2        1 P9B     -0.214000
     10 C6         -1.1350    2.2100   -2.5760 c1        1 P9B      0.011000
     11 N7          0.0900    0.9240    0.6670 n2        1 P9B     -0.317000
     12 C8          0.7780   -0.2990    0.8940 c2        1 P9B      0.399000
     13 O8          0.6840   -1.2080    0.0920 o         1 P9B     -0.340000
     14 N9          1.5770   -0.4590    2.0580 n         1 P9B     -0.306000
     15 C10         2.2640   -1.6800    2.2850 c2        1 P9B      0.020000
     16 C11         3.6500   -1.7080    2.2610 c2        1 P9B      0.047000
     17 F11         4.3350   -0.6220    1.8770 f         1 P9B     -0.082000
     18 C12         4.3260   -2.8700    2.5970 c1        1 P9B      0.053000
     19 F12         5.6650   -2.8800    2.6260 f         1 P9B     -0.063000
     20 C13         3.6170   -4.0040    2.9590 c1        1 P9B      0.063000
     21 F13         4.2720   -5.1040    3.3540 f         1 P9B     -0.060000
     22 C14         2.2320   -3.9770    2.9830 c1        1 P9B      0.049000
     23 F14         1.5480   -5.0600    3.3740 f         1 P9B     -0.060000
     24 C15         1.5550   -2.8150    2.6460 c2        1 P9B      0.112000
     25 F15         0.2170   -2.7910    2.6620 f         1 P9B     -0.053000
     26 HN1        -4.9650    3.0330   -4.5360 hn        1 P9B      0.242000
     27 H2         -3.6670    0.3160   -1.6950 ha        1 P9B      0.157000
     28 H3         -2.2430   -0.1280    0.1350 ha        1 P9B      0.183000
     29 H5          0.5780    2.3750   -1.4510 ha        1 P9B      0.138000
     30 H6         -0.8470    2.8190   -3.2820 ha        1 P9B      0.157000
     31 HN7         0.1700    1.6090    1.2630 hn        1 P9B      0.237000
     32 HN9         1.6470    0.2220    2.6600 hn        1 P9B      0.234000
     33 HN1A       -3.5030    2.9520   -5.1370 hn        1 P9B      0.242000
@<TRIPOS>BOND
     1    1    4 1   
     2    1    5 1   
     3    2    4 1   
     4    2   26 1   
     5    2   33 1   
     6    3    4 1   
     7    4    6 1   
     8    5   27 1   
     9    7    8 1   
    10    7   28 1   
    11    8    9 1   
    12    9   10 1   
    13    9   29 1   
    14   10   30 1   
    15   11   12 1   
    16   11   31 1   
    17   12   13 1   
    18   12   14 1   
    19   14   15 1   
    20   14   32 1   
    21   15   16 1   
    22   15   24 1   
    23   16   17 1   
    24   16   18 1   
    25   18   19 1   
    26   20   21 1   
    27   20   22 1   
    28   22   24 1   
    29   24   25 1   
@<TRIPOS>SUBSTRUCTURE
     1 P9B         1 TEMP              0 ****  ****    0 ROOT
