@<TRIPOS>MOLECULE
P9B
   34    35     1     0     0
SMALL
bcc


@<TRIPOS>ATOM
      1 C1         -0.3650   -0.0300   -0.0450 ca        1 P9B     -0.639500
      2 N1         -0.7660   -1.8340   -1.9720 n4        1 P9B     -0.782500
      3 O1         -2.6380   -0.3580   -1.0470 o         1 P9B     -0.576800
      4 S1         -1.3110   -0.0840   -1.3030 sy        1 P9B      1.513200
      5 C2          0.9430    0.5170   -0.1200 ca        1 P9B      0.050000
      6 O2         -0.9280    0.6800   -2.3850 o         1 P9B     -0.576800
      7 C3          1.7620    0.6290    0.9760 ca        1 P9B     -0.213500
      8 C4          1.3150    0.2010    2.2620 ca        1 P9B      0.238600
      9 C5         -0.0130   -0.3340    2.3550 ca        1 P9B     -0.213500
     10 C6         -0.8060   -0.4410    1.2400 ca        1 P9B      0.050000
     11 N7          2.0700    0.2820    3.4070 n         1 P9B     -0.452100
     12 C8          3.4380    0.7010    3.4660 c         1 P9B      0.778100
     13 O8          4.1370    0.7350    2.4380 o         1 P9B     -0.558100
     14 N9          3.9210    1.1080    4.7210 n         1 P9B     -0.438100
     15 C10         5.3000    1.3660    4.8960 ca        1 P9B     -0.020400
     16 C11         5.9420    2.4200    4.1970 ca        1 P9B      0.127900
     17 F11         5.2680    3.1810    3.3120 f         1 P9B     -0.101900
     18 C12         7.3190    2.6920    4.4150 ca        1 P9B      0.088400
     19 F12         7.9150    3.6900    3.7330 f         1 P9B     -0.085400
     20 C13         8.0590    1.9290    5.3480 ca        1 P9B      0.122900
     21 F13         9.3620    2.1940    5.5590 f         1 P9B     -0.079900
     22 C14         7.4210    0.8840    6.0620 ca        1 P9B      0.088400
     23 F14         8.1140    0.1550    6.9570 f         1 P9B     -0.085400
     24 C15         6.0550    0.6010    5.8270 ca        1 P9B      0.127900
     25 F15         5.4650   -0.4010    6.5170 f         1 P9B     -0.101900
     26 HN1        -1.5650   -2.4630   -1.9990 hn        1 P9B      0.449133
     27 H2          1.3080    0.8850   -1.0990 ha        1 P9B      0.168500
     28 H3          2.7730    1.0640    0.8520 ha        1 P9B      0.189000
     29 H5         -0.4100   -0.6610    3.3310 ha        1 P9B      0.189000
     30 H6         -1.8320   -0.8460    1.3440 ha        1 P9B      0.168500
     31 HN7         1.6070    0.0560    4.2640 hn        1 P9B      0.341500
     32 HN9         3.4390    0.8340    5.5510 hn        1 P9B      0.336500
     33 HN1A       -0.4030   -1.7490   -2.9180 hn        1 P9B      0.449133
     34 H13        -0.0490   -2.2570   -1.3950 hn        1 P9B      0.449133
@<TRIPOS>BOND
     1    1    4 1   
     2    1    5 ar  
     3    1   10 ar  
     4    2    4 1   
     5    2   26 1   
     6    2   33 1   
     7    2   34 1   
     8    3    4 2   
     9    4    6 2   
    10    5    7 ar  
    11    5   27 1   
    12    7    8 ar  
    13    7   28 1   
    14    8    9 ar  
    15    8   11 1   
    16    9   10 ar  
    17    9   29 1   
    18   10   30 1   
    19   11   12 1   
    20   11   31 1   
    21   12   13 2   
    22   12   14 1   
    23   14   15 1   
    24   14   32 1   
    25   15   16 ar  
    26   15   24 ar  
    27   16   17 1   
    28   16   18 ar  
    29   18   19 1   
    30   18   20 ar  
    31   20   21 1   
    32   20   22 ar  
    33   22   23 1   
    34   22   24 ar  
    35   24   25 1   
@<TRIPOS>SUBSTRUCTURE
     1 P9B         1 TEMP              0 ****  ****    0 ROOT
