@<TRIPOS>MOLECULE
P9B
   33    34     1     0     0
SMALL
bcc


@<TRIPOS>ATOM
      1 C1         -4.6760    0.1640    0.0310 ca        1 P9B     -0.416500
      2 N1         -6.6730    0.6280    1.5970 n3        1 P9B     -1.026700
      3 O1         -7.0520    0.1970   -0.7920 o         1 P9B     -0.659300
      4 S1         -6.2880   -0.2450    0.3100 sy        1 P9B      1.532200
      5 C2         -3.6350   -0.5280    0.6590 ca        1 P9B      0.011500
      6 O2         -6.3510   -1.6140    0.6470 o         1 P9B     -0.659300
      7 C3         -2.3010   -0.2160    0.4290 ca        1 P9B     -0.199000
      8 C4         -1.9660    0.8220   -0.4660 ca        1 P9B      0.136600
      9 C5         -3.0180    1.5170   -1.1210 ca        1 P9B     -0.199000
     10 C6         -4.3380    1.1840   -0.8660 ca        1 P9B      0.011500
     11 N7         -0.6520    1.2360   -0.7280 n         1 P9B     -0.463100
     12 C8          0.5110    0.5420   -0.3510 c         1 P9B      0.772100
     13 O8          0.5040   -0.4670    0.3800 o         1 P9B     -0.579100
     14 N9          1.7410    1.0440   -0.8750 n         1 P9B     -0.452100
     15 C10         2.9590    0.4890   -0.4360 ca        1 P9B      0.012600
     16 C11         3.2400   -0.8940   -0.6000 ca        1 P9B      0.114400
     17 F11         2.3330   -1.7310   -1.1420 f         1 P9B     -0.102400
     18 C12         4.4910   -1.4280   -0.1930 ca        1 P9B      0.085900
     19 F12         4.7320   -2.7470   -0.3430 f         1 P9B     -0.096400
     20 C13         5.4860   -0.5860    0.3540 ca        1 P9B      0.097900
     21 F13         6.6760   -1.0950    0.7310 f         1 P9B     -0.094900
     22 C14         5.2250    0.7970    0.5020 ca        1 P9B      0.085900
     23 F14         6.1690    1.6130    1.0150 f         1 P9B     -0.096400
     24 C15         3.9690    1.3230    0.1200 ca        1 P9B      0.114400
     25 F15         3.7440    2.6490    0.2770 f         1 P9B     -0.102400
     26 HN1        -7.0520    1.5390    1.5470 hn        1 P9B      0.446800
     27 H2         -3.8790   -1.3610    1.3450 ha        1 P9B      0.157000
     28 H3         -1.5190   -0.7960    0.9480 ha        1 P9B      0.160500
     29 H5         -2.7980    2.3230   -1.8380 ha        1 P9B      0.160500
     30 H6         -5.1450    1.7220   -1.3970 ha        1 P9B      0.157000
     31 HN7        -0.5670    1.9530   -1.4160 hn        1 P9B      0.323500
     32 HN9         1.7920    2.0210   -1.0790 hn        1 P9B      0.320500
     33 HN1A       -6.5840    0.3010    2.5260 hn        1 P9B      0.446800
@<TRIPOS>BOND
     1    1    4 1   
     2    1    5 ar  
     3    1   10 ar  
     4    2    4 1   
     5    2   26 1   
     6    2   33 1   
     7    3    4 2   
     8    4    6 2   
     9    5    7 ar  
    10    5   27 1   
    11    7    8 ar  
    12    7   28 1   
    13    8    9 ar  
    14    8   11 1   
    15    9   10 ar  
    16    9   29 1   
    17   10   30 1   
    18   11   12 1   
    19   11   31 1   
    20   12   13 2   
    21   12   14 1   
    22   14   15 1   
    23   14   32 1   
    24   15   16 ar  
    25   15   24 ar  
    26   16   17 1   
    27   16   18 ar  
    28   18   19 1   
    29   18   20 ar  
    30   20   21 1   
    31   20   22 ar  
    32   22   23 1   
    33   22   24 ar  
    34   24   25 1   
@<TRIPOS>SUBSTRUCTURE
     1 P9B         1 TEMP              0 ****  ****    0 ROOT
