@<TRIPOS>MOLECULE
P9C
   70    70     1     0     0
SMALL
bcc


@<TRIPOS>ATOM
      1 O16         0.2390   -0.3930    0.3550 os        1 P9C     -0.108000
      2 O19         6.5200    1.3380   -1.3400 o         1 P9C     -0.344000
      3 O20         9.0960    3.4630   -5.5690 o         1 P9C     -0.394000
      4 O32         3.6680   -1.1180   -6.5010 o         1 P9C     -0.584000
      5 O33         3.2100    0.2560   -4.8140 o         1 P9C     -0.584000
      6 N28         7.5450    2.4660   -4.1750 n         1 P9C     -0.287000
      7 C1          8.6410    3.2640   -4.4210 c2        1 P9C      0.304000
      8 C2          9.3060    3.8830   -3.2110 c3        1 P9C     -0.242000
      9 C3          3.3020   -0.1650   -1.6220 c2        1 P9C     -0.051000
     10 C4          4.4890    0.0990   -1.0460 c2        1 P9C     -0.223000
     11 C5          5.4670    0.8930   -1.8150 c2        1 P9C      0.222000
     12 C6         -1.7730   -7.2640   -1.1240 c1        1 P9C     -0.070000
     13 C7         -1.8060   -6.1010   -0.3340 c2        1 P9C     -0.241000
     14 C8         -0.8670   -5.1300   -0.3810 c2        1 P9C     -0.116000
     15 C9          2.2130   -0.9600   -1.0050 c3        1 P9C     -0.239000
     16 C10         1.1380   -0.0810   -0.4850 c1        1 P9C      0.027000
     17 C11         2.1580   -1.2190    2.4040 c3        1 P9C     -0.285000
     18 C12         1.0980   -2.0980    1.9780 c1        1 P9C     -0.056000
     19 C13        -0.7480   -4.0590    0.6310 c3        1 P9C     -0.142000
     20 C14        -0.2340   -2.7750    0.0100 c3        1 P9C     -0.142000
     21 C15         0.0340   -1.6920    1.0560 c3        1 P9C     -0.086000
     22 C17        -1.2140   -1.4180    1.9050 c3        1 P9C     -0.182000
     23 C18         4.8830   -0.3530    0.3060 c3        1 P9C     -0.175000
     24 C22         4.9230    0.9240   -6.3220 cx        1 P9C     -0.186000
     25 C23         5.4040    1.8870   -5.2810 c2        1 P9C      0.084000
     26 C24         6.7780    1.8490   -5.1610 c2        1 P9C     -0.170000
     27 C25         7.4430    0.9940   -6.2790 c3        1 P9C      0.185000
     28 C26         6.2400    0.6780   -7.0780 cu        1 P9C     -0.186000
     29 C27         5.2240    1.1450   -7.7740 cu        1 P9C     -0.068000
     30 C34         0.6820   -4.6170   -4.0620 c2        1 P9C     -0.339000
     31 C35         2.2000   -3.5250   -5.4280 c2        1 P9C     -0.089000
     32 C36        -0.0470   -5.5660   -3.5220 c1        1 P9C      0.169000
     33 C37         0.7270   -3.1770   -3.6850 c2        1 P9C     -0.177000
     34 C38         1.6240   -2.5410   -4.4910 c2        1 P9C     -0.089000
     35 C39         1.6520   -4.7480   -5.1830 c2        1 P9C     -0.177000
     36 HO30        7.5030   -0.6450   -5.2630 ho        1 P9C      0.209000
     37 HO31        3.7000    2.1550   -4.5000 ho        1 P9C      0.273000
     38 HN28        7.1910    2.4060   -3.2430 hn        1 P9C      0.246000
     39 H2         10.1950    4.4670   -3.5500 hc        1 P9C      0.097333
     40 H2A         9.6390    3.0910   -2.4990 hc        1 P9C      0.097333
     41 H3          3.0790    0.2000   -2.6510 ha        1 P9C      0.201000
     42 H3A         8.5980    4.5680   -2.6860 hc        1 P9C      0.097333
     43 H6         -1.5700   -7.1870   -2.2010 ha        1 P9C      0.091000
     44 H6A         5.1890    1.0790   -2.8820 h4        1 P9C      0.138000
     45 H7         -2.5910   -6.0780    0.4470 ha        1 P9C      0.143000
     46 H9          1.7660   -1.6090   -1.8210 hc        1 P9C      0.116000
     47 H10         2.6090   -1.6440   -0.2020 hc        1 P9C      0.116000
     48 H11         3.1380   -1.7030    2.1310 hc        1 P9C      0.118667
     49 H11A        2.1440   -0.1780    1.9840 hc        1 P9C      0.118667
     50 H12         2.1250   -1.1600    3.5260 hc        1 P9C      0.118667
     51 H13        -1.7420   -3.8740    1.1210 hc        1 P9C      0.105000
     52 H13A       -0.0340   -4.3810    1.4420 hc        1 P9C      0.105000
     53 H14        -0.9830   -2.3760   -0.7250 hc        1 P9C      0.095500
     54 H14A       -0.0840   -5.1490   -1.1620 ha        1 P9C      0.134000
     55 H17        -1.0910   -0.4560    2.4570 hc        1 P9C      0.092000
     56 H17A       -1.3750   -2.2490    2.6310 hc        1 P9C      0.092000
     57 H17B       -2.0990   -1.3330    1.2310 hc        1 P9C      0.092000
     58 H18         4.2020    0.0830    1.0810 hc        1 P9C      0.077333
     59 H18A        5.9290   -0.0310    0.5390 hc        1 P9C      0.077333
     60 H18B        4.8310   -1.4680    0.3820 hc        1 P9C      0.077333
     61 H26         8.2130    1.5890   -6.8450 h1        1 P9C      0.154000
     62 H27         4.7550    1.3870   -8.7040 ha        1 P9C      0.185000
     63 H34         1.8410   -5.6970   -5.6770 ha        1 P9C      0.134500
     64 H35         2.9440   -3.2280   -6.1760 ha        1 P9C      0.213500
     65 H36         0.1010   -2.7720   -2.8940 ha        1 P9C      0.134500
     66 H37         0.7140   -2.9880   -0.5510 hc        1 P9C      0.095500
     67 H38         1.9370   -1.4840   -4.5140 ha        1 P9C      0.213500
     68 C21         3.8730   -0.0550   -5.8600 c2        1 P9C      0.372000
     69 O31         4.5860    2.5750   -4.4440 oh        1 P9C     -0.279000
     70 O30         8.1360   -0.1170   -5.7660 oh        1 P9C     -0.312000
@<TRIPOS>BOND
     1    1   16 1   
     2    1   21 1   
     3    2   11 1   
     4    3    7 1   
     5    4   68 1   
     6    5   68 1   
     7    6    7 1   
     8    6   26 1   
     9    6   38 1   
    10    7    8 1   
    11    8   39 1   
    12    8   40 1   
    13    8   42 1   
    14    9   10 1   
    15    9   15 1   
    16    9   41 1   
    17   10   11 1   
    18   10   23 1   
    19   11   44 1   
    20   12   13 1   
    21   12   43 1   
    22   13   14 1   
    23   13   45 1   
    24   14   19 1   
    25   14   54 1   
    26   15   16 1   
    27   15   46 1   
    28   15   47 1   
    29   17   18 1   
    30   17   48 1   
    31   17   49 1   
    32   17   50 1   
    33   18   21 1   
    34   19   20 1   
    35   19   51 1   
    36   19   52 1   
    37   20   21 1   
    38   20   53 1   
    39   20   66 1   
    40   21   22 1   
    41   22   55 1   
    42   22   56 1   
    43   22   57 1   
    44   23   58 1   
    45   23   59 1   
    46   23   60 1   
    47   24   25 1   
    48   24   28 1   
    49   24   29 1   
    50   24   68 1   
    51   25   26 1   
    52   25   69 1   
    53   26   27 1   
    54   27   28 1   
    55   27   61 1   
    56   27   70 1   
    57   28   29 1   
    58   29   62 1   
    59   30   32 1   
    60   30   33 1   
    61   30   35 1   
    62   31   34 1   
    63   31   35 1   
    64   31   64 1   
    65   33   34 1   
    66   33   65 1   
    67   34   67 1   
    68   35   63 1   
    69   36   70 1   
    70   37   69 1   
@<TRIPOS>SUBSTRUCTURE
     1 P9C         1 TEMP              0 ****  ****    0 ROOT
