@<TRIPOS>MOLECULE
P9C
   70    71     1     0     0
SMALL
bcc


@<TRIPOS>ATOM
      1 O16        -1.9300    2.1570    2.6140 os        1 P9C     -0.267000
      2 O19        -1.5240   -1.4180    0.6000 o         1 P9C     -0.303000
      3 O20         0.5290   -1.7830   -2.9270 o         1 P9C     -0.394000
      4 O30        -2.6380   -0.4080   -5.5170 oh        1 P9C     -0.280000
      5 O31         2.0860   -1.5070   -5.4420 oh        1 P9C     -0.329000
      6 O32         2.0740   -4.4670   -7.4160 o         1 P9C     -0.564000
      7 O33         2.5620   -2.6620   -8.5490 o         1 P9C     -0.564000
      8 N28        -0.0830   -0.0550   -4.3820 n         1 P9C     -0.261000
      9 C1          0.3400   -0.5920   -3.0620 c2        1 P9C      0.286000
     10 C2          0.6390    0.3800   -1.8810 c3        1 P9C     -0.201000
     11 C3         -0.6910    1.0520   -1.4090 c3        1 P9C     -0.148000
     12 C4         -0.9220    0.7380    0.1540 c3        1 P9C     -0.079000
     13 C5         -0.6210   -0.6070    0.4430 c2        1 P9C      0.245000
     14 C6          0.7390   -0.9170    0.9100 c3        1 P9C     -0.223000
     15 C7          1.1800   -0.0090    2.1730 c3        1 P9C     -0.039000
     16 C8          0.6650    1.0130    2.2800 c3        1 P9C     -0.049000
     17 C9         -0.1620    1.6530    0.9910 c3        1 P9C     -0.103000
     18 C10        -1.1640    2.7900    1.6670 c3        1 P9C      0.025000
     19 C11        -0.4110    3.5070    2.3110 c3        1 P9C     -0.187000
     20 C12         0.0390    2.6870    3.2890 c3        1 P9C     -0.132000
     21 C13         1.1160    1.5400    2.5690 c3        1 P9C     -0.161000
     22 C14        -0.6150    0.8370    3.5160 c3        1 P9C     -0.172000
     23 C15        -1.0230    1.9220    3.6260 c3        1 P9C      0.062000
     24 C17        -1.5590    2.2250    4.9920 c3        1 P9C     -0.195000
     25 C18        -2.5500    1.0220    0.3070 c3        1 P9C     -0.210000
     26 C21         1.8350   -3.2670   -7.7060 c2        1 P9C      0.370000
     27 C22         0.6250   -2.5520   -7.0830 c2        1 P9C     -0.214000
     28 C23         0.8120   -1.6650   -6.0060 c2        1 P9C      0.143000
     29 C24        -0.2710   -0.9470   -5.4970 c2        1 P9C     -0.129000
     30 C25        -1.5350   -1.1080   -6.0540 c2        1 P9C      0.120000
     31 C26        -1.7210   -1.9910   -7.1270 c1        1 P9C     -0.222000
     32 C27        -0.6340   -2.7120   -7.6380 c1        1 P9C     -0.040000
     33 C34         0.5180   -2.2600    3.7270 c1        1 P9C     -0.124000
     34 C35         1.8480   -0.3850    4.4420 c1        1 P9C     -0.131000
     35 C36         1.1620   -3.0670    4.6550 c1        1 P9C     -0.131000
     36 C37         2.1550   -2.5280    5.4810 c1        1 P9C     -0.131000
     37 C38         2.4930   -1.1940    5.3730 c1        1 P9C     -0.131000
     38 C39         0.8590   -0.9200    3.6190 c1        1 P9C     -0.062000
     39 HO30       -3.3130   -0.4060   -6.1130 ho        1 P9C      0.234000
     40 HO31        2.6520   -1.2110   -6.0650 ho        1 P9C      0.296000
     41 HN28       -0.1980    0.8470   -4.4940 hn        1 P9C      0.226000
     42 H2          1.0240   -0.1110   -1.1530 hc        1 P9C      0.107500
     43 H2A         1.2600    1.0630   -2.1750 hc        1 P9C      0.107500
     44 H3         -0.6340    2.0090   -1.5430 hc        1 P9C      0.098500
     45 H3A        -1.4460    0.6910   -1.9340 hc        1 P9C      0.098500
     46 H6          0.8150   -1.8920    1.0910 hc        1 P9C      0.135500
     47 H6A         1.3870   -0.8150    0.1950 hc        1 P9C      0.135500
     48 H7          2.1660    0.1480    2.1140 hc        1 P9C      0.098000
     49 H9          0.4960    2.1250    0.4090 hc        1 P9C      0.097000
     50 H10        -1.6800    3.2720    1.0210 h1        1 P9C      0.128000
     51 H11         0.3170    3.8120    1.7630 hc        1 P9C      0.095500
     52 H11A       -0.9180    4.2960    2.7090 hc        1 P9C      0.095500
     53 H12         0.4260    3.1610    4.0420 hc        1 P9C      0.108000
     54 H13         1.6450    1.9630    1.8600 hc        1 P9C      0.091500
     55 H13A        1.7130    1.1430    3.2610 hc        1 P9C      0.091500
     56 H14        -1.3100    0.2400    3.2060 hc        1 P9C      0.104500
     57 H14A       -0.2350    0.5190    4.3670 hc        1 P9C      0.104500
     58 H17        -2.5290    2.1060    4.9940 hc        1 P9C      0.083667
     59 H17A       -1.1520    1.6150    5.6490 hc        1 P9C      0.083667
     60 H17B       -1.3390    3.1700    5.2340 hc        1 P9C      0.083667
     61 H18        -3.0440    0.5200   -0.4050 hc        1 P9C      0.089000
     62 H18A       -2.8520    0.7210    1.1870 hc        1 P9C      0.089000
     63 H18B       -2.7290    1.9960    0.2110 hc        1 P9C      0.089000
     64 H26        -2.5980   -2.1660   -7.4490 ha        1 P9C      0.133000
     65 H27        -0.7640   -3.3340   -8.3940 ha        1 P9C      0.160000
     66 H34        -0.1610   -2.6270    3.1630 ha        1 P9C      0.141000
     67 H35         2.0560    0.5420    4.3930 ha        1 P9C      0.129500
     68 H36         0.9240   -4.0010    4.7300 ha        1 P9C      0.129500
     69 H37         2.6000   -3.0860    6.1230 ha        1 P9C      0.129500
     70 H38         3.1940   -0.8130    5.9570 ha        1 P9C      0.129500
@<TRIPOS>BOND
     1    1   18 1   
     2    1   23 1   
     3    2   13 1   
     4    3    9 1   
     5    4   30 1   
     6    4   39 1   
     7    5   28 1   
     8    5   40 1   
     9    6   26 1   
    10    7   26 1   
    11    8    9 1   
    12    8   29 1   
    13    8   41 1   
    14    9   10 1   
    15   10   11 1   
    16   10   42 1   
    17   10   43 1   
    18   11   12 1   
    19   11   44 1   
    20   11   45 1   
    21   12   13 1   
    22   12   17 1   
    23   12   25 1   
    24   13   14 1   
    25   14   15 1   
    26   14   46 1   
    27   14   47 1   
    28   15   16 1   
    29   15   38 1   
    30   15   48 1   
    31   16   17 1   
    32   16   21 1   
    33   16   22 1   
    34   17   18 1   
    35   17   49 1   
    36   18   19 1   
    37   18   50 1   
    38   19   20 1   
    39   19   51 1   
    40   19   52 1   
    41   20   21 1   
    42   20   23 1   
    43   20   53 1   
    44   21   54 1   
    45   21   55 1   
    46   22   23 1   
    47   22   56 1   
    48   22   57 1   
    49   23   24 1   
    50   24   58 1   
    51   24   59 1   
    52   24   60 1   
    53   25   61 1   
    54   25   62 1   
    55   25   63 1   
    56   26   27 1   
    57   27   28 1   
    58   27   32 1   
    59   28   29 1   
    60   29   30 1   
    61   30   31 1   
    62   31   64 1   
    63   32   65 1   
    64   33   38 1   
    65   33   66 1   
    66   34   37 1   
    67   34   67 1   
    68   35   36 1   
    69   35   68 1   
    70   36   69 1   
    71   37   70 1   
@<TRIPOS>SUBSTRUCTURE
     1 P9C         1 TEMP              0 ****  ****    0 ROOT
