@<TRIPOS>MOLECULE
P9C
   70    75     1     0     0
SMALL
bcc


@<TRIPOS>ATOM
      1 O16         3.2440   -1.4940   -2.3960 os        1 P9C     -0.410600
      2 O19         0.2520   -0.4410    2.6390 o         1 P9C     -0.533100
      3 O20        -2.9240   -3.5070    0.6450 o         1 P9C     -0.619100
      4 O32        -4.7050    3.2350   -1.9180 o         1 P9C     -0.836800
      5 O33        -2.5830    2.9540   -1.3160 o         1 P9C     -0.836800
      6 N28        -2.6790   -1.3820    1.5400 n         1 P9C     -0.417100
      7 C1         -2.1880   -2.6190    1.1200 c         1 P9C      0.644100
      8 C2         -0.7130   -2.8880    1.3840 c3        1 P9C     -0.162400
      9 C3          0.1380   -2.0730    0.4290 c3        1 P9C     -0.081400
     10 C4          1.5180   -1.6720    0.9870 c3        1 P9C     -0.126000
     11 C5          1.3220   -0.5810    2.0380 c         1 P9C      0.579100
     12 C6          2.5060    0.2740    2.3820 c3        1 P9C     -0.171400
     13 C7          3.2100    0.8840    1.1830 c3        1 P9C      0.013600
     14 C8          3.5190   -0.1700    0.1320 c3        1 P9C     -0.044000
     15 C9          2.3370   -1.1200   -0.1910 c3        1 P9C     -0.072700
     16 C10         2.8000   -2.1970   -1.2080 c3        1 P9C      0.139100
     17 C11         4.1020   -2.9140   -0.8000 c3        1 P9C     -0.106400
     18 C12         5.0650   -1.7220   -0.8350 c3        1 P9C     -0.094700
     19 C13         4.8130   -0.9500    0.4650 c3        1 P9C     -0.076400
     20 C14         3.9440    0.4480   -1.2270 c3        1 P9C     -0.090400
     21 C15         4.4510   -0.8040   -1.9680 c3        1 P9C      0.131800
     22 C17         5.3330   -0.5550   -3.1540 c3        1 P9C     -0.076100
     23 C18         2.1480   -2.8650    1.6880 c3        1 P9C     -0.088100
     24 C22        -4.1810    1.3060   -0.6100 ca        1 P9C     -0.236600
     25 C23        -3.2390    0.4890    0.0360 ca        1 P9C      0.185100
     26 C24        -3.6390   -0.6720    0.7680 ca        1 P9C     -0.138400
     27 C25        -5.0040   -1.0300    0.7380 ca        1 P9C      0.170100
     28 C26        -5.9420   -0.2290    0.0690 ca        1 P9C     -0.225000
     29 C27        -5.5260    0.9290   -0.5770 ca        1 P9C     -0.039000
     30 C34         3.2440    3.2630    0.4450 ca        1 P9C     -0.134000
     31 C35         1.1420    2.0850    0.3060 ca        1 P9C     -0.134000
     32 C36         2.6380    4.4080   -0.0650 ca        1 P9C     -0.126500
     33 C37         1.2840    4.3940   -0.3960 ca        1 P9C     -0.126000
     34 C38         0.5350    3.2320   -0.2100 ca        1 P9C     -0.126500
     35 C39         2.5020    2.0860    0.6330 ca        1 P9C     -0.097300
     36 HO30       -4.7980   -2.7940    1.4670 ho        1 P9C      0.438000
     37 HO31       -1.7240    1.5730   -0.4680 ho        1 P9C      0.489000
     38 HN28       -1.9670   -0.7630    1.8940 hn        1 P9C      0.321500
     39 H2         -0.4820   -2.6280    2.4520 hc        1 P9C      0.066700
     40 H2A        -0.5180   -3.9820    1.2440 hc        1 P9C      0.066700
     41 H3          0.2790   -2.6680   -0.5110 hc        1 P9C      0.070700
     42 H3A        -0.3970   -1.1230    0.1430 hc        1 P9C      0.070700
     43 H6          2.1780    1.0930    3.0770 hc        1 P9C      0.068200
     44 H6A         3.2340   -0.3810    2.9350 hc        1 P9C      0.068200
     45 H7          4.2110    1.2520    1.5720 hc        1 P9C      0.046700
     46 H9          1.6060   -0.4700   -0.7700 hc        1 P9C      0.086700
     47 H10         1.9780   -2.8740   -1.5330 h1        1 P9C      0.089700
     48 H11         4.0630   -3.4100    0.1930 hc        1 P9C      0.054200
     49 H11A        4.3680   -3.6780   -1.5700 hc        1 P9C      0.054200
     50 H12         6.1250   -1.9880   -1.0130 hc        1 P9C      0.064700
     51 H13         5.6480   -0.2370    0.6760 hc        1 P9C      0.042700
     52 H13A        4.7040   -1.6190    1.3480 hc        1 P9C      0.042700
     53 H14         3.0890    0.9210   -1.7640 hc        1 P9C      0.067200
     54 H14A        4.7500    1.2040   -1.0860 hc        1 P9C      0.067200
     55 H17         4.7860    0.0520   -3.9150 hc        1 P9C      0.044033
     56 H17A        6.2470   -0.0010   -2.8320 hc        1 P9C      0.044033
     57 H17B        5.6360   -1.5220   -3.6220 hc        1 P9C      0.044033
     58 H18         2.1550   -3.7450    1.0000 hc        1 P9C      0.040367
     59 H18A        3.1900   -2.6390    2.0150 hc        1 P9C      0.040367
     60 H18B        1.5570   -3.1390    2.5970 hc        1 P9C      0.040367
     61 H26        -6.9970   -0.5310    0.0730 ha        1 P9C      0.132000
     62 H27        -6.2540    1.5780   -1.0940 ha        1 P9C      0.158000
     63 H34         4.3140    3.2820    0.6980 ha        1 P9C      0.129500
     64 H35         0.5290    1.1800    0.4590 ha        1 P9C      0.129500
     65 H36         3.2310    5.3230   -0.2070 ha        1 P9C      0.160500
     66 H37         0.8010    5.2940   -0.8040 ha        1 P9C      0.138000
     67 H38        -0.5410    3.2240   -0.4800 ha        1 P9C      0.160500
     68 C21        -3.8020    2.5820   -1.3320 c         1 P9C      0.926200
     69 O31        -1.8920    0.7400    0.0260 oh        1 P9C     -0.575100
     70 O30        -5.5110   -2.1450    1.3690 oh        1 P9C     -0.524100
@<TRIPOS>BOND
     1    1   16 1   
     2    1   21 1   
     3    2   11 2   
     4    3    7 2   
     5    4   68 1   
     6    5   68 1   
     7    6    7 1   
     8    6   26 1   
     9    6   38 1   
    10    7    8 1   
    11    8    9 1   
    12    8   39 1   
    13    8   40 1   
    14    9   10 1   
    15    9   41 1   
    16    9   42 1   
    17   10   11 1   
    18   10   15 1   
    19   10   23 1   
    20   11   12 1   
    21   12   13 1   
    22   12   43 1   
    23   12   44 1   
    24   13   14 1   
    25   13   35 1   
    26   13   45 1   
    27   14   15 1   
    28   14   19 1   
    29   14   20 1   
    30   15   16 1   
    31   15   46 1   
    32   16   17 1   
    33   16   47 1   
    34   17   18 1   
    35   17   48 1   
    36   17   49 1   
    37   18   19 1   
    38   18   21 1   
    39   18   50 1   
    40   19   51 1   
    41   19   52 1   
    42   20   21 1   
    43   20   53 1   
    44   20   54 1   
    45   21   22 1   
    46   22   55 1   
    47   22   56 1   
    48   22   57 1   
    49   23   58 1   
    50   23   59 1   
    51   23   60 1   
    52   24   25 ar  
    53   24   29 ar  
    54   24   68 1   
    55   25   26 ar  
    56   25   69 1   
    57   26   27 ar  
    58   27   28 ar  
    59   27   70 1   
    60   28   29 ar  
    61   28   61 1   
    62   29   62 1   
    63   30   32 ar  
    64   30   35 ar  
    65   30   63 1   
    66   31   34 ar  
    67   31   35 ar  
    68   31   64 1   
    69   32   33 ar  
    70   32   65 1   
    71   33   34 ar  
    72   33   66 1   
    73   34   67 1   
    74   36   70 1   
    75   37   69 1   
@<TRIPOS>SUBSTRUCTURE
     1 P9C         1 TEMP              0 ****  ****    0 ROOT
