@<TRIPOS>MOLECULE
P9C
   70    70     1     0     0
SMALL
bcc


@<TRIPOS>ATOM
      1 O16        -1.4890   -0.7460    3.2100 os        1 P9C     -0.126000
      2 O19         3.8650   -1.4160    1.4080 o         1 P9C     -0.331000
      3 O20         7.5330   -1.6300   -3.5570 o         1 P9C     -0.396000
      4 O32         2.8730   -1.0440   -9.1560 os        1 P9C     -0.204000
      5 O33         4.7950   -1.3070  -10.2870 o         1 P9C     -0.353000
      6 N28         7.8750   -1.2580   -5.8200 ns        1 P9C     -0.305000
      7 C1          8.1460   -1.8590   -4.6170 c2        1 P9C      0.259000
      8 C2          6.9950   -0.4860   -0.2310 c1        1 P9C     -0.070000
      9 C3          5.9540   -0.1330   -1.1660 c3        1 P9C     -0.252000
     10 C4          4.5520   -0.1540   -0.5490 c3        1 P9C     -0.093000
     11 C5          4.4190   -1.3960    0.3070 c2        1 P9C      0.241000
     12 C6          2.1820   -0.6500   -1.2150 c2        1 P9C     -0.213000
     13 C7          1.2600   -1.2700   -1.9690 c2        1 P9C     -0.056000
     14 C8         -0.0710   -1.6160   -1.3780 c3        1 P9C     -0.108000
     15 C9          3.5170   -0.2160   -1.6810 c3        1 P9C     -0.113000
     16 C10        -0.8100   -0.0330    4.0500 c1        1 P9C      0.015000
     17 C11         0.6480   -0.3960    4.0300 c3        1 P9C     -0.270000
     18 C12         0.7680   -1.5420    3.0220 c3        1 P9C     -0.199000
     19 C13         0.0150   -1.9330    0.0700 c2        1 P9C     -0.121000
     20 C14        -0.7690   -1.3930    1.0070 c2        1 P9C     -0.206000
     21 C15        -0.6490   -1.7360    2.4530 c3        1 P9C      0.038000
     22 C17        -1.2260   -3.1030    2.7570 c3        1 P9C     -0.205000
     23 C18         4.3540    1.0980    0.2870 c3        1 P9C     -0.197000
     24 C22         4.7960   -0.9320   -7.8190 c2        1 P9C     -0.249000
     25 C23         6.1140   -0.9020   -7.5070 c2        1 P9C      0.180000
     26 C24         6.6770   -0.5910   -6.1740 c2        1 P9C     -0.130000
     27 C25         6.0440    0.3630   -5.4330 c2        1 P9C      0.070000
     28 C26         2.5090   -0.8490   -7.8000 c2        1 P9C     -0.009000
     29 C27         3.5990   -0.7850   -6.9870 c2        1 P9C     -0.208000
     30 C34         2.4990   -2.5610   -3.6110 c1        1 P9C     -0.090000
     31 C35         1.5620   -0.4100   -4.2710 c2        1 P9C     -0.579000
     32 C36         3.3820   -3.3500   -3.7950 c1        1 P9C     -0.340000
     33 C37        -0.0840    0.1480   -6.1630 c1        1 P9C     -0.588000
     34 C38         0.6690   -0.1030   -5.2420 c1        1 P9C      0.028000
     35 C39         1.4110   -1.6120   -3.4360 c3        1 P9C      0.154000
     36 HO30        7.1030    0.3350   -3.8160 ho        1 P9C      0.239000
     37 HO31        6.6860   -1.3170   -9.3080 ho        1 P9C      0.259000
     38 HN28        8.4040   -1.5650   -6.6110 hn        1 P9C      0.241000
     39 H2          8.0070   -0.1380   -0.4970 ha        1 P9C      0.025000
     40 H2A         9.0360   -2.5330   -4.6490 h5        1 P9C      0.123000
     41 H3          6.0300   -0.9430   -1.9670 hc        1 P9C      0.139000
     42 H3A         6.0960    0.8440   -1.7070 hc        1 P9C      0.139000
     43 H6          1.9600   -0.4070   -0.1600 ha        1 P9C      0.111000
     44 H6A         4.8550   -2.3150   -0.1430 h4        1 P9C      0.091000
     45 H7          3.4330    0.8070   -2.1420 hc        1 P9C      0.105500
     46 H9         -0.7750   -0.7600   -1.5670 hc        1 P9C      0.099500
     47 H10         3.8830   -0.9090   -2.4880 hc        1 P9C      0.105500
     48 H11         1.2530    0.4930    3.7190 hc        1 P9C      0.122500
     49 H11A        0.9840   -0.6970    5.0520 hc        1 P9C      0.122500
     50 H12         1.1190   -2.4770    3.5220 hc        1 P9C      0.115500
     51 H13         0.8020   -2.6600    0.3390 ha        1 P9C      0.124000
     52 H13A        1.4980   -1.2920    2.2100 hc        1 P9C      0.115500
     53 H14        -1.5550   -0.6590    0.7650 ha        1 P9C      0.142000
     54 H14A       -0.4990   -2.5160   -1.9020 hc        1 P9C      0.099500
     55 H17        -1.1610   -3.3200    3.8500 hc        1 P9C      0.083667
     56 H17A       -2.2970   -3.1440    2.4470 hc        1 P9C      0.083667
     57 H17B       -0.6530   -3.8780    2.1930 hc        1 P9C      0.083667
     58 H18         5.1300    1.1480    1.0890 hc        1 P9C      0.077667
     59 H18A        4.4300    2.0100   -0.3520 hc        1 P9C      0.077667
     60 H18B        3.3470    1.0770    0.7700 hc        1 P9C      0.077667
     61 H26         5.1160    0.8600   -5.7850 h4        1 P9C      0.205000
     62 H27         3.5600   -0.6880   -5.8960 ha        1 P9C      0.212000
     63 H34         0.4720   -2.1610   -3.7660 hc        1 P9C      0.085000
     64 H35         2.3770    0.2770   -4.0350 ha        1 P9C      0.097000
     65 H36        -0.8050    0.4300   -6.8740 ha        1 P9C      0.180000
     66 H37         4.1620   -4.0420   -3.9650 ha        1 P9C      0.196000
     67 H38         1.4280   -0.7590   -7.6140 h4        1 P9C      0.250000
     68 C21         4.2620   -1.1190   -9.1930 c2        1 P9C      0.329000
     69 O31         7.0960   -1.1360   -8.4430 oh        1 P9C     -0.286000
     70 O30         6.4020    0.8650   -4.2280 oh        1 P9C     -0.246000
@<TRIPOS>BOND
     1    1   16 1   
     2    1   21 1   
     3    2   11 1   
     4    3    7 1   
     5    4   28 1   
     6    4   68 1   
     7    5   68 1   
     8    6    7 1   
     9    6   26 1   
    10    6   38 1   
    11    7   40 1   
    12    8    9 1   
    13    8   39 1   
    14    9   10 1   
    15    9   41 1   
    16    9   42 1   
    17   10   11 1   
    18   10   15 1   
    19   10   23 1   
    20   11   44 1   
    21   12   13 1   
    22   12   15 1   
    23   12   43 1   
    24   13   14 1   
    25   13   35 1   
    26   14   19 1   
    27   14   46 1   
    28   14   54 1   
    29   15   45 1   
    30   15   47 1   
    31   16   17 1   
    32   17   18 1   
    33   17   48 1   
    34   17   49 1   
    35   18   21 1   
    36   18   50 1   
    37   18   52 1   
    38   19   20 1   
    39   19   51 1   
    40   20   21 1   
    41   20   53 1   
    42   21   22 1   
    43   22   55 1   
    44   22   56 1   
    45   22   57 1   
    46   23   58 1   
    47   23   59 1   
    48   23   60 1   
    49   24   25 1   
    50   24   29 1   
    51   24   68 1   
    52   25   26 1   
    53   25   69 1   
    54   26   27 1   
    55   27   61 1   
    56   27   70 1   
    57   28   29 1   
    58   28   67 1   
    59   29   62 1   
    60   30   32 1   
    61   30   35 1   
    62   31   34 1   
    63   31   35 1   
    64   31   64 1   
    65   32   66 1   
    66   33   34 1   
    67   33   65 1   
    68   35   63 1   
    69   36   70 1   
    70   37   69 1   
@<TRIPOS>SUBSTRUCTURE
     1 P9C         1 TEMP              0 ****  ****    0 ROOT
