@<TRIPOS>MOLECULE
P9I
   31    33     1     0     0
SMALL
bcc


@<TRIPOS>ATOM
      1 O          -0.0040    0.2100    0.0500 oh        1 P9I     -0.489100
      2 C2          1.3570    0.2330    0.0620 c2        1 P9I      0.236900
      3 C1          2.0410    0.3740    1.3690 c3        1 P9I     -0.125900
      4 C3          2.0160    0.1320   -1.1360 cc        1 P9I     -0.164100
      5 N2          1.4290    0.0010   -2.4410 na        1 P9I      0.079700
      6 C15         0.1210   -0.0660   -2.8080 ca        1 P9I     -0.025300
      7 C14        -0.2130   -0.1990   -4.1610 ca        1 P9I     -0.148000
      8 C13         0.7940   -0.2650   -5.1330 ca        1 P9I     -0.040000
      9 C12         2.1370   -0.1980   -4.7560 ca        1 P9I     -0.097000
     10 C11         2.4580   -0.0600   -3.4010 ca        1 P9I      0.048900
     11 C5          3.7450    0.0350   -2.6880 cd        1 P9I     -0.126000
     12 C4          3.4730    0.1500   -1.3440 cc        1 P9I     -0.065000
     13 C6          5.0590    0.0250   -3.3140 ca        1 P9I      0.442100
     14 N1          5.1700    0.4200   -4.6140 nb        1 P9I     -0.675000
     15 C10         6.3950    0.4310   -5.1580 ca        1 P9I      0.410200
     16 C9          7.5660    0.0540   -4.4650 ca        1 P9I     -0.212300
     17 C8          7.4430   -0.3590   -3.1410 ca        1 P9I     -0.083000
     18 C7          6.1760   -0.3770   -2.5490 ca        1 P9I     -0.216300
     19 H          -0.3420    0.2970    0.9600 ho        1 P9I      0.470000
     20 H11C        1.8910    1.4150    1.7590 hc        1 P9I      0.095700
     21 H12C        3.1390    0.1810    1.2900 hc        1 P9I      0.095700
     22 H13C        1.6100   -0.3490    2.1100 hc        1 P9I      0.095700
     23 H4          4.1890    0.2550   -0.5270 ha        1 P9I      0.185000
     24 H15        -0.6490   -0.0120   -2.0120 h4        1 P9I      0.213000
     25 H14        -1.2780   -0.2490   -4.4430 ha        1 P9I      0.190000
     26 H13         0.5250   -0.3690   -6.1990 ha        1 P9I      0.183000
     27 H12         2.9420   -0.2450   -5.5100 ha        1 P9I      0.213000
     28 H7          6.0530   -0.7060   -1.5090 ha        1 P9I      0.144000
     29 H10         6.4460    0.7630   -6.2120 h4        1 P9I      0.040100
     30 H9          8.5430    0.0870   -4.9680 ha        1 P9I      0.165000
     31 H8          8.3280   -0.6680   -2.5630 ha        1 P9I      0.158000
@<TRIPOS>BOND
     1    1    2 1   
     2    1   19 1   
     3    2    3 1   
     4    2    4 2   
     5    3   20 1   
     6    3   21 1   
     7    3   22 1   
     8    4    5 1   
     9    4   12 1   
    10    5    6 1   
    11    5   10 2   
    12    6    7 ar  
    13    6   24 1   
    14    7    8 ar  
    15    7   25 1   
    16    8    9 ar  
    17    8   26 1   
    18    9   10 ar  
    19    9   27 1   
    20   10   11 1   
    21   11   12 2   
    22   11   13 1   
    23   12   23 1   
    24   13   14 ar  
    25   13   18 ar  
    26   14   15 ar  
    27   15   16 ar  
    28   15   29 1   
    29   16   17 ar  
    30   16   30 1   
    31   17   18 ar  
    32   17   31 1   
    33   18   28 1   
@<TRIPOS>SUBSTRUCTURE
     1 P9I         1 TEMP              0 ****  ****    0 ROOT
