@<TRIPOS>MOLECULE
P9I
   31    33     1     0     0
SMALL
bcc


@<TRIPOS>ATOM
      1 O          -0.0040    0.1810    0.0520 oh        1 P9I     -0.489100
      2 C2          1.3580    0.1940    0.0650 c2        1 P9I      0.236900
      3 C1          2.0410    0.3000    1.3750 c3        1 P9I     -0.125900
      4 C3          2.0170    0.1140   -1.1350 cc        1 P9I     -0.164100
      5 N2          1.4290    0.0150   -2.4420 na        1 P9I      0.079700
      6 C15         0.1200   -0.0330   -2.8120 ca        1 P9I     -0.025300
      7 C14        -0.2130   -0.1330   -4.1670 ca        1 P9I     -0.148000
      8 C13         0.7930   -0.1870   -5.1390 ca        1 P9I     -0.040000
      9 C12         2.1370   -0.1400   -4.7610 ca        1 P9I     -0.097000
     10 C11         2.4580   -0.0350   -3.4030 ca        1 P9I      0.048900
     11 C5          3.7450    0.0340   -2.6880 cd        1 P9I     -0.126000
     12 C4          3.4740    0.1230   -1.3410 cc        1 P9I     -0.065000
     13 C6          5.0600    0.0270   -3.3140 ca        1 P9I      0.442100
     14 N1          5.1750    0.4490   -4.6040 nb        1 P9I     -0.675000
     15 C10         6.4010    0.4600   -5.1470 ca        1 P9I      0.410200
     16 C9          7.5670    0.0580   -4.4620 ca        1 P9I     -0.212300
     17 C8          7.4400   -0.3820   -3.1480 ca        1 P9I     -0.083000
     18 C7          6.1730   -0.4010   -2.5570 ca        1 P9I     -0.216300
     19 H          -0.3410    0.2520    0.9630 ho        1 P9I      0.470000
     20 H11C        1.8780    1.3260    1.8000 hc        1 P9I      0.095700
     21 H12C        3.1410    0.1240    1.2900 hc        1 P9I      0.095700
     22 H13C        1.6180   -0.4520    2.0910 hc        1 P9I      0.095700
     23 H4          4.1900    0.2040   -0.5230 ha        1 P9I      0.185000
     24 H15        -0.6490    0.0110   -2.0150 h4        1 P9I      0.213000
     25 H14        -1.2780   -0.1690   -4.4500 ha        1 P9I      0.190000
     26 H13         0.5250   -0.2660   -6.2080 ha        1 P9I      0.183000
     27 H12         2.9420   -0.1780   -5.5160 ha        1 P9I      0.213000
     28 H7          6.0460   -0.7510   -1.5240 ha        1 P9I      0.144000
     29 H10         6.4550    0.8150   -6.1940 h4        1 P9I      0.040100
     30 H9          8.5450    0.0940   -4.9640 ha        1 P9I      0.165000
     31 H8          8.3220   -0.7110   -2.5760 ha        1 P9I      0.158000
@<TRIPOS>BOND
     1    1    2 1   
     2    1   19 1   
     3    2    3 1   
     4    2    4 2   
     5    3   20 1   
     6    3   21 1   
     7    3   22 1   
     8    4    5 1   
     9    4   12 1   
    10    5    6 1   
    11    5   10 2   
    12    6    7 ar  
    13    6   24 1   
    14    7    8 ar  
    15    7   25 1   
    16    8    9 ar  
    17    8   26 1   
    18    9   10 ar  
    19    9   27 1   
    20   10   11 1   
    21   11   12 2   
    22   11   13 1   
    23   12   23 1   
    24   13   14 ar  
    25   13   18 ar  
    26   14   15 ar  
    27   15   16 ar  
    28   15   29 1   
    29   16   17 ar  
    30   16   30 1   
    31   17   18 ar  
    32   17   31 1   
    33   18   28 1   
@<TRIPOS>SUBSTRUCTURE
     1 P9I         1 TEMP              0 ****  ****    0 ROOT
