@<TRIPOS>MOLECULE
P9I
   31    28     1     0     0
SMALL
bcc


@<TRIPOS>ATOM
      1 O          -3.3480    0.0880    2.5380 oh        1 P9I     -0.244000
      2 C2         -1.9410    0.0980    2.5320 c2        1 P9I      0.197000
      3 C1         -1.1780    0.0490    3.8370 c3        1 P9I     -0.248000
      4 C3         -1.2740    0.1640    1.3630 c1        1 P9I     -0.137000
      5 N2         -1.8090   -0.3450   -0.0540 n2        1 P9I     -0.072500
      6 C15        -3.0120   -0.5910   -0.5960 c1        1 P9I     -0.028000
      7 C14        -3.1070   -1.0520   -1.9360 c1        1 P9I     -0.104500
      8 C13        -1.9210   -1.2560   -2.7120 c1        1 P9I     -0.104500
      9 C12        -0.6660   -1.0020   -2.1520 c1        1 P9I     -0.124000
     10 C11        -0.5700   -0.5580   -0.8610 c2        1 P9I      0.044500
     11 C5          0.5130   -0.1930    0.0500 c2        1 P9I     -0.028000
     12 C4          0.1130    0.1820    1.2100 c2        1 P9I     -0.065000
     13 C6          1.8240    0.3230   -0.5020 c2        1 P9I      0.044500
     14 N1          1.9170    1.6080   -0.9460 n2        1 P9I     -0.072500
     15 C10         3.0850    2.0620   -1.4810 c1        1 P9I     -0.028000
     16 C9          4.1800    1.2170   -1.5730 c1        1 P9I     -0.104500
     17 C8          4.0880   -0.0700   -1.1290 c1        1 P9I     -0.104500
     18 C7          2.9170   -0.5240   -0.5940 c1        1 P9I     -0.124000
     19 H          -3.6490    0.8640    2.8490 ho        1 P9I      0.269000
     20 H11C       -0.7150   -0.8110    3.9120 hc        1 P9I      0.135000
     21 H12C       -1.8030    0.1500    4.5850 hc        1 P9I      0.135000
     22 H13C       -0.5220    0.7770    3.8590 hc        1 P9I      0.135000
     23 H4          0.6550    0.8030    1.7370 ha        1 P9I      0.185000
     24 H15        -3.8220   -0.4520   -0.0690 ha        1 P9I      0.195000
     25 H14        -3.9830   -1.2300   -2.3290 ha        1 P9I      0.174000
     26 H13        -1.9890   -1.5730   -3.6330 ha        1 P9I      0.174000
     27 H12         0.1420   -1.1410   -2.6820 ha        1 P9I      0.178500
     28 H7          2.8500   -1.4440   -0.2760 ha        1 P9I      0.178500
     29 H10         3.1510    2.9820   -1.7980 ha        1 P9I      0.195000
     30 H9          5.0170    1.5420   -1.9560 ha        1 P9I      0.174000
     31 H8          4.8590   -0.6660   -1.1930 ha        1 P9I      0.174000
@<TRIPOS>BOND
     1    1    2 1   
     2    1   19 1   
     3    2    3 1   
     4    2    4 1   
     5    3   20 1   
     6    3   21 1   
     7    3   22 1   
     8    4   12 1   
     9    5    6 1   
    10    5   10 1   
    11    6   24 1   
    12    7    8 1   
    13    7   25 1   
    14    8   26 1   
    15    9   10 1   
    16    9   27 1   
    17   10   11 1   
    18   11   12 1   
    19   11   13 1   
    20   12   23 1   
    21   13   14 1   
    22   13   18 1   
    23   14   15 1   
    24   15   29 1   
    25   16   17 1   
    26   16   30 1   
    27   17   31 1   
    28   18   28 1   
@<TRIPOS>SUBSTRUCTURE
     1 P9I         1 TEMP              0 ****  ****    0 ROOT
