@<TRIPOS>MOLECULE
P9I
   31    33     1     0     0
SMALL
bcc


@<TRIPOS>ATOM
      1 O           4.0050    1.1130    0.0360 oh        1 P9I     -0.489100
      2 C2          2.7840    1.7150    0.0720 c2        1 P9I      0.236900
      3 C1          2.7390    3.1930    0.1590 c3        1 P9I     -0.125900
      4 C3          1.6690    0.9180    0.0310 cc        1 P9I     -0.164100
      5 N2          1.6310   -0.5160   -0.0470 na        1 P9I      0.079700
      6 C15         2.6480   -1.4170   -0.1080 ca        1 P9I     -0.025300
      7 C14         2.3600   -2.7840   -0.1830 ca        1 P9I     -0.148000
      8 C13         1.0300   -3.2250   -0.1970 ca        1 P9I     -0.040000
      9 C12        -0.0160   -2.3010   -0.1350 ca        1 P9I     -0.097000
     10 C11         0.2850   -0.9370   -0.0560 ca        1 P9I      0.048900
     11 C5         -0.5630    0.2660    0.0180 cd        1 P9I     -0.126000
     12 C4          0.2670    1.3630    0.0710 cc        1 P9I     -0.065000
     13 C6         -2.0180    0.2720    0.0480 ca        1 P9I      0.442100
     14 N1         -2.6700   -0.8360    0.5020 nb        1 P9I     -0.675000
     15 C10        -4.0090   -0.7940    0.5480 ca        1 P9I      0.410200
     16 C9         -4.7740    0.3230    0.1500 ca        1 P9I     -0.212300
     17 C8         -4.1020    1.4470   -0.3220 ca        1 P9I     -0.083000
     18 C7         -2.7050    1.4300   -0.3780 ca        1 P9I     -0.216300
     19 H           4.7060    1.7890    0.0790 ho        1 P9I      0.470000
     20 H11C        3.4090    3.6450   -0.6180 hc        1 P9I      0.095700
     21 H12C        1.7060    3.5900    0.0050 hc        1 P9I      0.095700
     22 H13C        3.0970    3.5190    1.1720 hc        1 P9I      0.095700
     23 H4         -0.0220    2.4120    0.1450 ha        1 P9I      0.185000
     24 H15         3.6880   -1.0310   -0.0970 h4        1 P9I      0.213000
     25 H14         3.1960   -3.5020   -0.2310 ha        1 P9I      0.190000
     26 H13         0.8080   -4.3050   -0.2560 ha        1 P9I      0.183000
     27 H12        -1.0680   -2.6330   -0.1410 ha        1 P9I      0.213000
     28 H7         -2.1520    2.3010   -0.7540 ha        1 P9I      0.144000
     29 H10        -4.5020   -1.7090    0.9280 h4        1 P9I      0.040100
     30 H9         -5.8710    0.2950    0.2140 ha        1 P9I      0.165000
     31 H8         -4.6580    2.3400   -0.6500 ha        1 P9I      0.158000
@<TRIPOS>BOND
     1    1    2 1   
     2    1   19 1   
     3    2    3 1   
     4    2    4 2   
     5    3   20 1   
     6    3   21 1   
     7    3   22 1   
     8    4    5 1   
     9    4   12 1   
    10    5    6 1   
    11    5   10 2   
    12    6    7 ar  
    13    6   24 1   
    14    7    8 ar  
    15    7   25 1   
    16    8    9 ar  
    17    8   26 1   
    18    9   10 ar  
    19    9   27 1   
    20   10   11 1   
    21   11   12 2   
    22   11   13 1   
    23   12   23 1   
    24   13   14 ar  
    25   13   18 ar  
    26   14   15 ar  
    27   15   16 ar  
    28   15   29 1   
    29   16   17 ar  
    30   16   30 1   
    31   17   18 ar  
    32   17   31 1   
    33   18   28 1   
@<TRIPOS>SUBSTRUCTURE
     1 P9I         1 TEMP              0 ****  ****    0 ROOT
