@<TRIPOS>MOLECULE
P9J
   39    42     1     0     0
SMALL
bcc


@<TRIPOS>ATOM
      1 C1         -0.1460   -0.0680   -0.0400 c         1 P9J      0.690100
      2 N2          1.2700   -0.2010   -0.0810 n         1 P9J     -0.118000
      3 C3         -0.7440    0.0410    1.3080 ca        1 P9J     -0.138600
      4 C4         -2.1330    0.1870    1.4330 ca        1 P9J     -0.071000
      5 C5         -2.7030    0.3090    2.6940 ca        1 P9J     -0.134000
      6 C6         -1.8910    0.2920    3.8330 ca        1 P9J     -0.104000
      7 C7         -0.5130    0.1480    3.7190 ca        1 P9J     -0.116000
      8 C8          0.0760    0.0140    2.4530 ca        1 P9J     -0.102900
      9 C9          1.5260   -0.1510    2.2250 cc        1 P9J      0.527800
     10 N10         2.0480   -0.2680    1.0030 nd        1 P9J     -0.459300
     11 C11         1.9470   -0.2380   -1.3540 ca        1 P9J      0.064600
     12 C12         3.1050    0.5350   -1.5710 ca        1 P9J     -0.114500
     13 C13         3.7480    0.4840   -2.8050 ca        1 P9J     -0.126500
     14 C14         3.2550   -0.3220   -3.8300 ca        1 P9J     -0.131000
     15 C15         2.1090   -1.0860   -3.6180 ca        1 P9J     -0.126500
     16 C16         1.4540   -1.0570   -2.3890 ca        1 P9J     -0.114500
     17 N17         2.3560   -0.1440    3.3880 nh        1 P9J     -0.712900
     18 C18         3.7550   -0.0830    3.2050 cc        1 P9J      0.489200
     19 C19         4.4680    1.0140    2.5670 cc        1 P9J     -0.264300
     20 C20         5.8260    0.6950    2.7150 cd        1 P9J     -0.096600
     21 N21         5.8690   -0.5250    3.4060 na        1 P9J     -0.010600
     22 N22         4.6640   -1.0050    3.6920 nd        1 P9J     -0.545800
     23 C23         7.0150    1.4360    2.2680 c3        1 P9J     -0.034800
     24 O24        -0.8180   -0.0470   -1.0850 o         1 P9J     -0.610500
     25 H4         -2.7520    0.2040    0.5200 ha        1 P9J      0.164000
     26 H5         -3.7930    0.4220    2.7970 ha        1 P9J      0.142000
     27 H6         -2.3480    0.3980    4.8290 ha        1 P9J      0.140000
     28 H7          0.1040    0.1560    4.6310 ha        1 P9J      0.150000
     29 H12         3.5140    1.1750   -0.7740 ha        1 P9J      0.150500
     30 H13         4.6530    1.0890   -2.9680 ha        1 P9J      0.134000
     31 H14         3.7680   -0.3530   -4.8030 ha        1 P9J      0.132000
     32 H15         1.7140   -1.7210   -4.4240 ha        1 P9J      0.134000
     33 H16         0.5410   -1.6550   -2.2430 ha        1 P9J      0.150500
     34 HN17        2.0810   -0.8900    4.0060 hn        1 P9J      0.408800
     35 H19         4.0280    1.8770    2.0810 ha        1 P9J      0.172000
     36 H23         7.6740    1.6980    3.1340 hc        1 P9J      0.054033
     37 H23A        7.6110    0.8320    1.5390 hc        1 P9J      0.054033
     38 H23B        6.6940    2.3830    1.7660 hc        1 P9J      0.054033
     39 HN21        6.6800   -1.0280    3.6780 hn        1 P9J      0.321700
@<TRIPOS>BOND
     1    1    2 1   
     2    1    3 1   
     3    1   24 2   
     4    2   10 1   
     5    2   11 1   
     6    3    4 ar  
     7    3    8 ar  
     8    4    5 ar  
     9    4   25 1   
    10    5    6 ar  
    11    5   26 1   
    12    6    7 ar  
    13    6   27 1   
    14    7    8 ar  
    15    7   28 1   
    16    8    9 1   
    17    9   10 2   
    18    9   17 1   
    19   11   12 ar  
    20   11   16 ar  
    21   12   13 ar  
    22   12   29 1   
    23   13   14 ar  
    24   13   30 1   
    25   14   15 ar  
    26   14   31 1   
    27   15   16 ar  
    28   15   32 1   
    29   16   33 1   
    30   17   18 1   
    31   17   34 1   
    32   18   19 1   
    33   18   22 2   
    34   19   20 2   
    35   19   35 1   
    36   20   21 1   
    37   20   23 1   
    38   21   22 1   
    39   21   39 1   
    40   23   36 1   
    41   23   37 1   
    42   23   38 1   
@<TRIPOS>SUBSTRUCTURE
     1 P9J         1 TEMP              0 ****  ****    0 ROOT
