@<TRIPOS>MOLECULE
P9J
   39    34     1     0     0
SMALL
bcc


@<TRIPOS>ATOM
      1 C1         -1.7570    0.6870   -1.7110 c1        1 P9J      0.332000
      2 N2         -0.3220    0.6260   -1.6630 n2        1 P9J     -0.190000
      3 C3         -2.5590    0.6680   -0.4270 c2        1 P9J     -0.122000
      4 C4         -3.9650    0.7520   -0.4700 c2        1 P9J     -0.075000
      5 C5         -4.6950    0.7550    0.7050 c1        1 P9J     -0.135000
      6 C6         -4.0460    0.6760    1.9200 c1        1 P9J     -0.115750
      7 C7         -2.6660    0.5940    1.9620 c1        1 P9J     -0.115750
      8 C8         -1.9220    0.5910    0.7650 c1        1 P9J      0.001000
      9 C9         -0.4100    0.5270    0.8110 c2        1 P9J      0.006000
     10 N10         0.3460    0.5470   -0.4120 n2        1 P9J     -0.046000
     11 C11         0.4290    0.6690   -2.8650 c2        1 P9J      0.069000
     12 C12         0.7580   -0.5080   -3.5180 c2        1 P9J     -0.110000
     13 C13         1.4270   -0.4640   -4.7310 c1        1 P9J     -0.124000
     14 C14         1.7660    0.7570   -5.2920 c1        1 P9J     -0.115750
     15 C15         1.4370    1.9340   -4.6390 c1        1 P9J     -0.115750
     16 C16         0.7680    1.8900   -3.4260 c1        1 P9J     -0.119000
     17 N17         0.2630    0.5970    2.0590 n3        1 P9J     -0.159000
     18 C18         0.9360   -0.5450    2.5660 c2        1 P9J     -0.039000
     19 C19         2.2520   -0.6030    2.9270 c1        1 P9J     -0.243000
     20 C20         2.4820   -1.8290    3.4830 c1        1 P9J     -0.051000
     21 N21         1.3220   -2.5190    3.4640 n2        1 P9J     -0.162000
     22 N22         0.3620   -1.7210    2.8950 n2        1 P9J     -0.099000
     23 C23         3.7840   -2.2940    4.1010 c2        1 P9J     -0.163000
     24 O24        -2.3250    0.8010   -2.7790 o         1 P9J     -0.333000
     25 H4         -4.4250    0.8070   -1.3300 ha        1 P9J      0.161000
     26 H5         -5.6690    0.8130    0.6740 ha        1 P9J      0.139000
     27 H6         -4.5610    0.6790    2.7490 ha        1 P9J      0.140500
     28 H7         -2.2070    0.5380    2.8220 ha        1 P9J      0.140500
     29 H12         0.5200   -1.3680   -3.1240 ha        1 P9J      0.155000
     30 H13         1.6590   -1.2930   -5.1910 ha        1 P9J      0.136000
     31 H14         2.2360    0.7880   -6.1460 ha        1 P9J      0.140500
     32 H15         1.6750    2.7950   -5.0340 ha        1 P9J      0.140500
     33 H16         0.5360    2.7200   -2.9660 ha        1 P9J      0.144000
     34 HN17        0.2650    1.3750    2.5320 hn        1 P9J      0.203000
     35 H19         2.9120    0.1070    2.8090 DU        1 P9J      0.221000
     36 H23         4.5360   -1.9690    3.5630 ha        1 P9J      0.094667
     37 H23A        3.8580   -1.9410    5.0130 ha        1 P9J      0.094667
     38 H23B        3.8010   -3.2740    4.1280 ha        1 P9J      0.094667
     39 HN21        1.1980   -3.3670    3.7760 DU        1 P9J      0.221000
@<TRIPOS>BOND
     1    1    3 1   
     2    1   24 1   
     3    2   10 1   
     4    2   11 1   
     5    3    4 1   
     6    3    8 1   
     7    4    5 1   
     8    4   25 1   
     9    5   26 1   
    10    6    7 1   
    11    6   27 1   
    12    7   28 1   
    13    8    9 1   
    14    9   10 1   
    15    9   17 1   
    16   11   12 1   
    17   11   16 1   
    18   12   13 1   
    19   12   29 1   
    20   13   30 1   
    21   14   15 1   
    22   14   31 1   
    23   15   32 1   
    24   16   33 1   
    25   17   18 1   
    26   17   34 1   
    27   18   19 1   
    28   18   22 1   
    29   19   20 1   
    30   20   21 1   
    31   21   22 1   
    32   23   36 1   
    33   23   37 1   
    34   23   38 1   
@<TRIPOS>SUBSTRUCTURE
     1 P9J         1 TEMP              0 ****  ****    0 ROOT
