@<TRIPOS>MOLECULE
P9J
   39    42     1     0     0
SMALL
bcc


@<TRIPOS>ATOM
      1 C1         -2.1280   -1.0460    0.0060 c         1 P9J      0.690100
      2 N2         -0.7230   -1.1140    0.2240 n         1 P9J     -0.118000
      3 C3         -2.6960    0.3130   -0.1230 ca        1 P9J     -0.138600
      4 C4         -4.0710    0.4630   -0.3500 ca        1 P9J     -0.071000
      5 C5         -4.6120    1.7350   -0.4910 ca        1 P9J     -0.134000
      6 C6         -3.7840    2.8600   -0.4120 ca        1 P9J     -0.104000
      7 C7         -2.4180    2.7210   -0.1860 ca        1 P9J     -0.116000
      8 C8         -1.8600    1.4430   -0.0320 ca        1 P9J     -0.102900
      9 C9         -0.4270    1.1880    0.2180 cc        1 P9J      0.527800
     10 N10         0.0670   -0.0450    0.3500 nd        1 P9J     -0.459300
     11 C11        -0.0720   -2.3990    0.2860 ca        1 P9J      0.064600
     12 C12         1.1270   -2.6280   -0.4180 ca        1 P9J     -0.114500
     13 C13         1.7450   -3.8740   -0.3430 ca        1 P9J     -0.126500
     14 C14         1.1870   -4.8980    0.4200 ca        1 P9J     -0.131000
     15 C15         0.0010   -4.6740    1.1160 ca        1 P9J     -0.126500
     16 C16        -0.6300   -3.4340    1.0630 ca        1 P9J     -0.114500
     17 N17         0.4220    2.3360    0.2750 nh        1 P9J     -0.712900
     18 C18         1.8190    2.1290    0.2930 cc        1 P9J      0.489200
     19 C19         2.5830    1.4990   -0.7730 cc        1 P9J     -0.264300
     20 C20         3.9230    1.6150   -0.3710 cd        1 P9J     -0.096600
     21 N21         3.9060    2.2840    0.8630 na        1 P9J     -0.010600
     22 N22         2.6800    2.5820    1.2760 nd        1 P9J     -0.545800
     23 C23         5.1460    1.1610   -1.0490 c3        1 P9J     -0.034800
     24 O24        -2.8150   -2.0790   -0.0680 o         1 P9J     -0.610500
     25 H4         -4.7030   -0.4380   -0.4160 ha        1 P9J      0.164000
     26 H5         -5.6900    1.8580   -0.6680 ha        1 P9J      0.142000
     27 H6         -4.2160    3.8650   -0.5320 ha        1 P9J      0.140000
     28 H7         -1.7870    3.6210   -0.1450 ha        1 P9J      0.150000
     29 H12         1.5870   -1.8310   -1.0230 ha        1 P9J      0.150500
     30 H13         2.6810   -4.0460   -0.8940 ha        1 P9J      0.134000
     31 H14         1.6800   -5.8800    0.4710 ha        1 P9J      0.132000
     32 H15        -0.4450   -5.4800    1.7180 ha        1 P9J      0.134000
     33 H16        -1.5750   -3.2770    1.6070 ha        1 P9J      0.150500
     34 HN17        0.1140    2.9480    1.0130 hn        1 P9J      0.408800
     35 H19         2.1880    1.0370   -1.6690 ha        1 P9J      0.172000
     36 H23         5.8350    2.0190   -1.2550 hc        1 P9J      0.054033
     37 H23A        5.6930    0.4090   -0.4250 hc        1 P9J      0.054033
     38 H23B        4.8730    0.6830   -2.0230 hc        1 P9J      0.054033
     39 HN21        4.6900    2.5310    1.4170 hn        1 P9J      0.321700
@<TRIPOS>BOND
     1    1    2 1   
     2    1    3 1   
     3    1   24 2   
     4    2   10 1   
     5    2   11 1   
     6    3    4 ar  
     7    3    8 ar  
     8    4    5 ar  
     9    4   25 1   
    10    5    6 ar  
    11    5   26 1   
    12    6    7 ar  
    13    6   27 1   
    14    7    8 ar  
    15    7   28 1   
    16    8    9 1   
    17    9   10 2   
    18    9   17 1   
    19   11   12 ar  
    20   11   16 ar  
    21   12   13 ar  
    22   12   29 1   
    23   13   14 ar  
    24   13   30 1   
    25   14   15 ar  
    26   14   31 1   
    27   15   16 ar  
    28   15   32 1   
    29   16   33 1   
    30   17   18 1   
    31   17   34 1   
    32   18   19 1   
    33   18   22 2   
    34   19   20 2   
    35   19   35 1   
    36   20   21 1   
    37   20   23 1   
    38   21   22 1   
    39   21   39 1   
    40   23   36 1   
    41   23   37 1   
    42   23   38 1   
@<TRIPOS>SUBSTRUCTURE
     1 P9J         1 TEMP              0 ****  ****    0 ROOT
