@<TRIPOS>MOLECULE
P9J
   39    42     1     0     0
SMALL
bcc


@<TRIPOS>ATOM
      1 C1         -0.1480   -0.0640   -0.0350 c         1 P9J      0.690100
      2 N2          1.2680   -0.1980   -0.0800 n         1 P9J     -0.118000
      3 C3         -0.7430    0.0420    1.3150 ca        1 P9J     -0.138600
      4 C4         -2.1310    0.1880    1.4420 ca        1 P9J     -0.071000
      5 C5         -2.6990    0.3070    2.7050 ca        1 P9J     -0.134000
      6 C6         -1.8850    0.2870    3.8420 ca        1 P9J     -0.104000
      7 C7         -0.5060    0.1430    3.7260 ca        1 P9J     -0.116000
      8 C8          0.0790    0.0110    2.4580 ca        1 P9J     -0.102900
      9 C9          1.5280   -0.1540    2.2260 cc        1 P9J      0.527800
     10 N10         2.0480   -0.2670    1.0020 nd        1 P9J     -0.459300
     11 C11         1.9410   -0.2320   -1.3540 ca        1 P9J      0.064600
     12 C12         3.0990    0.5420   -1.5720 ca        1 P9J     -0.114500
     13 C13         3.7390    0.4930   -2.8080 ca        1 P9J     -0.126500
     14 C14         3.2440   -0.3100   -3.8340 ca        1 P9J     -0.131000
     15 C15         2.0980   -1.0750   -3.6200 ca        1 P9J     -0.126500
     16 C16         1.4460   -1.0490   -2.3900 ca        1 P9J     -0.114500
     17 N17         2.3610   -0.1500    3.3870 nu        1 P9J     -0.712900
     18 C18         3.7600   -0.0900    3.2000 cc        1 P9J      0.489200
     19 C19         4.4720    1.0100    2.5660 cc        1 P9J     -0.264300
     20 C20         5.8310    0.6880    2.7080 cd        1 P9J     -0.096600
     21 N21         5.8740   -0.5350    3.3940 na        1 P9J     -0.010600
     22 N22         4.6700   -1.0150    3.6800 nd        1 P9J     -0.545800
     23 C23         7.0190    1.4300    2.2620 c3        1 P9J     -0.034800
     24 O24        -0.8230   -0.0410   -1.0780 o         1 P9J     -0.610500
     25 H4         -2.7530    0.2080    0.5320 ha        1 P9J      0.164000
     26 H5         -3.7880    0.4200    2.8110 ha        1 P9J      0.142000
     27 H6         -2.3390    0.3910    4.8400 ha        1 P9J      0.140000
     28 H7          0.1120    0.1480    4.6360 ha        1 P9J      0.150000
     29 H12         3.5100    1.1790   -0.7750 ha        1 P9J      0.150500
     30 H13         4.6430    1.0990   -2.9720 ha        1 P9J      0.134000
     31 H14         3.7540   -0.3390   -4.8080 ha        1 P9J      0.132000
     32 H15         1.7010   -1.7080   -4.4270 ha        1 P9J      0.134000
     33 H16         0.5330   -1.6470   -2.2430 ha        1 P9J      0.150500
     34 HN17        2.0870   -0.8980    4.0030 hn        1 P9J      0.408800
     35 H19         4.0320    1.8750    2.0850 ha        1 P9J      0.172000
     36 H23         7.6810    1.6870    3.1270 hc        1 P9J      0.054033
     37 H23A        6.6990    2.3790    1.7660 hc        1 P9J      0.054033
     38 H23B        7.6130    0.8280    1.5280 hc        1 P9J      0.054033
     39 HN21        6.6860   -1.0400    3.6610 hn        1 P9J      0.321700
@<TRIPOS>BOND
     1    1    2 1   
     2    1    3 1   
     3    1   24 2   
     4    2   10 1   
     5    2   11 1   
     6    3    4 ar  
     7    3    8 ar  
     8    4    5 ar  
     9    4   25 1   
    10    5    6 ar  
    11    5   26 1   
    12    6    7 ar  
    13    6   27 1   
    14    7    8 ar  
    15    7   28 1   
    16    8    9 1   
    17    9   10 2   
    18    9   17 1   
    19   11   12 ar  
    20   11   16 ar  
    21   12   13 ar  
    22   12   29 1   
    23   13   14 ar  
    24   13   30 1   
    25   14   15 ar  
    26   14   31 1   
    27   15   16 ar  
    28   15   32 1   
    29   16   33 1   
    30   17   18 1   
    31   17   34 1   
    32   18   19 1   
    33   18   22 2   
    34   19   20 2   
    35   19   35 1   
    36   20   21 1   
    37   20   23 1   
    38   21   22 1   
    39   21   39 1   
    40   23   36 1   
    41   23   37 1   
    42   23   38 1   
@<TRIPOS>SUBSTRUCTURE
     1 P9J         1 TEMP              0 ****  ****    0 ROOT
