@<TRIPOS>MOLECULE
P9J
   40    43     1     0     0
SMALL
bcc


@<TRIPOS>ATOM
      1 C1         -0.2000   -0.2200   -0.0140 c         1 P9J      0.695100
      2 N2          1.2480   -0.1270   -0.0820 n         1 P9J     -0.084000
      3 C3         -0.7860   -0.0390    1.3270 ca        1 P9J     -0.139600
      4 C4         -2.1800   -0.0830    1.4770 ca        1 P9J     -0.043000
      5 C5         -2.7440    0.0880    2.7370 ca        1 P9J     -0.116000
      6 C6         -1.9240    0.3050    3.8490 ca        1 P9J     -0.063000
      7 C7         -0.5390    0.3510    3.7110 ca        1 P9J     -0.160000
      8 C8          0.0430    0.1770    2.4490 ca        1 P9J     -0.100900
      9 C9          1.4800    0.2040    2.1730 cc        1 P9J      0.326800
     10 N10         2.0170    0.0590    0.9550 nd        1 P9J     -0.326300
     11 C11         1.8950   -0.2440   -1.3760 ca        1 P9J      0.010600
     12 C12         2.7410    0.7820   -1.8380 ca        1 P9J     -0.100500
     13 C13         3.3400    0.6580   -3.0900 ca        1 P9J     -0.119500
     14 C14         3.1060   -0.4680   -3.8790 ca        1 P9J     -0.100000
     15 C15         2.2680   -1.4820   -3.4170 ca        1 P9J     -0.119500
     16 C16         1.6610   -1.3840   -2.1660 ca        1 P9J     -0.100500
     17 N17         2.3830    0.3970    3.3250 n4        1 P9J     -0.615700
     18 C18         3.7950    0.2170    3.0560 cc        1 P9J      0.323200
     19 C19         4.7950    1.2630    3.0900 cc        1 P9J     -0.254300
     20 C20         5.9930    0.6020    2.7620 cd        1 P9J     -0.045600
     21 N21         5.6500   -0.7480    2.5540 na        1 P9J      0.030400
     22 N22         4.3680   -0.9960    2.7130 nd        1 P9J     -0.432800
     23 C23         7.3560    1.1390    2.6420 c3        1 P9J     -0.056800
     24 O24        -0.8430   -0.4390   -1.0420 o         1 P9J     -0.522500
     25 H4         -2.8120   -0.2530    0.5870 ha        1 P9J      0.182000
     26 H5         -3.8390    0.0530    2.8590 ha        1 P9J      0.169000
     27 H6         -2.3780    0.4410    4.8450 ha        1 P9J      0.161000
     28 H7          0.0680    0.5290    4.6100 ha        1 P9J      0.124000
     29 H12         2.9320    1.6780   -1.2300 ha        1 P9J      0.149000
     30 H13         3.9970    1.4620   -3.4570 ha        1 P9J      0.152500
     31 H14         3.5800   -0.5540   -4.8700 ha        1 P9J      0.153000
     32 H15         2.0770   -2.3690   -4.0410 ha        1 P9J      0.152500
     33 H16         0.9850   -2.1820   -1.8210 ha        1 P9J      0.149000
     34 HN17        2.2500    1.3590    3.6690 hn        1 P9J      0.469800
     35 H19         4.6550    2.3160    3.3140 ha        1 P9J      0.191000
     36 H23         7.3450    2.2370    2.8570 hc        1 P9J      0.079367
     37 H23A        7.7580    0.9830    1.6080 hc        1 P9J      0.079367
     38 H23B        8.0470    0.6410    3.3700 hc        1 P9J      0.079367
     39 HN21        6.2720   -1.4900    2.3010 hn        1 P9J      0.355700
     40 H172        2.0880   -0.2750    4.0520 hn        1 P9J      0.469800
@<TRIPOS>BOND
     1    1    2 1   
     2    1    3 1   
     3    1   24 2   
     4    2   10 1   
     5    2   11 1   
     6    3    4 ar  
     7    3    8 ar  
     8    4    5 ar  
     9    4   25 1   
    10    5    6 ar  
    11    5   26 1   
    12    6    7 ar  
    13    6   27 1   
    14    7    8 ar  
    15    7   28 1   
    16    8    9 1   
    17    9   10 2   
    18    9   17 1   
    19   11   12 ar  
    20   11   16 ar  
    21   12   13 ar  
    22   12   29 1   
    23   13   14 ar  
    24   13   30 1   
    25   14   15 ar  
    26   14   31 1   
    27   15   16 ar  
    28   15   32 1   
    29   16   33 1   
    30   17   18 1   
    31   17   34 1   
    32   17   40 1   
    33   18   19 1   
    34   18   22 2   
    35   19   20 2   
    36   19   35 1   
    37   20   21 1   
    38   20   23 1   
    39   21   22 1   
    40   21   39 1   
    41   23   36 1   
    42   23   37 1   
    43   23   38 1   
@<TRIPOS>SUBSTRUCTURE
     1 P9J         1 TEMP              0 ****  ****    0 ROOT
