@<TRIPOS>MOLECULE
P9L
   41    43     1     0     0
SMALL
bcc


@<TRIPOS>ATOM
      1 O3         -0.0620    0.1330    0.1160 o         1 P9L     -0.654800
      2 S           1.3510    0.0920    0.0710 sy        1 P9L      1.518200
      3 O2          2.0320    0.1100    1.3090 o         1 P9L     -0.654800
      4 N3          1.8260   -1.2090   -0.7870 n3        1 P9L     -0.815500
      5 C14         3.1090   -1.8390   -0.6050 c3        1 P9L      0.189300
      6 C13         3.0220   -3.3700   -0.5350 c3        1 P9L      0.116400
      7 O4          2.2770   -3.9030   -1.6230 os        1 P9L     -0.410600
      8 C12         0.9680   -3.3500   -1.7060 c3        1 P9L      0.116400
      9 C11         1.0060   -1.8180   -1.8030 c3        1 P9L      0.189300
     10 C5          1.8850    1.3950   -0.8480 ca        1 P9L     -0.425500
     11 C4          1.0420    2.0110   -1.7790 ca        1 P9L      0.028000
     12 C6          3.1710    1.9230   -0.6730 ca        1 P9L      0.024000
     13 C7          3.6190    3.0130   -1.4010 ca        1 P9L     -0.212000
     14 C8          2.7680    3.6320   -2.3500 ca        1 P9L      0.161600
     15 C3          1.4580    3.1090   -2.5210 ca        1 P9L     -0.182300
     16 C2          0.5060    3.7480   -3.4800 c3        1 P9L      0.145300
     17 N2          3.1770    4.7360   -3.0950 n         1 P9L     -0.370000
     18 C9          4.4940    5.2880   -2.9040 c3        1 P9L      0.077300
     19 C10         2.3530    5.2730   -4.1250 c         1 P9L      0.811500
     20 O1          2.7730    6.2390   -4.8010 o         1 P9L     -0.650500
     21 N1          1.1150    4.6770   -4.4040 n         1 P9L     -0.454800
     22 C1          0.2150    5.3550   -5.2990 c3        1 P9L      0.079300
     23 H141        3.5740   -1.4630    0.3520 h1        1 P9L      0.059950
     24 H142        3.7830   -1.5620   -1.4670 h1        1 P9L      0.059950
     25 H111        1.4080   -1.5390   -2.8200 h1        1 P9L      0.059950
     26 H112       -0.0480   -1.4280   -1.7120 h1        1 P9L      0.059950
     27 H131        2.5620   -3.7000    0.4330 h1        1 P9L      0.058450
     28 H132        4.0440   -3.8180   -0.6500 h1        1 P9L      0.058450
     29 H121        0.3650   -3.6790   -0.8190 h1        1 P9L      0.058450
     30 H122        0.5410   -3.7840   -2.6480 h1        1 P9L      0.058450
     31 H4          0.0150    1.6250   -1.9130 ha        1 P9L      0.155000
     32 H6          3.8390    1.4640    0.0790 ha        1 P9L      0.153000
     33 H7          4.6380    3.3900   -1.2300 ha        1 P9L      0.149000
     34 H21C       -0.3030    4.2740   -2.8860 h1        1 P9L      0.053200
     35 H22C        0.0010    2.9460   -4.0980 h1        1 P9L      0.053200
     36 H91C        4.6160    5.6010   -1.8320 h1        1 P9L      0.060367
     37 H92C        5.2740    4.5210   -3.1570 h1        1 P9L      0.060367
     38 H93C        4.6340    6.1850   -3.5660 h1        1 P9L      0.060367
     39 H11C       -0.5070    6.0050   -4.7330 h1        1 P9L      0.052700
     40 H12C       -0.3620    4.5820   -5.8720 h1        1 P9L      0.052700
     41 H13C        0.7970    5.9930   -6.0160 h1        1 P9L      0.052700
@<TRIPOS>BOND
     1    1    2 2   
     2    2    3 2   
     3    2    4 1   
     4    2   10 1   
     5    4    5 1   
     6    4    9 1   
     7    5    6 1   
     8    5   23 1   
     9    5   24 1   
    10    6    7 1   
    11    6   27 1   
    12    6   28 1   
    13    7    8 1   
    14    8    9 1   
    15    8   29 1   
    16    8   30 1   
    17    9   25 1   
    18    9   26 1   
    19   10   11 ar  
    20   10   12 ar  
    21   11   15 ar  
    22   11   31 1   
    23   12   13 ar  
    24   12   32 1   
    25   13   14 ar  
    26   13   33 1   
    27   14   15 ar  
    28   14   17 1   
    29   15   16 1   
    30   16   21 1   
    31   16   34 1   
    32   16   35 1   
    33   17   18 1   
    34   17   19 1   
    35   18   36 1   
    36   18   37 1   
    37   18   38 1   
    38   19   20 2   
    39   19   21 1   
    40   21   22 1   
    41   22   39 1   
    42   22   40 1   
    43   22   41 1   
@<TRIPOS>SUBSTRUCTURE
     1 P9L         1 TEMP              0 ****  ****    0 ROOT
