@<TRIPOS>MOLECULE
P9L
   41    43     1     0     0
SMALL
bcc


@<TRIPOS>ATOM
      1 O3         -0.0640    0.1400    0.1200 o         1 P9L     -0.654800
      2 S           1.3490    0.0950    0.0730 sy        1 P9L      1.518200
      3 O2          2.0330    0.1110    1.3100 o         1 P9L     -0.654800
      4 N3          1.8190   -1.2080   -0.7850 n3        1 P9L     -0.815500
      5 C14         3.1010   -1.8410   -0.6060 c3        1 P9L      0.189300
      6 C13         3.0100   -3.3720   -0.5370 c3        1 P9L      0.116400
      7 O4          2.2610   -3.9030   -1.6230 os        1 P9L     -0.410600
      8 C12         0.9540   -3.3470   -1.7040 c3        1 P9L      0.116400
      9 C11         0.9960   -1.8140   -1.8000 c3        1 P9L      0.189300
     10 C5          1.8860    1.3960   -0.8460 ca        1 P9L     -0.425500
     11 C4          1.0450    2.0140   -1.7790 ca        1 P9L      0.028000
     12 C6          3.1730    1.9210   -0.6710 ca        1 P9L      0.024000
     13 C7          3.6230    3.0100   -1.4000 ca        1 P9L     -0.212000
     14 C8          2.7740    3.6310   -2.3500 ca        1 P9L      0.161600
     15 C3          1.4630    3.1100   -2.5210 ca        1 P9L     -0.182300
     16 C2          0.5120    3.7500   -3.4810 c3        1 P9L      0.145300
     17 N2          3.1850    4.7330   -3.0950 n         1 P9L     -0.370000
     18 C9          4.5030    5.2830   -2.9050 c3        1 P9L      0.077300
     19 C10         2.3620    5.2710   -4.1270 c         1 P9L      0.811500
     20 O1          2.7850    6.2360   -4.8040 o         1 P9L     -0.650500
     21 N1          1.1240    4.6770   -4.4050 n         1 P9L     -0.454800
     22 C1          0.2250    5.3560   -5.3010 c3        1 P9L      0.079300
     23 H141        3.7740   -1.5660   -1.4700 h1        1 P9L      0.059950
     24 H142        3.5690   -1.4660    0.3500 h1        1 P9L      0.059950
     25 H111       -0.0580   -1.4220   -1.7070 h1        1 P9L      0.059950
     26 H112        1.3970   -1.5360   -2.8180 h1        1 P9L      0.059950
     27 H131        4.0300   -3.8230   -0.6540 h1        1 P9L      0.058450
     28 H132        2.5500   -3.7000    0.4330 h1        1 P9L      0.058450
     29 H121        0.3510   -3.6730   -0.8160 h1        1 P9L      0.058450
     30 H122        0.5230   -3.7790   -2.6440 h1        1 P9L      0.058450
     31 H4          0.0170    1.6290   -1.9130 ha        1 P9L      0.155000
     32 H6          3.8400    1.4620    0.0810 ha        1 P9L      0.153000
     33 H7          4.6430    3.3860   -1.2290 ha        1 P9L      0.149000
     34 H21C       -0.2960    4.2780   -2.8870 h1        1 P9L      0.053200
     35 H22C        0.0060    2.9490   -4.0980 h1        1 P9L      0.053200
     36 H91C        5.2820    4.5150   -3.1570 h1        1 P9L      0.060367
     37 H92C        4.6450    6.1790   -3.5670 h1        1 P9L      0.060367
     38 H93C        4.6260    5.5960   -1.8330 h1        1 P9L      0.060367
     39 H11C       -0.4960    6.0070   -4.7370 h1        1 P9L      0.052700
     40 H12C        0.8090    5.9920   -6.0190 h1        1 P9L      0.052700
     41 H13C       -0.3530    4.5830   -5.8740 h1        1 P9L      0.052700
@<TRIPOS>BOND
     1    1    2 2   
     2    2    3 2   
     3    2    4 1   
     4    2   10 1   
     5    4    5 1   
     6    4    9 1   
     7    5    6 1   
     8    5   23 1   
     9    5   24 1   
    10    6    7 1   
    11    6   27 1   
    12    6   28 1   
    13    7    8 1   
    14    8    9 1   
    15    8   29 1   
    16    8   30 1   
    17    9   25 1   
    18    9   26 1   
    19   10   11 ar  
    20   10   12 ar  
    21   11   15 ar  
    22   11   31 1   
    23   12   13 ar  
    24   12   32 1   
    25   13   14 ar  
    26   13   33 1   
    27   14   15 ar  
    28   14   17 1   
    29   15   16 1   
    30   16   21 1   
    31   16   34 1   
    32   16   35 1   
    33   17   18 1   
    34   17   19 1   
    35   18   36 1   
    36   18   37 1   
    37   18   38 1   
    38   19   20 2   
    39   19   21 1   
    40   21   22 1   
    41   22   39 1   
    42   22   40 1   
    43   22   41 1   
@<TRIPOS>SUBSTRUCTURE
     1 P9L         1 TEMP              0 ****  ****    0 ROOT
