@<TRIPOS>MOLECULE
P9L
   41    43     1     0     0
SMALL
bcc


@<TRIPOS>ATOM
      1 O3         -2.0840   -0.7430   -2.1930 o         1 P9L     -0.654800
      2 S          -2.0500    0.3260   -1.2680 sy        1 P9L      1.518200
      3 O2         -2.5110    1.5820   -1.7220 o         1 P9L     -0.654800
      4 N3         -2.8710   -0.0960    0.0740 n3        1 P9L     -0.815500
      5 C14        -3.4700    0.8700    0.9600 c3        1 P9L      0.189300
      6 C13        -4.9000    0.4960    1.3770 c3        1 P9L      0.116400
      7 O4         -4.9730   -0.8400    1.8610 os        1 P9L     -0.410600
      8 C12        -4.4850   -1.7860    0.9160 c3        1 P9L      0.116400
      9 C11        -3.0450   -1.4660    0.4870 c3        1 P9L      0.189300
     10 C5         -0.4670    0.5050   -0.7300 ca        1 P9L     -0.425500
     11 C4          0.4420   -0.5560   -0.8040 ca        1 P9L      0.028000
     12 C6         -0.0070    1.7330   -0.2350 ca        1 P9L      0.024000
     13 C7          1.3000    1.9070    0.1870 ca        1 P9L     -0.212000
     14 C8          2.2190    0.8300    0.1190 ca        1 P9L      0.161600
     15 C3          1.7610   -0.4130   -0.3950 ca        1 P9L     -0.182300
     16 C2          2.6980   -1.5710   -0.5250 c3        1 P9L      0.145300
     17 N2          3.5450    0.9670    0.5250 n         1 P9L     -0.370000
     18 C9          4.0220    2.2330    1.0190 c3        1 P9L      0.077300
     19 C10         4.4220   -0.1550    0.5600 c         1 P9L      0.811500
     20 O1          5.5950   -0.0010    0.9710 o         1 P9L     -0.650500
     21 N1          3.9440   -1.4200    0.1910 n         1 P9L     -0.454800
     22 C1          4.8920   -2.4920    0.0350 c3        1 P9L      0.079300
     23 H141       -2.8420    0.9570    1.8930 h1        1 P9L      0.059950
     24 H142       -3.4990    1.8750    0.4480 h1        1 P9L      0.059950
     25 H111       -2.7660   -2.1480   -0.3670 h1        1 P9L      0.059950
     26 H112       -2.3610   -1.6800    1.3590 h1        1 P9L      0.059950
     27 H131       -5.2230    1.1260    2.2470 h1        1 P9L      0.058450
     28 H132       -5.6120    0.6250    0.5200 h1        1 P9L      0.058450
     29 H121       -4.5140   -2.7650    1.4600 h1        1 P9L      0.058450
     30 H122       -5.1680   -1.8150    0.0270 h1        1 P9L      0.058450
     31 H4          0.1050   -1.5250   -1.2160 ha        1 P9L      0.155000
     32 H6         -0.7060    2.5890   -0.1960 ha        1 P9L      0.153000
     33 H7          1.6150    2.8890    0.5700 ha        1 P9L      0.149000
     34 H21C        2.1970   -2.5050   -0.1300 h1        1 P9L      0.053200
     35 H22C        2.9070   -1.7420   -1.6250 h1        1 P9L      0.053200
     36 H91C        3.4540    2.5250    1.9430 h1        1 P9L      0.060367
     37 H92C        5.1150    2.1610    1.2690 h1        1 P9L      0.060367
     38 H93C        3.8770    3.0200    0.2310 h1        1 P9L      0.060367
     39 H11C        5.2290   -2.5830   -1.0330 h1        1 P9L      0.052700
     40 H12C        5.7870   -2.3080    0.6870 h1        1 P9L      0.052700
     41 H13C        4.3960   -3.4500    0.3450 h1        1 P9L      0.052700
@<TRIPOS>BOND
     1    1    2 2   
     2    2    3 2   
     3    2    4 1   
     4    2   10 1   
     5    4    5 1   
     6    4    9 1   
     7    5    6 1   
     8    5   23 1   
     9    5   24 1   
    10    6    7 1   
    11    6   27 1   
    12    6   28 1   
    13    7    8 1   
    14    8    9 1   
    15    8   29 1   
    16    8   30 1   
    17    9   25 1   
    18    9   26 1   
    19   10   11 ar  
    20   10   12 ar  
    21   11   15 ar  
    22   11   31 1   
    23   12   13 ar  
    24   12   32 1   
    25   13   14 ar  
    26   13   33 1   
    27   14   15 ar  
    28   14   17 1   
    29   15   16 1   
    30   16   21 1   
    31   16   34 1   
    32   16   35 1   
    33   17   18 1   
    34   17   19 1   
    35   18   36 1   
    36   18   37 1   
    37   18   38 1   
    38   19   20 2   
    39   19   21 1   
    40   21   22 1   
    41   22   39 1   
    42   22   40 1   
    43   22   41 1   
@<TRIPOS>SUBSTRUCTURE
     1 P9L         1 TEMP              0 ****  ****    0 ROOT
