@<TRIPOS>MOLECULE
P9L
   41    43     1     0     0
SMALL
bcc


@<TRIPOS>ATOM
      1 O3         -0.0620    0.1350    0.1200 o         1 P9L     -0.654800
      2 S           1.3510    0.0930    0.0720 sy        1 P9L      1.518200
      3 O2          2.0340    0.1100    1.3090 o         1 P9L     -0.654800
      4 N3          1.8240   -1.2080   -0.7860 n3        1 P9L     -0.815500
      5 C14         3.1070   -1.8390   -0.6070 c3        1 P9L      0.189300
      6 C13         3.0200   -3.3700   -0.5380 c3        1 P9L      0.116400
      7 O4          2.2710   -3.9020   -1.6250 os        1 P9L     -0.410600
      8 C12         0.9630   -3.3490   -1.7050 c3        1 P9L      0.116400
      9 C11         1.0010   -1.8170   -1.8010 c3        1 P9L      0.189300
     10 C5          1.8860    1.3950   -0.8460 ca        1 P9L     -0.425500
     11 C4          1.0440    2.0110   -1.7790 ca        1 P9L      0.028000
     12 C6          3.1710    1.9240   -0.6700 ca        1 P9L      0.024000
     13 C7          3.6200    3.0140   -1.3980 ca        1 P9L     -0.212000
     14 C8          2.7690    3.6320   -2.3480 ca        1 P9L      0.161600
     15 C3          1.4600    3.1080   -2.5210 ca        1 P9L     -0.182300
     16 C2          0.5080    3.7470   -3.4820 c3        1 P9L      0.145300
     17 N2          3.1790    4.7360   -3.0940 n         1 P9L     -0.370000
     18 C9          4.4950    5.2890   -2.9020 c3        1 P9L      0.077300
     19 C10         2.3560    5.2710   -4.1250 c         1 P9L      0.811500
     20 O1          2.7760    6.2380   -4.8020 o         1 P9L     -0.650500
     21 N1          1.1190    4.6750   -4.4050 n         1 P9L     -0.454800
     22 C1          0.2190    5.3520   -5.3020 c3        1 P9L      0.079300
     23 H141        3.7790   -1.5620   -1.4710 h1        1 P9L      0.059950
     24 H142        3.5750   -1.4640    0.3480 h1        1 P9L      0.059950
     25 H111        1.4010   -1.5370   -2.8190 h1        1 P9L      0.059950
     26 H112       -0.0530   -1.4260   -1.7070 h1        1 P9L      0.059950
     27 H131        2.5610   -3.7000    0.4310 h1        1 P9L      0.058450
     28 H132        4.0410   -3.8190   -0.6560 h1        1 P9L      0.058450
     29 H121        0.3610   -3.6770   -0.8170 h1        1 P9L      0.058450
     30 H122        0.5330   -3.7820   -2.6450 h1        1 P9L      0.058450
     31 H4          0.0170    1.6250   -1.9140 ha        1 P9L      0.155000
     32 H6          3.8390    1.4660    0.0830 ha        1 P9L      0.153000
     33 H7          4.6380    3.3920   -1.2260 ha        1 P9L      0.149000
     34 H21C        0.0040    2.9440   -4.0990 h1        1 P9L      0.053200
     35 H22C       -0.3010    4.2720   -2.8890 h1        1 P9L      0.053200
     36 H91C        4.6360    6.1860   -3.5640 h1        1 P9L      0.060367
     37 H92C        5.2760    4.5220   -3.1540 h1        1 P9L      0.060367
     38 H93C        4.6160    5.6030   -1.8300 h1        1 P9L      0.060367
     39 H11C       -0.3570    4.5780   -5.8750 h1        1 P9L      0.052700
     40 H12C        0.8020    5.9890   -6.0190 h1        1 P9L      0.052700
     41 H13C       -0.5040    6.0020   -4.7380 h1        1 P9L      0.052700
@<TRIPOS>BOND
     1    1    2 2   
     2    2    3 2   
     3    2    4 1   
     4    2   10 1   
     5    4    5 1   
     6    4    9 1   
     7    5    6 1   
     8    5   23 1   
     9    5   24 1   
    10    6    7 1   
    11    6   27 1   
    12    6   28 1   
    13    7    8 1   
    14    8    9 1   
    15    8   29 1   
    16    8   30 1   
    17    9   25 1   
    18    9   26 1   
    19   10   11 ar  
    20   10   12 ar  
    21   11   15 ar  
    22   11   31 1   
    23   12   13 ar  
    24   12   32 1   
    25   13   14 ar  
    26   13   33 1   
    27   14   15 ar  
    28   14   17 1   
    29   15   16 1   
    30   16   21 1   
    31   16   34 1   
    32   16   35 1   
    33   17   18 1   
    34   17   19 1   
    35   18   36 1   
    36   18   37 1   
    37   18   38 1   
    38   19   20 2   
    39   19   21 1   
    40   21   22 1   
    41   22   39 1   
    42   22   40 1   
    43   22   41 1   
@<TRIPOS>SUBSTRUCTURE
     1 P9L         1 TEMP              0 ****  ****    0 ROOT
