@<TRIPOS>MOLECULE
P9M
   45    41     1     0     0
SMALL
bcc


@<TRIPOS>ATOM
      1 O3          0.6690   -2.6570   -0.1880 o         1 P9M     -0.937000
      2 S          -0.4210   -1.7970   -0.5560 ss        1 P9M      2.854000
      3 O2         -1.1180   -2.6210   -1.5040 o         1 P9M     -0.937000
      4 N2         -1.3680   -1.4470    0.7400 n2        1 P9M     -0.886000
      5 C13        -2.1190   -2.3910    1.2850 c3        1 P9M      0.035000
      6 C17        -1.3970   -3.0110    2.5250 c3        1 P9M     -0.173000
      7 C16        -2.0720   -2.5390    3.5990 c3        1 P9M     -0.158000
      8 C15        -3.5880   -2.2390    3.0870 c3        1 P9M     -0.158000
      9 C14        -3.4740   -1.7650    1.8440 c3        1 P9M     -0.173000
     10 C11         0.1640   -0.3030   -1.3100 c1        1 P9M     -0.819000
     11 C9         -0.2130    0.0120   -2.6060 c2        1 P9M      0.062000
     12 C10        -1.1570   -0.8980   -3.3610 c3        1 P9M     -0.215000
     13 C8          0.3100    1.1360   -3.2260 c1        1 P9M     -0.162000
     14 C7          1.2100    1.9450   -2.5510 c1        1 P9M     -0.056000
     15 C12         1.0650    0.5060   -0.6350 c1        1 P9M     -0.026000
     16 C6          1.5880    1.6300   -1.2550 c1        1 P9M     -0.030000
     17 C5          2.5500    2.5280   -0.5090 c2        1 P9M     -0.154000
     18 C2          2.2040    3.5710    0.3240 c1        1 P9M     -0.087000
     19 C1          0.7970    4.0100    0.6600 c2        1 P9M     -0.165500
     20 C3          3.9210    2.4920   -0.5960 c1        1 P9M      0.001000
     21 C4          4.7320    1.5440   -1.4510 c2        1 P9M     -0.165500
     22 O1          4.4150    3.4940    0.1690 os        1 P9M     -0.059000
     23 N1          3.3420    4.1660    0.7420 n2        1 P9M     -0.028000
     24 H2         -1.3730   -0.6010    1.0870 hn        1 P9M      0.242000
     25 H13        -2.3160   -3.0870    0.6270 h1        1 P9M      0.115000
     26 H171       -1.4470   -3.9890    2.4940 hc        1 P9M      0.088500
     27 H172       -0.4620   -2.7180    2.5560 hc        1 P9M      0.088500
     28 H141       -4.2340   -2.0550    1.2980 hc        1 P9M      0.088500
     29 H142       -3.4170   -0.7870    1.8560 hc        1 P9M      0.088500
     30 H161       -2.0840   -3.2120    4.3110 hc        1 P9M      0.084500
     31 H162       -1.6560   -1.7140    3.9230 hc        1 P9M      0.084500
     32 H151       -4.1130   -3.0660    3.0860 hc        1 P9M      0.084500
     33 H152       -4.0120   -1.5710    3.6650 hc        1 P9M      0.084500
     34 H12         1.3320    0.2840    0.2780 ha        1 P9M      0.159000
     35 H101       -1.9340   -1.1010   -2.7990 hc        1 P9M      0.105000
     36 H102       -1.4550   -0.4510   -4.1810 hc        1 P9M      0.105000
     37 H103       -0.6930   -1.7300   -3.5910 hc        1 P9M      0.105000
     38 H8          0.0440    1.3580   -4.1380 ha        1 P9M      0.141000
     39 H7          1.5790    2.7360   -2.9880 ha        1 P9M      0.142000
     40 H11C        0.4290    4.5270   -0.0880 ha        1 P9M      0.105667
     41 H12C        0.2380    3.2220    0.8180 ha        1 P9M      0.105667
     42 H13C        0.8130    4.5680    1.4660 ha        1 P9M      0.105667
     43 H41C        5.6370    1.9030   -1.5690 ha        1 P9M      0.105667
     44 H42C        4.7830    0.6690   -1.0120 ha        1 P9M      0.105667
     45 H43C        4.3030    1.4450   -2.3270 ha        1 P9M      0.105667
@<TRIPOS>BOND
     1    1    2 1   
     2    2    3 1   
     3    4    5 1   
     4    4   24 1   
     5    5    6 1   
     6    5    9 1   
     7    5   25 1   
     8    6    7 1   
     9    6   26 1   
    10    6   27 1   
    11    7    8 1   
    12    7   30 1   
    13    7   31 1   
    14    8    9 1   
    15    8   32 1   
    16    8   33 1   
    17    9   28 1   
    18    9   29 1   
    19   10   11 1   
    20   10   15 1   
    21   11   12 1   
    22   11   13 1   
    23   12   35 1   
    24   12   36 1   
    25   12   37 1   
    26   13   38 1   
    27   14   16 1   
    28   14   39 1   
    29   15   34 1   
    30   16   17 1   
    31   17   18 1   
    32   17   20 1   
    33   18   23 1   
    34   19   40 1   
    35   19   41 1   
    36   19   42 1   
    37   20   22 1   
    38   21   43 1   
    39   21   44 1   
    40   21   45 1   
    41   22   23 1   
@<TRIPOS>SUBSTRUCTURE
     1 P9M         1 TEMP              0 ****  ****    0 ROOT
