@<TRIPOS>MOLECULE
P9M
   45    47     1     0     0
SMALL
bcc


@<TRIPOS>ATOM
      1 O3          2.1000   -2.1660    1.5660 o         1 P9M     -0.655300
      2 S           1.6750   -0.8930    1.1300 sy        1 P9M      1.513200
      3 O2          1.3100    0.0290    2.1380 o         1 P9M     -0.655300
      4 N2          2.8170   -0.2680    0.1770 n3        1 P9M     -0.913100
      5 C13         3.1070    1.1330    0.0420 c3        1 P9M      0.235500
      6 C17         4.5610    1.5160    0.4010 c3        1 P9M     -0.093900
      7 C16         4.8860    2.7580   -0.4140 c3        1 P9M     -0.079900
      8 C15         3.8510    2.8660   -1.5280 c3        1 P9M     -0.079900
      9 C14         2.8880    1.6990   -1.3790 c3        1 P9M     -0.093900
     10 C11         0.3470   -1.0820    0.0840 ca        1 P9M     -0.367500
     11 C9          0.3450   -1.9260   -1.0380 ca        1 P9M      0.047700
     12 C10         1.5400   -2.7170   -1.4250 c3        1 P9M     -0.098800
     13 C8         -0.8080   -2.0280   -1.8270 ca        1 P9M     -0.159000
     14 C7         -1.9560   -1.3120   -1.5120 ca        1 P9M     -0.059000
     15 C12        -0.8200   -0.3710    0.3920 ca        1 P9M     -0.024000
     16 C6         -1.9790   -0.4740   -0.3850 ca        1 P9M     -0.028000
     17 C5         -3.1580    0.2730   -0.0330 cc        1 P9M     -0.281600
     18 C2         -4.5640   -0.1380   -0.1860 cc        1 P9M      0.336600
     19 C1         -5.0360   -1.4270   -0.7260 c3        1 P9M     -0.136400
     20 C3         -3.2360    1.5380    0.5360 cd        1 P9M      0.286000
     21 C4         -2.2780    2.5470    0.9830 c3        1 P9M     -0.146400
     22 O1         -4.6040    1.8530    0.6930 os        1 P9M     -0.115100
     23 N1         -5.3540    0.8570    0.2680 nd        1 P9M     -0.362300
     24 H2          3.4050   -0.8490   -0.3730 hn        1 P9M      0.445800
     25 H13         2.4200    1.6890    0.7520 h1        1 P9M      0.073700
     26 H171        4.6510    1.7110    1.4970 hc        1 P9M      0.048950
     27 H172        5.2700    0.6890    0.1440 hc        1 P9M      0.048950
     28 H141        3.0990    0.9230   -2.1570 hc        1 P9M      0.048950
     29 H142        1.8280    2.0270   -1.5090 hc        1 P9M      0.048950
     30 H161        4.8530    3.6690    0.2350 hc        1 P9M      0.044950
     31 H162        5.9190    2.6900   -0.8370 hc        1 P9M      0.044950
     32 H151        3.3010    3.8380   -1.4520 hc        1 P9M      0.044950
     33 H152        4.3440    2.8410   -2.5310 hc        1 P9M      0.044950
     34 H12        -0.8290    0.2880    1.2820 ha        1 P9M      0.165000
     35 H101        2.0690   -3.1250   -0.5260 hc        1 P9M      0.064700
     36 H102        1.2490   -3.5830   -2.0720 hc        1 P9M      0.064700
     37 H103        2.2490   -2.0780   -2.0090 hc        1 P9M      0.064700
     38 H8         -0.8040   -2.6860   -2.7100 ha        1 P9M      0.140000
     39 H7         -2.8500   -1.3950   -2.1500 ha        1 P9M      0.142000
     40 H11C       -6.0230   -1.7170   -0.2860 hc        1 P9M      0.060033
     41 H12C       -5.1550   -1.3520   -1.8370 hc        1 P9M      0.060033
     42 H13C       -4.2900   -2.2280   -0.4940 hc        1 P9M      0.060033
     43 H41C       -2.7330    3.5680    0.9490 hc        1 P9M      0.070700
     44 H42C       -1.9650    2.3330    2.0380 hc        1 P9M      0.070700
     45 H43C       -1.3690    2.5260    0.3310 hc        1 P9M      0.070700
@<TRIPOS>BOND
     1    1    2 2   
     2    2    3 2   
     3    2    4 1   
     4    2   10 1   
     5    4    5 1   
     6    4   24 1   
     7    5    6 1   
     8    5    9 1   
     9    5   25 1   
    10    6    7 1   
    11    6   26 1   
    12    6   27 1   
    13    7    8 1   
    14    7   30 1   
    15    7   31 1   
    16    8    9 1   
    17    8   32 1   
    18    8   33 1   
    19    9   28 1   
    20    9   29 1   
    21   10   11 ar  
    22   10   15 ar  
    23   11   12 1   
    24   11   13 ar  
    25   12   35 1   
    26   12   36 1   
    27   12   37 1   
    28   13   14 ar  
    29   13   38 1   
    30   14   16 ar  
    31   14   39 1   
    32   15   16 ar  
    33   15   34 1   
    34   16   17 1   
    35   17   18 1   
    36   17   20 2   
    37   18   19 1   
    38   18   23 2   
    39   19   40 1   
    40   19   41 1   
    41   19   42 1   
    42   20   21 1   
    43   20   22 1   
    44   21   43 1   
    45   21   44 1   
    46   21   45 1   
    47   22   23 1   
@<TRIPOS>SUBSTRUCTURE
     1 P9M         1 TEMP              0 ****  ****    0 ROOT
