@<TRIPOS>MOLECULE
P9M
   46    48     1     0     0
SMALL
bcc


@<TRIPOS>ATOM
      1 O3          0.3110   -0.4640    0.2490 o         1 P9M     -0.574800
      2 S           1.5990   -0.0010    0.0540 sy        1 P9M      1.480200
      3 O2          2.5470   -0.1490    1.0470 o         1 P9M     -0.574800
      4 N2          2.1700   -1.2420   -1.2850 n4        1 P9M     -0.704900
      5 C13         3.3460   -2.0810   -0.9070 c3        1 P9M      0.125500
      6 C17         3.4290   -3.3920   -1.7130 c3        1 P9M     -0.099400
      7 C16         4.3790   -3.1350   -2.8740 c3        1 P9M     -0.092900
      8 C15         5.1410   -1.8520   -2.5650 c3        1 P9M     -0.092900
      9 C14         4.6870   -1.3760   -1.1940 c3        1 P9M     -0.099400
     10 C11         1.7460    1.3390   -0.8220 ca        1 P9M     -0.531500
     11 C9          0.7730    1.8010   -1.7400 ca        1 P9M      0.075700
     12 C10        -0.4600    1.0240   -2.0110 c3        1 P9M     -0.103800
     13 C8          0.9600    3.0220   -2.3940 ca        1 P9M     -0.153000
     14 C7          2.0810    3.8050   -2.1490 ca        1 P9M      0.000000
     15 C12         2.8820    2.1530   -0.5930 ca        1 P9M     -0.021000
     16 C6          3.0610    3.3800   -1.2270 ca        1 P9M      0.012000
     17 C5          4.2130    4.1930   -0.9460 cc        1 P9M     -0.328600
     18 C2          4.2770    5.6650   -0.8990 cc        1 P9M      0.346600
     19 C1          3.1570    6.5990   -1.1190 c3        1 P9M     -0.143400
     20 C3          5.5100    3.7870   -0.6470 cd        1 P9M      0.309000
     21 C4          6.2050    2.5090   -0.4980 c3        1 P9M     -0.152400
     22 O1          6.2840    4.9460   -0.4530 os        1 P9M     -0.091100
     23 N1          5.5420    6.0240   -0.5990 nd        1 P9M     -0.329300
     24 H2          2.3910   -0.7580   -2.1540 hn        1 P9M      0.445300
     25 H13         3.2380   -2.3000    0.1960 hx        1 P9M      0.115700
     26 H171        3.8450   -4.1830   -1.0350 hc        1 P9M      0.074950
     27 H172        2.4320   -3.7540   -2.0670 hc        1 P9M      0.074950
     28 H141        4.6150   -0.2620   -1.1390 hc        1 P9M      0.074950
     29 H142        5.4150   -1.7010   -0.4050 hc        1 P9M      0.074950
     30 H161        5.0830   -3.9970   -2.9960 hc        1 P9M      0.067200
     31 H162        3.8130   -3.0350   -3.8340 hc        1 P9M      0.067200
     32 H151        6.2450   -2.0310   -2.5700 hc        1 P9M      0.067200
     33 H152        4.9290   -1.0750   -3.3420 hc        1 P9M      0.067200
     34 H12         3.6470    1.8140    0.1340 ha        1 P9M      0.169000
     35 H101       -1.1270    1.0280   -1.1070 hc        1 P9M      0.078033
     36 H102       -0.2260   -0.0410   -2.2600 hc        1 P9M      0.078033
     37 H103       -1.0360    1.4610   -2.8650 hc        1 P9M      0.078033
     38 H8          0.1990    3.3740   -3.1130 ha        1 P9M      0.171000
     39 H7          2.2130    4.7660   -2.6790 ha        1 P9M      0.174000
     40 H11C        2.1980    6.1300   -0.7840 hc        1 P9M      0.067033
     41 H12C        3.0810    6.8540   -2.2070 hc        1 P9M      0.067033
     42 H13C        3.3040    7.5520   -0.5500 hc        1 P9M      0.067033
     43 H41C        5.7350    1.7360   -1.1550 hc        1 P9M      0.073033
     44 H42C        6.1480    2.1680    0.5690 hc        1 P9M      0.073033
     45 H43C        7.2860    2.6160   -0.7720 hc        1 P9M      0.073033
     46 H22         1.3870   -1.8690   -1.4830 hn        1 P9M      0.445300
@<TRIPOS>BOND
     1    1    2 2   
     2    2    3 2   
     3    2    4 1   
     4    2   10 1   
     5    4    5 1   
     6    4   24 1   
     7    4   46 1   
     8    5    6 1   
     9    5    9 1   
    10    5   25 1   
    11    6    7 1   
    12    6   26 1   
    13    6   27 1   
    14    7    8 1   
    15    7   30 1   
    16    7   31 1   
    17    8    9 1   
    18    8   32 1   
    19    8   33 1   
    20    9   28 1   
    21    9   29 1   
    22   10   11 ar  
    23   10   15 ar  
    24   11   12 1   
    25   11   13 ar  
    26   12   35 1   
    27   12   36 1   
    28   12   37 1   
    29   13   14 ar  
    30   13   38 1   
    31   14   16 ar  
    32   14   39 1   
    33   15   16 ar  
    34   15   34 1   
    35   16   17 1   
    36   17   18 1   
    37   17   20 2   
    38   18   19 1   
    39   18   23 2   
    40   19   40 1   
    41   19   41 1   
    42   19   42 1   
    43   20   21 1   
    44   20   22 1   
    45   21   43 1   
    46   21   44 1   
    47   21   45 1   
    48   22   23 1   
@<TRIPOS>SUBSTRUCTURE
     1 P9M         1 TEMP              0 ****  ****    0 ROOT
