@<TRIPOS>MOLECULE
P9M
   46    48     1     0     0
SMALL
bcc


@<TRIPOS>ATOM
      1 O3          0.3100   -0.4750    0.2360 o         1 P9M     -0.574800
      2 S           1.5970   -0.0080    0.0470 sy        1 P9M      1.480200
      3 O2          2.5420   -0.1520    1.0440 o         1 P9M     -0.574800
      4 N2          2.1790   -1.2460   -1.2900 ny        1 P9M     -0.704900
      5 C13         3.3580   -2.0800   -0.9070 c3        1 P9M      0.125500
      6 C17         3.4490   -3.3920   -1.7110 c3        1 P9M     -0.099400
      7 C16         4.4010   -3.1310   -2.8700 c3        1 P9M     -0.092900
      8 C15         5.1560   -1.8440   -2.5600 c3        1 P9M     -0.092900
      9 C14         4.6960   -1.3690   -1.1900 c3        1 P9M     -0.099400
     10 C11         1.7440    1.3330   -0.8280 ca        1 P9M     -0.531500
     11 C9          0.7720    1.7900   -1.7510 ca        1 P9M      0.075700
     12 C10        -0.4570    1.0090   -2.0270 c3        1 P9M     -0.103800
     13 C8          0.9570    3.0130   -2.4040 ca        1 P9M     -0.153000
     14 C7          2.0740    3.8010   -2.1530 ca        1 P9M      0.000000
     15 C12         2.8750    2.1520   -0.5940 ca        1 P9M     -0.021000
     16 C6          3.0510    3.3800   -1.2270 ca        1 P9M      0.012000
     17 C5          4.1990    4.1970   -0.9410 cc        1 P9M     -0.328600
     18 C2          4.2570    5.6700   -0.8940 cc        1 P9M      0.346600
     19 C1          3.1330    6.5990   -1.1190 c3        1 P9M     -0.143400
     20 C3          5.4960    3.7960   -0.6350 cd        1 P9M      0.309000
     21 C4          6.1960    2.5220   -0.4830 c3        1 P9M     -0.152400
     22 O1          6.2640    4.9580   -0.4380 os        1 P9M     -0.091100
     23 N1          5.5180    6.0340   -0.5880 nd        1 P9M     -0.329300
     24 H2          1.4000   -1.8770   -1.4900 hn        1 P9M      0.445300
     25 H13         3.2480   -2.2980    0.1960 hx        1 P9M      0.115700
     26 H171        3.8670   -4.1800   -1.0320 hc        1 P9M      0.074950
     27 H172        2.4550   -3.7580   -2.0680 hc        1 P9M      0.074950
     28 H141        4.6190   -0.2550   -1.1370 hc        1 P9M      0.074950
     29 H142        5.4230   -1.6900   -0.3990 hc        1 P9M      0.074950
     30 H161        5.1100   -3.9900   -2.9890 hc        1 P9M      0.067200
     31 H162        3.8380   -3.0350   -3.8320 hc        1 P9M      0.067200
     32 H151        4.9440   -1.0680   -3.3390 hc        1 P9M      0.067200
     33 H152        6.2620   -2.0180   -2.5620 hc        1 P9M      0.067200
     34 H12         3.6380    1.8150    0.1370 ha        1 P9M      0.169000
     35 H101       -0.2170   -0.0550   -2.2760 hc        1 P9M      0.078033
     36 H102       -1.0300    1.4430   -2.8850 hc        1 P9M      0.078033
     37 H103       -1.1280    1.0100   -1.1270 hc        1 P9M      0.078033
     38 H8          0.1990    3.3610   -3.1270 ha        1 P9M      0.171000
     39 H7          2.2040    4.7620   -2.6830 ha        1 P9M      0.174000
     40 H11C        3.0610    6.8540   -2.2070 hc        1 P9M      0.067033
     41 H12C        3.2740    7.5530   -0.5480 hc        1 P9M      0.067033
     42 H13C        2.1750    6.1260   -0.7880 hc        1 P9M      0.067033
     43 H41C        7.2780    2.6330   -0.7520 hc        1 P9M      0.073033
     44 H42C        5.7320    1.7460   -1.1420 hc        1 P9M      0.073033
     45 H43C        6.1350    2.1800    0.5830 hc        1 P9M      0.073033
     46 H22         2.4010   -0.7620   -2.1580 hn        1 P9M      0.445300
@<TRIPOS>BOND
     1    1    2 2   
     2    2    3 2   
     3    2    4 1   
     4    2   10 1   
     5    4    5 1   
     6    4   24 1   
     7    4   46 1   
     8    5    6 1   
     9    5    9 1   
    10    5   25 1   
    11    6    7 1   
    12    6   26 1   
    13    6   27 1   
    14    7    8 1   
    15    7   30 1   
    16    7   31 1   
    17    8    9 1   
    18    8   32 1   
    19    8   33 1   
    20    9   28 1   
    21    9   29 1   
    22   10   11 ar  
    23   10   15 ar  
    24   11   12 1   
    25   11   13 ar  
    26   12   35 1   
    27   12   36 1   
    28   12   37 1   
    29   13   14 ar  
    30   13   38 1   
    31   14   16 ar  
    32   14   39 1   
    33   15   16 ar  
    34   15   34 1   
    35   16   17 1   
    36   17   18 1   
    37   17   20 2   
    38   18   19 1   
    39   18   23 2   
    40   19   40 1   
    41   19   41 1   
    42   19   42 1   
    43   20   21 1   
    44   20   22 1   
    45   21   43 1   
    46   21   44 1   
    47   21   45 1   
    48   22   23 1   
@<TRIPOS>SUBSTRUCTURE
     1 P9M         1 TEMP              0 ****  ****    0 ROOT
