@<TRIPOS>MOLECULE
PA1
   26    26     1     0     0
SMALL
bcc


@<TRIPOS>ATOM
      1 C1          0.1270    0.1400   -0.2500 c3        1 PA1      0.333900
      2 O1         -0.4980   -1.0760    0.0780 oh        1 PA1     -0.655800
      3 C2          1.6480   -0.0450    0.0010 c3        1 PA1      0.083500
      4 N2          2.1910   -1.2250   -0.7440 nz        1 PA1     -0.827600
      5 C3          1.9080   -0.2100    1.5150 c3        1 PA1      0.128100
      6 O3          3.3110   -0.2910    1.6670 oh        1 PA1     -0.630800
      7 C4          1.3020    0.9980    2.2540 c3        1 PA1      0.104100
      8 O4          1.5720    0.7420    3.6170 oh        1 PA1     -0.599800
      9 C5         -0.2010    1.0670    1.9520 c3        1 PA1      0.094100
     10 O5         -0.4280    1.1570    0.5370 os        1 PA1     -0.413600
     11 C6         -0.8490    2.3380    2.5220 c3        1 PA1      0.132400
     12 O6         -0.9050    2.1450    3.9240 oh        1 PA1     -0.616800
     13 H1         -0.0860    0.4520   -1.3150 h2        1 PA1      0.104700
     14 HO1        -1.4560   -0.9290    0.1150 ho        1 PA1      0.468000
     15 H2          2.1910    0.8760   -0.3690 hx        1 PA1      0.134700
     16 HN21        1.6090   -2.0480   -0.5380 hn        1 PA1      0.472133
     17 HN22        2.1820   -1.0470   -1.7500 hn        1 PA1      0.472133
     18 H3          1.4290   -1.1560    1.9010 h1        1 PA1      0.091700
     19 HO3         3.5150   -0.1120    2.6000 ho        1 PA1      0.474000
     20 H4          1.8140    1.9500    1.9370 h1        1 PA1      0.071700
     21 HO4         1.0420    1.3530    4.1530 ho        1 PA1      0.461000
     22 H5         -0.7140    0.1520    2.3580 h1        1 PA1      0.091700
     23 H61        -1.8760    2.4640    2.0870 h1        1 PA1      0.057700
     24 H62        -0.2260    3.2390    2.2820 h1        1 PA1      0.057700
     25 HO6        -1.4820    2.8300    4.2840 ho        1 PA1      0.438000
     26 H23         3.1540   -1.3980   -0.4240 hn        1 PA1      0.472133
@<TRIPOS>BOND
     1    1    2 1   
     2    1    3 1   
     3    1   10 1   
     4    1   13 1   
     5    2   14 1   
     6    3    4 1   
     7    3    5 1   
     8    3   15 1   
     9    4   16 1   
    10    4   17 1   
    11    4   26 1   
    12    5    6 1   
    13    5    7 1   
    14    5   18 1   
    15    6   19 1   
    16    7    8 1   
    17    7    9 1   
    18    7   20 1   
    19    8   21 1   
    20    9   10 1   
    21    9   11 1   
    22    9   22 1   
    23   11   12 1   
    24   11   23 1   
    25   11   24 1   
    26   12   25 1   
@<TRIPOS>SUBSTRUCTURE
     1 PA1         1 TEMP              0 ****  ****    0 ROOT
