@<TRIPOS>MOLECULE
PA1
   26    26     1     0     0
SMALL
bcc


@<TRIPOS>ATOM
      1 C1          0.1050    0.1150   -0.2350 c3        1 PA1      0.332900
      2 O1         -0.5170   -1.0920    0.1340 oh        1 PA1     -0.655800
      3 C2          1.6280   -0.0600    0.0170 c3        1 PA1      0.084500
      4 N2          2.1690   -1.2610   -0.6940 n4        1 PA1     -0.827600
      5 C3          1.8910   -0.1790    1.5350 c3        1 PA1      0.128100
      6 O3          3.2950   -0.2590    1.6880 oh        1 PA1     -0.629800
      7 C4          1.2910    1.0550    2.2320 c3        1 PA1      0.105100
      8 O4          1.5460    0.8440    3.6050 oh        1 PA1     -0.601800
      9 C5         -0.2150    1.1150    1.9370 c3        1 PA1      0.060100
     10 O5         -0.4510    1.1530    0.5220 os        1 PA1     -0.410600
     11 C6         -0.8490    2.4080    2.4760 c3        1 PA1      0.132400
     12 O6         -0.6900    2.4630    3.8750 oh        1 PA1     -0.593800
     13 H1         -0.1110    0.3940   -1.3080 h2        1 PA1      0.104700
     14 HO1        -1.4750   -0.9500    0.1480 ho        1 PA1      0.467000
     15 H2          2.1680    0.8500   -0.3830 hx        1 PA1      0.134700
     16 HN21        3.1330   -1.4250   -0.3710 hn        1 PA1      0.472133
     17 HN22        1.5890   -2.0790   -0.4620 hn        1 PA1      0.472133
     18 H3          1.4100   -1.1110    1.9520 h1        1 PA1      0.090700
     19 HO3         3.5000   -0.0530    2.6140 ho        1 PA1      0.472000
     20 H4          1.7990    1.9950    1.8770 h1        1 PA1      0.073700
     21 HO4         1.2240    1.6220    4.0890 ho        1 PA1      0.460000
     22 H5         -0.7210    0.2110    2.3740 h1        1 PA1      0.075700
     23 H61        -1.9260    2.4560    2.1710 h1        1 PA1      0.078700
     24 H62        -0.3030    3.3070    2.0790 h1        1 PA1      0.078700
     25 HO6        -1.3720    1.9090    4.2780 ho        1 PA1      0.422000
     26 H23         2.1580   -1.1130   -1.7050 hn        1 PA1      0.472133
@<TRIPOS>BOND
     1    1    2 1   
     2    1    3 1   
     3    1   10 1   
     4    1   13 1   
     5    2   14 1   
     6    3    4 1   
     7    3    5 1   
     8    3   15 1   
     9    4   16 1   
    10    4   17 1   
    11    4   26 1   
    12    5    6 1   
    13    5    7 1   
    14    5   18 1   
    15    6   19 1   
    16    7    8 1   
    17    7    9 1   
    18    7   20 1   
    19    8   21 1   
    20    9   10 1   
    21    9   11 1   
    22    9   22 1   
    23   11   12 1   
    24   11   23 1   
    25   11   24 1   
    26   12   25 1   
@<TRIPOS>SUBSTRUCTURE
     1 PA1         1 TEMP              0 ****  ****    0 ROOT
