@<TRIPOS>MOLECULE
PA1
   26    26     1     0     0
SMALL
bcc


@<TRIPOS>ATOM
      1 C1          0.1250    0.1780   -0.2580 c3        1 PA1      0.332900
      2 O1         -0.5410   -1.0170    0.0660 oh        1 PA1     -0.655800
      3 C2          1.6370   -0.0510    0.0180 c3        1 PA1      0.084500
      4 N2          2.1550   -1.2500   -0.7130 n4        1 PA1     -0.827600
      5 C3          1.8660   -0.2170    1.5370 c3        1 PA1      0.128100
      6 O3          3.2620   -0.3450    1.7150 oh        1 PA1     -0.629800
      7 C4          1.2900    1.0170    2.2540 c3        1 PA1      0.105100
      8 O4          1.5110    0.7630    3.6260 oh        1 PA1     -0.601800
      9 C5         -0.2070    1.1320    1.9320 c3        1 PA1      0.060100
     10 O5         -0.4130    1.2140    0.5150 os        1 PA1     -0.410600
     11 C6         -0.8110    2.4310    2.4930 c3        1 PA1      0.132400
     12 O6         -0.6780    2.4450    3.8960 oh        1 PA1     -0.593800
     13 H1         -0.0600    0.4910   -1.3280 h2        1 PA1      0.104700
     14 HO1        -1.4950   -0.8450    0.0660 ho        1 PA1      0.467000
     15 H2          2.2130    0.8510   -0.3470 hx        1 PA1      0.134700
     16 HN21        1.5450   -2.0540   -0.5150 hn        1 PA1      0.472133
     17 HN22        2.1690   -1.0760   -1.7200 hn        1 PA1      0.472133
     18 H3          1.3480   -1.1430    1.9200 h1        1 PA1      0.090700
     19 HO3         3.4550   -0.1700    2.6500 ho        1 PA1      0.472000
     20 H4          1.8340    1.9490    1.9340 h1        1 PA1      0.073700
     21 HO4         1.2040    1.5380    4.1250 ho        1 PA1      0.460000
     22 H5         -0.7490    0.2340    2.3350 h1        1 PA1      0.075700
     23 H61        -0.2300    3.3210    2.1290 h1        1 PA1      0.078700
     24 H62        -1.8790    2.5210    2.1690 h1        1 PA1      0.078700
     25 HO6        -1.3850    1.9030    4.2700 ho        1 PA1      0.422000
     26 H23         3.1070   -1.4520   -0.3770 hn        1 PA1      0.472133
@<TRIPOS>BOND
     1    1    2 1   
     2    1    3 1   
     3    1   10 1   
     4    1   13 1   
     5    2   14 1   
     6    3    4 1   
     7    3    5 1   
     8    3   15 1   
     9    4   16 1   
    10    4   17 1   
    11    4   26 1   
    12    5    6 1   
    13    5    7 1   
    14    5   18 1   
    15    6   19 1   
    16    7    8 1   
    17    7    9 1   
    18    7   20 1   
    19    8   21 1   
    20    9   10 1   
    21    9   11 1   
    22    9   22 1   
    23   11   12 1   
    24   11   23 1   
    25   11   24 1   
    26   12   25 1   
@<TRIPOS>SUBSTRUCTURE
     1 PA1         1 TEMP              0 ****  ****    0 ROOT
