@<TRIPOS>MOLECULE
PA1
   25    25     1     0     0
SMALL
bcc


@<TRIPOS>ATOM
      1 C1         -0.7640    0.3370   -1.2990 c3        1 PA1      0.301900
      2 O1         -1.2110    0.1660   -2.5940 oh        1 PA1     -0.591800
      3 C2          0.7490    0.3370   -1.2990 c3        1 PA1      0.097500
      4 N2          1.2190   -0.8480   -2.0010 n3        1 PA1     -0.897800
      5 C3          1.3120    0.3370    0.0730 c3        1 PA1      0.143100
      6 O3          1.0320    1.6160    0.6950 oh        1 PA1     -0.605800
      7 C4          0.7350   -0.7500    0.9210 c3        1 PA1      0.114100
      8 O4          1.1990   -2.0130    0.4340 oh        1 PA1     -0.596800
      9 C5         -0.7840   -0.7470    0.9100 c3        1 PA1      0.093100
     10 O5         -1.3340   -0.7420   -0.4460 os        1 PA1     -0.452600
     11 C6         -1.2710    0.4690    1.6340 c3        1 PA1      0.092400
     12 O6         -2.5980    0.2580    2.0690 oh        1 PA1     -0.591800
     13 H1         -1.0790    1.2000   -0.9680 h2        1 PA1      0.083700
     14 HO1        -1.9880    0.5820   -2.6960 ho        1 PA1      0.422000
     15 H2          1.0650    1.1310   -1.7710 h1        1 PA1      0.072700
     16 HN21        0.8130   -0.9010   -2.8150 hn        1 PA1      0.362800
     17 HN22        2.1230   -0.7960   -2.1140 hn        1 PA1      0.362800
     18 H3          2.2800    0.2170    0.0180 h1        1 PA1      0.077700
     19 HO3         1.7900    2.0630    0.8070 ho        1 PA1      0.414000
     20 H4          1.0450   -0.6320    1.8400 h1        1 PA1      0.074700
     21 HO4         1.5240   -2.4890    1.1080 ho        1 PA1      0.409000
     22 H5         -1.1040   -1.5420    1.3770 h1        1 PA1      0.072700
     23 H61        -0.6990    0.6390    2.4070 h1        1 PA1      0.072200
     24 H62        -1.2430    1.2390    1.0340 h1        1 PA1      0.072200
     25 HO6        -2.8110    0.8690    2.6770 ho        1 PA1      0.398000
@<TRIPOS>BOND
     1    1    2 1   
     2    1    3 1   
     3    1   10 1   
     4    1   13 1   
     5    2   14 1   
     6    3    4 1   
     7    3    5 1   
     8    3   15 1   
     9    4   16 1   
    10    4   17 1   
    11    5    6 1   
    12    5    7 1   
    13    5   18 1   
    14    6   19 1   
    15    7    8 1   
    16    7    9 1   
    17    7   20 1   
    18    8   21 1   
    19    9   10 1   
    20    9   11 1   
    21    9   22 1   
    22   11   12 1   
    23   11   23 1   
    24   11   24 1   
    25   12   25 1   
@<TRIPOS>SUBSTRUCTURE
     1 PA1         1 TEMP              0 ****  ****    0 ROOT
