@<TRIPOS>MOLECULE
PA1
   25    25     1     0     0
SMALL
bcc


@<TRIPOS>ATOM
      1 C1          1.6440    0.2300    0.3610 c3        1 PA1      0.334900
      2 O1          1.9020   -1.1490    0.4570 oh        1 PA1     -0.622800
      3 C2          0.6960    0.6500    1.5110 c3        1 PA1      0.164500
      4 N2          1.3170    0.4660    2.8020 n3        1 PA1     -0.893800
      5 C3         -0.6510   -0.0880    1.3140 c3        1 PA1      0.107100
      6 O3         -1.5360    0.3840    2.3140 oh        1 PA1     -0.604800
      7 C4         -1.2010    0.2250   -0.0880 c3        1 PA1      0.083100
      8 O4         -2.4030   -0.5230   -0.2010 oh        1 PA1     -0.599800
      9 C5         -0.1790   -0.1990   -1.1490 c3        1 PA1      0.072100
     10 O5          1.0810    0.4390   -0.9210 os        1 PA1     -0.461600
     11 C6         -0.6030    0.2400   -2.5540 c3        1 PA1      0.135400
     12 O6          0.3250   -0.1830   -3.5270 oh        1 PA1     -0.591800
     13 H1          2.5870    0.8490    0.3560 h2        1 PA1      0.089700
     14 HO1         2.5290   -1.3760   -0.2410 ho        1 PA1      0.420000
     15 H2          0.5000    1.7570    1.3880 h1        1 PA1      0.082700
     16 HN21        0.6670    0.7150    3.5240 hn        1 PA1      0.365300
     17 HN22        1.5980   -0.4880    2.9230 hn        1 PA1      0.365300
     18 H3         -0.5110   -1.2000    1.4180 h1        1 PA1      0.067700
     19 HO3        -2.3930   -0.0250    2.1370 ho        1 PA1      0.424000
     20 H4         -1.4230    1.3250   -0.1760 h1        1 PA1      0.057700
     21 HO4        -2.8110   -0.2780   -1.0400 ho        1 PA1      0.409000
     22 H5         -0.0330   -1.3150   -1.1130 h1        1 PA1      0.079700
     23 H61        -1.5670   -0.2620   -2.8330 h1        1 PA1      0.051200
     24 H62        -0.7220    1.3560   -2.5870 h1        1 PA1      0.051200
     25 HO6         1.1820    0.1900   -3.2840 ho        1 PA1      0.415000
@<TRIPOS>BOND
     1    1    2 1   
     2    1    3 1   
     3    1   10 1   
     4    1   13 1   
     5    2   14 1   
     6    3    4 1   
     7    3    5 1   
     8    3   15 1   
     9    4   16 1   
    10    4   17 1   
    11    5    6 1   
    12    5    7 1   
    13    5   18 1   
    14    6   19 1   
    15    7    8 1   
    16    7    9 1   
    17    7   20 1   
    18    8   21 1   
    19    9   10 1   
    20    9   11 1   
    21    9   22 1   
    22   11   12 1   
    23   11   23 1   
    24   11   24 1   
    25   12   25 1   
@<TRIPOS>SUBSTRUCTURE
     1 PA1         1 TEMP              0 ****  ****    0 ROOT
