@<TRIPOS>MOLECULE
PA2
   26    26     1     0     0
SMALL
bcc


@<TRIPOS>ATOM
      1 C1         -0.0240    0.0590   -0.0420 c3        1 PA2      0.122500
      2 N1         -0.5580   -0.0470   -1.4400 nz        1 PA2     -0.834600
      3 C2          1.5270    0.0300   -0.0590 c3        1 PA2      0.127100
      4 O2          1.8830   -1.1460   -0.7540 oh        1 PA2     -0.617800
      5 C3          2.0420   -0.0030    1.3940 c3        1 PA2      0.129100
      6 O3          3.4470    0.0540    1.2630 oh        1 PA2     -0.572800
      7 C4          1.5430    1.2200    2.1650 c3        1 PA2     -0.160400
      8 C5          0.0140    1.2780    2.1320 c3        1 PA2      0.136500
      9 N5         -0.4880    2.4540    2.9250 nz        1 PA2     -0.842600
     10 C6         -0.5030    1.3210    0.6840 c3        1 PA2     -0.132400
     11 H1         -0.3920   -0.8670    0.5020 hx        1 PA2      0.134700
     12 HN11       -1.5740   -0.1780   -1.4330 hn        1 PA2      0.481800
     13 HN12       -0.1070   -0.8660   -1.8900 hn        1 PA2      0.481800
     14 H2          1.9460    0.9330   -0.5880 h1        1 PA2      0.091700
     15 HO2         2.8450   -1.2650   -0.6700 ho        1 PA2      0.487000
     16 H3          1.7180   -0.9550    1.8990 h1        1 PA2      0.081700
     17 HO3         3.8450   -0.3070    2.0700 ho        1 PA2      0.454000
     18 H41         1.9950    2.1430    1.7090 hc        1 PA2      0.103700
     19 H42         1.9150    1.1480    3.2230 hc        1 PA2      0.103700
     20 H5         -0.4030    0.3550    2.6460 hx        1 PA2      0.125700
     21 HN51       -1.5150    2.4760    2.9260 hn        1 PA2      0.476800
     22 HN52       -0.1360    3.3340    2.5280 hn        1 PA2      0.476800
     23 H61        -1.6260    1.3640    0.6760 hc        1 PA2      0.093700
     24 H62        -0.1110    2.2360    0.1630 hc        1 PA2      0.093700
     25 H13        -0.3250    0.7890   -1.9850 hn        1 PA2      0.481800
     26 H53        -0.1540    2.3780    3.8960 hn        1 PA2      0.476800
@<TRIPOS>BOND
     1    1    2 1   
     2    1    3 1   
     3    1   10 1   
     4    1   11 1   
     5    2   12 1   
     6    2   13 1   
     7    2   25 1   
     8    3    4 1   
     9    3    5 1   
    10    3   14 1   
    11    4   15 1   
    12    5    6 1   
    13    5    7 1   
    14    5   16 1   
    15    6   17 1   
    16    7    8 1   
    17    7   18 1   
    18    7   19 1   
    19    8    9 1   
    20    8   10 1   
    21    8   20 1   
    22    9   21 1   
    23    9   22 1   
    24    9   26 1   
    25   10   23 1   
    26   10   24 1   
@<TRIPOS>SUBSTRUCTURE
     1 PA2         1 TEMP              0 ****  ****    0 ROOT
