@<TRIPOS>MOLECULE
PA2
   26    26     1     0     0
SMALL
bcc


@<TRIPOS>ATOM
      1 C1         -0.0210    0.0640   -0.0470 c3        1 PA2      0.122500
      2 N1         -0.5520   -0.0350   -1.4470 n4        1 PA2     -0.834600
      3 C2          1.5290    0.0350   -0.0610 c3        1 PA2      0.127100
      4 O2          1.8860   -1.1380   -0.7610 oh        1 PA2     -0.617800
      5 C3          2.0410   -0.0060    1.3930 c3        1 PA2      0.129100
      6 O3          3.4460    0.0520    1.2660 oh        1 PA2     -0.572800
      7 C4          1.5410    1.2140    2.1700 c3        1 PA2     -0.160400
      8 C5          0.0120    1.2720    2.1340 c3        1 PA2      0.136500
      9 N5         -0.4920    2.4450    2.9320 n4        1 PA2     -0.842600
     10 C6         -0.5020    1.3220    0.6850 c3        1 PA2     -0.132400
     11 H1         -0.3910   -0.8650    0.4910 hx        1 PA2      0.134700
     12 HN11       -0.3180    0.8050   -1.9870 hn        1 PA2      0.481800
     13 HN12       -0.1010   -0.8510   -1.9000 hn        1 PA2      0.481800
     14 H2          1.9500    0.9410   -0.5840 h1        1 PA2      0.091700
     15 HO2         2.8490   -1.2570   -0.6750 ho        1 PA2      0.487000
     16 H3          1.7150   -0.9600    1.8930 h1        1 PA2      0.081700
     17 HO3         3.8420   -0.3140    2.0710 ho        1 PA2      0.454000
     18 H41         1.9110    1.1350    3.2280 hc        1 PA2      0.103700
     19 H42         1.9940    2.1390    1.7190 hc        1 PA2      0.103700
     20 H5         -0.4070    0.3460    2.6410 hx        1 PA2      0.125700
     21 HN51       -0.1380    3.3250    2.5400 hn        1 PA2      0.476800
     22 HN52       -0.1600    2.3630    3.9030 hn        1 PA2      0.476800
     23 H61        -0.1090    2.2400    0.1690 hc        1 PA2      0.093700
     24 H62        -1.6250    1.3660    0.6750 hc        1 PA2      0.093700
     25 H13        -1.5690   -0.1660   -1.4430 hn        1 PA2      0.481800
     26 H53        -1.5190    2.4660    2.9300 hn        1 PA2      0.476800
@<TRIPOS>BOND
     1    1    2 1   
     2    1    3 1   
     3    1   10 1   
     4    1   11 1   
     5    2   12 1   
     6    2   13 1   
     7    2   25 1   
     8    3    4 1   
     9    3    5 1   
    10    3   14 1   
    11    4   15 1   
    12    5    6 1   
    13    5    7 1   
    14    5   16 1   
    15    6   17 1   
    16    7    8 1   
    17    7   18 1   
    18    7   19 1   
    19    8    9 1   
    20    8   10 1   
    21    8   20 1   
    22    9   21 1   
    23    9   22 1   
    24    9   26 1   
    25   10   23 1   
    26   10   24 1   
@<TRIPOS>SUBSTRUCTURE
     1 PA2         1 TEMP              0 ****  ****    0 ROOT
