@<TRIPOS>MOLECULE
PA2
   26    26     1     0     0
SMALL
bcc


@<TRIPOS>ATOM
      1 C1         -0.0230    0.0680   -0.0460 c3        1 PA2      0.122500
      2 N1         -0.5500   -0.0280   -1.4470 n4        1 PA2     -0.834600
      3 C2          1.5270    0.0190   -0.0530 c3        1 PA2      0.127100
      4 O2          1.8720   -1.1600   -0.7490 oh        1 PA2     -0.617800
      5 C3          2.0330   -0.0230    1.4030 c3        1 PA2      0.129100
      6 O3          3.4390    0.0160    1.2810 oh        1 PA2     -0.572800
      7 C4          1.5450    1.2050    2.1730 c3        1 PA2     -0.160400
      8 C5          0.0170    1.2820    2.1310 c3        1 PA2      0.136500
      9 N5         -0.4760    2.4630    2.9240 n4        1 PA2     -0.842600
     10 C6         -0.4900    1.3340    0.6800 c3        1 PA2     -0.132400
     11 H1         -0.4060   -0.8540    0.4940 hx        1 PA2      0.134700
     12 HN11       -0.3030    0.8070   -1.9890 hn        1 PA2      0.481800
     13 HN12       -1.5680   -0.1460   -1.4470 hn        1 PA2      0.481800
     14 H2          1.9610    0.9180   -0.5780 h1        1 PA2      0.091700
     15 HO2         2.8330   -1.2910   -0.6590 ho        1 PA2      0.487000
     16 H3          1.6930   -0.9720    1.9040 h1        1 PA2      0.081700
     17 HO3         3.8270   -0.3520    2.0890 ho        1 PA2      0.454000
     18 H41         1.9090    1.1250    3.2330 hc        1 PA2      0.103700
     19 H42         2.0110    2.1230    1.7220 hc        1 PA2      0.103700
     20 H5         -0.4160    0.3630    2.6400 hx        1 PA2      0.125700
     21 HN51       -1.5010    2.4980    2.9180 hn        1 PA2      0.476800
     22 HN52       -0.1480    2.3800    3.8960 hn        1 PA2      0.476800
     23 H61        -0.0840    2.2460    0.1630 hc        1 PA2      0.093700
     24 H62        -1.6130    1.3930    0.6650 hc        1 PA2      0.093700
     25 H13        -0.1070   -0.8510   -1.8960 hn        1 PA2      0.481800
     26 H53        -0.1090    3.3390    2.5310 hn        1 PA2      0.476800
@<TRIPOS>BOND
     1    1    2 1   
     2    1    3 1   
     3    1   10 1   
     4    1   11 1   
     5    2   12 1   
     6    2   13 1   
     7    2   25 1   
     8    3    4 1   
     9    3    5 1   
    10    3   14 1   
    11    4   15 1   
    12    5    6 1   
    13    5    7 1   
    14    5   16 1   
    15    6   17 1   
    16    7    8 1   
    17    7   18 1   
    18    7   19 1   
    19    8    9 1   
    20    8   10 1   
    21    8   20 1   
    22    9   21 1   
    23    9   22 1   
    24    9   26 1   
    25   10   23 1   
    26   10   24 1   
@<TRIPOS>SUBSTRUCTURE
     1 PA2         1 TEMP              0 ****  ****    0 ROOT
