@<TRIPOS>MOLECULE
PA2
   24    24     1     0     0
SMALL
bcc


@<TRIPOS>ATOM
      1 C1         -1.3270   -0.2550   -0.3250 c3        1 PA2      0.173500
      2 N1         -2.6010    0.1010   -0.9160 n3        1 PA2     -0.892800
      3 C2         -0.0940    0.3270   -1.0670 c3        1 PA2      0.106100
      4 O2         -0.1830   -0.0880   -2.4200 oh        1 PA2     -0.607800
      5 C3          1.1980   -0.2020   -0.4260 c3        1 PA2      0.112100
      6 O3          2.2600    0.4050   -1.1540 oh        1 PA2     -0.611800
      7 C4          1.2620    0.1600    1.0490 c3        1 PA2     -0.152400
      8 C5          0.0360   -0.3990    1.7900 c3        1 PA2      0.169500
      9 N5          0.0540   -0.1840    3.2250 n3        1 PA2     -0.900800
     10 C6         -1.2400    0.1660    1.1490 c3        1 PA2     -0.078400
     11 H1         -1.2520   -1.3820   -0.3850 h1        1 PA2      0.071700
     12 HN11       -2.7420    1.0920   -0.8800 hn        1 PA2      0.354300
     13 HN12       -2.6170   -0.1930   -1.8740 hn        1 PA2      0.354300
     14 H2         -0.0960    1.4520   -1.0220 h1        1 PA2      0.045700
     15 HO2         0.6390    0.1850   -2.8480 ho        1 PA2      0.422000
     16 H3          1.2520   -1.3200   -0.5590 h1        1 PA2      0.050700
     17 HO3         3.0840    0.0900   -0.7650 ho        1 PA2      0.408000
     18 H41         1.3050    1.2750    1.1550 hc        1 PA2      0.048200
     19 H42         2.2040   -0.2590    1.4900 hc        1 PA2      0.048200
     20 H5          0.0320   -1.5230    1.6440 h1        1 PA2      0.063700
     21 HN51        0.9280   -0.4840    3.6090 hn        1 PA2      0.348300
     22 HN52       -0.0830    0.7830    3.4430 hn        1 PA2      0.348300
     23 H61        -2.1380   -0.2210    1.6970 hc        1 PA2      0.060200
     24 H62        -1.2440    1.2840    1.2280 hc        1 PA2      0.060200
@<TRIPOS>BOND
     1    1    2 1   
     2    1    3 1   
     3    1   10 1   
     4    1   11 1   
     5    2   12 1   
     6    2   13 1   
     7    3    4 1   
     8    3    5 1   
     9    3   14 1   
    10    4   15 1   
    11    5    6 1   
    12    5    7 1   
    13    5   16 1   
    14    6   17 1   
    15    7    8 1   
    16    7   18 1   
    17    7   19 1   
    18    8    9 1   
    19    8   10 1   
    20    8   20 1   
    21    9   21 1   
    22    9   22 1   
    23   10   23 1   
    24   10   24 1   
@<TRIPOS>SUBSTRUCTURE
     1 PA2         1 TEMP              0 ****  ****    0 ROOT
