@<TRIPOS>MOLECULE
PA3
   18    18     1     0     0
SMALL
bcc


@<TRIPOS>ATOM
      1 C1          0.0450   -0.0990    0.1800 c3        1 PA3      0.095400
      2 C2          1.5740    0.0580    0.1560 c3        1 PA3      0.116100
      3 O2          2.1870   -0.8190   -0.7730 oh        1 PA3     -0.590800
      4 C3          2.0490   -0.3470    1.5560 c3        1 PA3     -0.101400
      5 C4          0.7890   -0.7150    2.3330 c3        1 PA3      0.096100
      6 O4         -0.3560   -0.5070    1.4870 os        1 PA3     -0.429600
      7 C5          0.6010    0.1440    3.5850 c3        1 PA3      0.124400
      8 O5         -0.5440   -0.2480    4.3110 oh        1 PA3     -0.596800
      9 H11        -0.4790    0.8670   -0.0330 h1        1 PA3      0.053200
     10 H12        -0.2970   -0.8910   -0.5350 h1        1 PA3      0.053200
     11 H2          1.8620    1.1170   -0.0850 h1        1 PA3      0.046700
     12 HO2         1.8520   -0.5820   -1.6460 ho        1 PA3      0.404000
     13 H31         2.7450   -1.2210    1.4870 hc        1 PA3      0.071700
     14 H32         2.5950    0.4980    2.0410 hc        1 PA3      0.071700
     15 H4          0.7730   -1.8040    2.6130 h1        1 PA3      0.074700
     16 H51         0.5240    1.2280    3.3010 h1        1 PA3      0.048700
     17 H52         1.4610   -0.0070    4.2890 h1        1 PA3      0.048700
     18 HO5        -1.2880   -0.2370    3.6940 ho        1 PA3      0.415000
@<TRIPOS>BOND
     1    1    2 1   
     2    1    6 1   
     3    1    9 1   
     4    1   10 1   
     5    2    3 1   
     6    2    4 1   
     7    2   11 1   
     8    3   12 1   
     9    4    5 1   
    10    4   13 1   
    11    4   14 1   
    12    5    6 1   
    13    5    7 1   
    14    5   15 1   
    15    7    8 1   
    16    7   16 1   
    17    7   17 1   
    18    8   18 1   
@<TRIPOS>SUBSTRUCTURE
     1 PA3         1 TEMP              0 ****  ****    0 ROOT
