@<TRIPOS>MOLECULE
PA3
   18    18     1     0     0
SMALL
bcc


@<TRIPOS>ATOM
      1 C1         -0.9290    1.2250    0.0510 c3        1 PA3      0.095400
      2 C2         -1.6040   -0.0720   -0.4220 c3        1 PA3      0.116100
      3 O2         -2.7310   -0.4070    0.3700 oh        1 PA3     -0.590800
      4 C3         -0.5570   -1.1740   -0.2240 c3        1 PA3     -0.101400
      5 C4          0.6760   -0.4780    0.3430 c3        1 PA3      0.096100
      6 O4          0.4110    0.9320    0.4420 os        1 PA3     -0.429600
      7 C5          1.9100   -0.6560   -0.5440 c3        1 PA3      0.124400
      8 O5          3.0470   -0.0460    0.0270 oh        1 PA3     -0.596800
      9 H11        -0.8690    1.9880   -0.7670 h1        1 PA3      0.053200
     10 H12        -1.4500    1.6570    0.9450 h1        1 PA3      0.053200
     11 H2         -1.9170    0.0090   -1.4980 h1        1 PA3      0.046700
     12 HO2        -3.3680    0.3110    0.2700 ho        1 PA3      0.404000
     13 H31        -0.9430   -1.9470    0.4870 hc        1 PA3      0.071700
     14 H32        -0.3310   -1.6740   -1.1970 hc        1 PA3      0.071700
     15 H4          0.9070   -0.8230    1.3890 h1        1 PA3      0.075700
     16 H51         2.1710   -1.7440   -0.6270 h1        1 PA3      0.048700
     17 H52         1.7160   -0.2300   -1.5640 h1        1 PA3      0.048700
     18 HO5         2.8110    0.8720    0.2160 ho        1 PA3      0.415000
@<TRIPOS>BOND
     1    1    2 1   
     2    1    6 1   
     3    1    9 1   
     4    1   10 1   
     5    2    3 1   
     6    2    4 1   
     7    2   11 1   
     8    3   12 1   
     9    4    5 1   
    10    4   13 1   
    11    4   14 1   
    12    5    6 1   
    13    5    7 1   
    14    5   15 1   
    15    7    8 1   
    16    7   16 1   
    17    7   17 1   
    18    8   18 1   
@<TRIPOS>SUBSTRUCTURE
     1 PA3         1 TEMP              0 ****  ****    0 ROOT
