@<TRIPOS>MOLECULE
PA3
   18    18     1     0     0
SMALL
bcc


@<TRIPOS>ATOM
      1 C1         -1.0140    0.2900   -1.2430 c3        1 PA3      0.131400
      2 C2          0.5800    0.2850   -1.3780 c3        1 PA3      0.115100
      3 O2          1.0140   -0.8580   -2.2000 oh        1 PA3     -0.589800
      4 C3          1.0390    0.1670   -0.1810 c3        1 PA3     -0.138400
      5 C4         -0.0660   -0.5710    0.5990 c3        1 PA3      0.101100
      6 O4         -1.3010   -0.5520   -0.3070 os        1 PA3     -0.431600
      7 C5         -0.3370    0.0910    1.8030 c3        1 PA3      0.121400
      8 O5         -1.2740   -0.6540    2.5490 oh        1 PA3     -0.596800
      9 H11        -1.3280    1.1850   -0.9990 h1        1 PA3      0.063700
     10 H12        -1.4240    0.0070   -2.0870 h1        1 PA3      0.063700
     11 H2          0.8880    1.1230   -1.7760 h1        1 PA3      0.045700
     12 HO2         1.5080   -0.5640   -2.8780 ho        1 PA3      0.404000
     13 H31         1.8650   -0.3600   -0.1830 hc        1 PA3      0.063200
     14 H32         1.1990    1.0510    0.2110 hc        1 PA3      0.063200
     15 H4          0.2060   -1.4930    0.7750 h1        1 PA3      0.076700
     16 H51        -0.7030    0.9800    1.6120 h1        1 PA3      0.047200
     17 H52         0.4930    0.1830    2.3190 h1        1 PA3      0.047200
     18 HO5        -1.3440   -0.3090    3.3650 ho        1 PA3      0.415000
@<TRIPOS>BOND
     1    1    2 1   
     2    1    6 1   
     3    1    9 1   
     4    1   10 1   
     5    2    3 1   
     6    2    4 1   
     7    2   11 1   
     8    3   12 1   
     9    4    5 1   
    10    4   13 1   
    11    4   14 1   
    12    5    6 1   
    13    5    7 1   
    14    5   15 1   
    15    7    8 1   
    16    7   16 1   
    17    7   17 1   
    18    8   18 1   
@<TRIPOS>SUBSTRUCTURE
     1 PA3         1 TEMP              0 ****  ****    0 ROOT
