@<TRIPOS>MOLECULE
PA3
   18    18     1     0     0
SMALL
bcc


@<TRIPOS>ATOM
      1 C1         -0.1290   -0.0760    0.2440 c3        1 PA3      0.131400
      2 C2          1.3900    0.0890    0.0880 c3        1 PA3      0.115100
      3 O2          1.7920   -0.7270   -0.9990 oh        1 PA3     -0.589800
      4 C3          1.9920   -0.3720    1.4210 c3        1 PA3     -0.138400
      5 C4          0.8070   -0.7450    2.3060 c3        1 PA3      0.101100
      6 O4         -0.4030   -0.5950    1.5460 os        1 PA3     -0.431600
      7 C5          0.6990    0.1460    3.5450 c3        1 PA3      0.121400
      8 O5         -0.3850   -0.2390    4.3620 oh        1 PA3     -0.596800
      9 H11        -0.6560    0.9070    0.1580 h1        1 PA3      0.063700
     10 H12        -0.5410   -0.8090   -0.4970 h1        1 PA3      0.063700
     11 H2          1.6600    1.1570   -0.1300 h1        1 PA3      0.045700
     12 HO2         2.7500   -0.6390   -1.0760 ho        1 PA3      0.404000
     13 H31         2.6570   -1.2580    1.2630 hc        1 PA3      0.063200
     14 H32         2.6000    0.4420    1.8850 hc        1 PA3      0.063200
     15 H4          0.8370   -1.8250    2.6170 h1        1 PA3      0.076700
     16 H51         1.6090    0.0250    4.1900 h1        1 PA3      0.047200
     17 H52         0.5870    1.2200    3.2390 h1        1 PA3      0.047200
     18 HO5        -1.1690   -0.2670    3.7970 ho        1 PA3      0.415000
@<TRIPOS>BOND
     1    1    2 1   
     2    1    6 1   
     3    1    9 1   
     4    1   10 1   
     5    2    3 1   
     6    2    4 1   
     7    2   11 1   
     8    3   12 1   
     9    4    5 1   
    10    4   13 1   
    11    4   14 1   
    12    5    6 1   
    13    5    7 1   
    14    5   15 1   
    15    7    8 1   
    16    7   16 1   
    17    7   17 1   
    18    8   18 1   
@<TRIPOS>SUBSTRUCTURE
     1 PA3         1 TEMP              0 ****  ****    0 ROOT
