@<TRIPOS>MOLECULE
PA4
   28    28     1     0     0
SMALL
bcc


@<TRIPOS>ATOM
      1 C1         -0.0410   -0.0410   -0.0810 c3        1 PA4      0.101100
      2 O1         -0.6010    1.1300    0.4870 oh        1 PA4     -0.634800
      3 C2          1.5010    0.0790   -0.0550 c3        1 PA4      0.115100
      4 O2          2.0080   -1.0790   -0.6800 oh        1 PA4     -0.582800
      5 C3          2.0450    0.0690    1.4010 c3        1 PA4      0.064500
      6 N3          1.7170    1.3170    2.1490 n4        1 PA4     -0.826600
      7 C4          1.4840   -1.1960    2.1100 c3        1 PA4      0.345900
      8 O4          1.7300   -1.0800    3.4780 oh        1 PA4     -0.595800
      9 C5         -0.4840   -1.2590    0.7540 c3        1 PA4      0.123100
     10 O5          0.0530   -1.2180    2.0750 os        1 PA4     -0.481600
     11 C6         -2.0140   -1.2530    0.9100 c3        1 PA4      0.100800
     12 N6         -2.5220   -2.3680    1.7540 n4        1 PA4     -0.831600
     13 H1         -0.3730   -0.1900   -1.1470 h1        1 PA4      0.111700
     14 HO1        -0.8700    1.7200   -0.2340 ho        1 PA4      0.460000
     15 H2          1.8120    1.0230   -0.5820 h1        1 PA4      0.090700
     16 HO2         2.7020   -0.8180   -1.3060 ho        1 PA4      0.462000
     17 H3          3.1740   -0.0310    1.3730 hx        1 PA4      0.146700
     18 HN31        2.0170    1.2050    3.1300 hn        1 PA4      0.479133
     19 HN32        2.1970    2.1200    1.7320 hn        1 PA4      0.479133
     20 H4          1.9160   -2.1150    1.6230 h2        1 PA4      0.120700
     21 HO4         1.5770   -1.9380    3.9020 ho        1 PA4      0.473000
     22 H5         -0.1160   -2.1890    0.2290 h1        1 PA4      0.105700
     23 H61        -2.4840   -1.3320   -0.1130 hx        1 PA4      0.135200
     24 H62        -2.3290   -0.2780    1.3910 hx        1 PA4      0.135200
     25 HN61       -2.3250   -3.2750    1.3160 hn        1 PA4      0.475467
     26 HN62       -3.5380   -2.2740    1.8810 hn        1 PA4      0.475467
     27 H33         0.6990    1.4780    2.1300 hn        1 PA4      0.479133
     28 H63        -2.0630   -2.3410    2.6740 hn        1 PA4      0.475467
@<TRIPOS>BOND
     1    1    2 1   
     2    1    3 1   
     3    1    9 1   
     4    1   13 1   
     5    2   14 1   
     6    3    4 1   
     7    3    5 1   
     8    3   15 1   
     9    4   16 1   
    10    5    6 1   
    11    5    7 1   
    12    5   17 1   
    13    6   18 1   
    14    6   19 1   
    15    6   27 1   
    16    7    8 1   
    17    7   10 1   
    18    7   20 1   
    19    8   21 1   
    20    9   10 1   
    21    9   11 1   
    22    9   22 1   
    23   11   12 1   
    24   11   23 1   
    25   11   24 1   
    26   12   25 1   
    27   12   26 1   
    28   12   28 1   
@<TRIPOS>SUBSTRUCTURE
     1 PA4         1 TEMP              0 ****  ****    0 ROOT
