@<TRIPOS>MOLECULE
PA4
   28    28     1     0     0
SMALL
bcc


@<TRIPOS>ATOM
      1 C1         -0.0490   -0.0280   -0.0730 c3        1 PA4      0.101100
      2 O1         -0.6160    1.1320    0.5110 oh        1 PA4     -0.634800
      3 C2          1.4920    0.1030   -0.0510 c3        1 PA4      0.115100
      4 O2          2.0060   -1.0430   -0.6920 oh        1 PA4     -0.582800
      5 C3          2.0420    0.0800    1.4030 c3        1 PA4      0.064500
      6 N3          1.7070    1.3170    2.1670 nz        1 PA4     -0.826600
      7 C4          1.4920   -1.1980    2.0980 c3        1 PA4      0.345900
      8 O4          1.7430   -1.0960    3.4660 oh        1 PA4     -0.595800
      9 C5         -0.4800   -1.2600    0.7480 c3        1 PA4      0.123100
     10 O5          0.0620   -1.2310    2.0680 os        1 PA4     -0.481600
     11 C6         -2.0090   -1.2670    0.9100 c3        1 PA4      0.100800
     12 N6         -2.5050   -2.3960    1.7420 nz        1 PA4     -0.831600
     13 H1         -0.3840   -0.1670   -1.1400 h1        1 PA4      0.111700
     14 HO1        -0.8920    1.7280   -0.2020 ho        1 PA4      0.460000
     15 H2          1.7940    1.0550   -0.5680 h1        1 PA4      0.090700
     16 HO2         2.6960   -0.7700   -1.3170 ho        1 PA4      0.462000
     17 H3          3.1710   -0.0110    1.3700 hx        1 PA4      0.146700
     18 HN31        0.6880    1.4700    2.1530 hn        1 PA4      0.479133
     19 HN32        2.1790    2.1280    1.7580 hn        1 PA4      0.479133
     20 H4          1.9300   -2.1080    1.5980 h2        1 PA4      0.120700
     21 HO4         1.5980   -1.9610    3.8800 ho        1 PA4      0.473000
     22 H5         -0.1070   -2.1800    0.2100 h1        1 PA4      0.105700
     23 H61        -2.4820   -1.3370   -0.1130 hx        1 PA4      0.135200
     24 H62        -2.3290   -0.3010    1.4040 hx        1 PA4      0.135200
     25 HN61       -3.5220   -2.3110    1.8730 hn        1 PA4      0.475467
     26 HN62       -2.0440   -2.3770    2.6610 hn        1 PA4      0.475467
     27 H33         2.0110    1.1940    3.1450 hn        1 PA4      0.479133
     28 H63        -2.3030   -3.2960    1.2920 hn        1 PA4      0.475467
@<TRIPOS>BOND
     1    1    2 1   
     2    1    3 1   
     3    1    9 1   
     4    1   13 1   
     5    2   14 1   
     6    3    4 1   
     7    3    5 1   
     8    3   15 1   
     9    4   16 1   
    10    5    6 1   
    11    5    7 1   
    12    5   17 1   
    13    6   18 1   
    14    6   19 1   
    15    6   27 1   
    16    7    8 1   
    17    7   10 1   
    18    7   20 1   
    19    8   21 1   
    20    9   10 1   
    21    9   11 1   
    22    9   22 1   
    23   11   12 1   
    24   11   23 1   
    25   11   24 1   
    26   12   25 1   
    27   12   26 1   
    28   12   28 1   
@<TRIPOS>SUBSTRUCTURE
     1 PA4         1 TEMP              0 ****  ****    0 ROOT
