@<TRIPOS>MOLECULE
PA4
   28    28     1     0     0
SMALL
bcc


@<TRIPOS>ATOM
      1 C1         -0.0270   -0.0430   -0.0850 c3        1 PA4      0.101100
      2 O1         -0.5880    1.1320    0.4730 oh        1 PA4     -0.634800
      3 C2          1.5150    0.0690   -0.0420 c3        1 PA4      0.115100
      4 O2          2.0240   -1.0930   -0.6580 oh        1 PA4     -0.582800
      5 C3          2.0430    0.0610    1.4210 c3        1 PA4      0.064500
      6 N3          1.7120    1.3130    2.1610 n4        1 PA4     -0.826600
      7 C4          1.4670   -1.2000    2.1260 c3        1 PA4      0.345900
      8 O4          1.6990   -1.0800    3.4960 oh        1 PA4     -0.595800
      9 C5         -0.4850   -1.2570    0.7480 c3        1 PA4      0.123100
     10 O5          0.0370   -1.2150    2.0750 os        1 PA4     -0.481600
     11 C6         -2.0170   -1.2430    0.8870 c3        1 PA4      0.100800
     12 N6         -2.5400   -2.3530    1.7280 n4        1 PA4     -0.831600
     13 H1         -0.3480   -0.1930   -1.1540 h1        1 PA4      0.111700
     14 HO1        -0.8460    1.7210   -0.2520 ho        1 PA4      0.460000
     15 H2          1.8360    1.0100   -0.5680 h1        1 PA4      0.090700
     16 HO2         2.7260   -0.8380   -1.2760 ho        1 PA4      0.462000
     17 H3          3.1710   -0.0440    1.4050 hx        1 PA4      0.146700
     18 HN31        2.0000    1.2020    3.1450 hn        1 PA4      0.479133
     19 HN32        2.2000    2.1120    1.7470 hn        1 PA4      0.479133
     20 H4          1.9010   -2.1220    1.6470 h2        1 PA4      0.120700
     21 HO4         1.5370   -1.9370    3.9210 ho        1 PA4      0.473000
     22 H5         -0.1160   -2.1900    0.2300 h1        1 PA4      0.105700
     23 H61        -2.3320   -0.2650    1.3620 hx        1 PA4      0.135200
     24 H62        -2.4760   -1.3220   -0.1410 hx        1 PA4      0.135200
     25 HN61       -3.5570   -2.2540    1.8430 hn        1 PA4      0.475467
     26 HN62       -2.0910   -2.3260    2.6540 hn        1 PA4      0.475467
     27 H33         0.6960    1.4780    2.1290 hn        1 PA4      0.479133
     28 H63        -2.3420   -3.2630    1.2950 hn        1 PA4      0.475467
@<TRIPOS>BOND
     1    1    2 1   
     2    1    3 1   
     3    1    9 1   
     4    1   13 1   
     5    2   14 1   
     6    3    4 1   
     7    3    5 1   
     8    3   15 1   
     9    4   16 1   
    10    5    6 1   
    11    5    7 1   
    12    5   17 1   
    13    6   18 1   
    14    6   19 1   
    15    6   27 1   
    16    7    8 1   
    17    7   10 1   
    18    7   20 1   
    19    8   21 1   
    20    9   10 1   
    21    9   11 1   
    22    9   22 1   
    23   11   12 1   
    24   11   23 1   
    25   11   24 1   
    26   12   25 1   
    27   12   26 1   
    28   12   28 1   
@<TRIPOS>SUBSTRUCTURE
     1 PA4         1 TEMP              0 ****  ****    0 ROOT
