@<TRIPOS>MOLECULE
PA4
   26    26     1     0     0
SMALL
bcc


@<TRIPOS>ATOM
      1 C1         -0.3600    0.4860   -1.0660 c3        1 PA4      0.117100
      2 O1         -0.7860    1.7370   -0.5920 oh        1 PA4     -0.589800
      3 C2          1.1390    0.4460   -1.0230 c3        1 PA4      0.106100
      4 O2          1.5990   -0.8000   -1.6910 oh        1 PA4     -0.599800
      5 C3          1.6690    0.4740    0.2960 c3        1 PA4      0.092500
      6 N3          1.4050    1.8660    0.8920 n3        1 PA4     -0.901800
      7 C4          1.1050   -0.5160    1.1820 c3        1 PA4      0.306900
      8 O4          1.6000   -0.2750    2.5160 oh        1 PA4     -0.595800
      9 C5         -1.0710   -0.6540   -0.2040 c3        1 PA4      0.116100
     10 O5         -0.3650   -0.5100    1.2180 os        1 PA4     -0.457600
     11 C6         -2.3900   -0.4270   -0.1120 c3        1 PA4      0.164800
     12 N6         -3.0790   -1.6740    0.1450 n3        1 PA4     -0.898800
     13 H1         -0.6440    0.3930   -1.9930 h1        1 PA4      0.059700
     14 HO1        -0.9380    2.3050   -1.3120 ho        1 PA4      0.409000
     15 H2          1.4850    1.2060   -1.5120 h1        1 PA4      0.054700
     16 HO2         2.1700   -0.5870   -2.3810 ho        1 PA4      0.412000
     17 H3          2.6600    0.3310    0.2470 h1        1 PA4      0.070700
     18 HN31        1.9410    2.4930    0.4610 hn        1 PA4      0.363300
     19 HN32        1.6010    1.8590    1.7760 hn        1 PA4      0.363300
     20 H4          1.4110   -1.4200    0.8850 h2        1 PA4      0.081700
     21 HO4         1.7380   -1.0510    2.9250 ho        1 PA4      0.424000
     22 H5         -0.8950   -1.5430   -0.5900 h1        1 PA4      0.056700
     23 H61        -2.7160   -0.0400   -0.9600 h1        1 PA4      0.070200
     24 H62        -2.5630    0.1930    0.6130 h1        1 PA4      0.070200
     25 HN61       -3.0120   -2.2080   -0.5790 hn        1 PA4      0.350800
     26 HN62       -2.7040   -2.0840    0.8550 hn        1 PA4      0.350800
@<TRIPOS>BOND
     1    1    2 1   
     2    1    3 1   
     3    1    9 1   
     4    1   13 1   
     5    2   14 1   
     6    3    4 1   
     7    3    5 1   
     8    3   15 1   
     9    4   16 1   
    10    5    6 1   
    11    5    7 1   
    12    5   17 1   
    13    6   18 1   
    14    6   19 1   
    15    7    8 1   
    16    7   10 1   
    17    7   20 1   
    18    8   21 1   
    19    9   10 1   
    20    9   11 1   
    21    9   22 1   
    22   11   12 1   
    23   11   23 1   
    24   11   24 1   
    25   12   25 1   
    26   12   26 1   
@<TRIPOS>SUBSTRUCTURE
     1 PA4         1 TEMP              0 ****  ****    0 ROOT
