@<TRIPOS>MOLECULE
PA4
   26    26     1     0     0
SMALL
bcc


@<TRIPOS>ATOM
      1 C1         -1.4310   -0.0300    0.3170 c3        1 PA4      0.114100
      2 O1         -1.7270    1.3520    0.3610 oh        1 PA4     -0.587800
      3 C2         -1.3420   -0.5060   -1.1470 c3        1 PA4      0.108100
      4 O2         -1.4300   -1.9240   -1.0970 oh        1 PA4     -0.604800
      5 C3         -0.0250   -0.0990   -1.8590 c3        1 PA4      0.118500
      6 N3         -0.0830    1.2450   -2.3830 n3        1 PA4     -0.887800
      7 C4          1.1550   -0.4090   -0.8980 c3        1 PA4      0.300900
      8 O4          2.3240    0.2210   -1.3580 oh        1 PA4     -0.607800
      9 C5         -0.1440   -0.3790    1.0790 c3        1 PA4      0.118100
     10 O5          0.9720    0.1840    0.3850 os        1 PA4     -0.455600
     11 C6         -0.1440    0.2460    2.4850 c3        1 PA4      0.164800
     12 N6          0.7520   -0.4160    3.3980 n3        1 PA4     -0.914800
     13 H1         -2.3150   -0.5320    0.8040 h1        1 PA4      0.092700
     14 HO1        -0.8900    1.8300    0.2990 ho        1 PA4      0.410000
     15 H2         -2.2210   -0.0840   -1.7110 h1        1 PA4      0.075700
     16 HO2        -1.5830   -2.2250   -2.0010 ho        1 PA4      0.411000
     17 H3          0.1120   -0.7830   -2.7500 h1        1 PA4      0.071700
     18 HN31       -0.2890    1.9030   -1.6570 hn        1 PA4      0.359300
     19 HN32        0.8030    1.4820   -2.7900 hn        1 PA4      0.359300
     20 H4          1.3000   -1.5220   -0.8010 h2        1 PA4      0.052700
     21 HO4         2.9120    0.3380   -0.5980 ho        1 PA4      0.435000
     22 H5         -0.0430   -1.5000    1.1130 h1        1 PA4      0.071700
     23 H61        -1.2180    0.2500    2.8400 h1        1 PA4      0.043700
     24 H62         0.1870    1.3200    2.3910 h1        1 PA4      0.043700
     25 HN61        0.7580    0.0510    4.2820 hn        1 PA4      0.353800
     26 HN62        0.4990   -1.3750    3.5280 hn        1 PA4      0.353800
@<TRIPOS>BOND
     1    1    2 1   
     2    1    3 1   
     3    1    9 1   
     4    1   13 1   
     5    2   14 1   
     6    3    4 1   
     7    3    5 1   
     8    3   15 1   
     9    4   16 1   
    10    5    6 1   
    11    5    7 1   
    12    5   17 1   
    13    6   18 1   
    14    6   19 1   
    15    7    8 1   
    16    7   10 1   
    17    7   20 1   
    18    8   21 1   
    19    9   10 1   
    20    9   11 1   
    21    9   22 1   
    22   11   12 1   
    23   11   23 1   
    24   11   24 1   
    25   12   25 1   
    26   12   26 1   
@<TRIPOS>SUBSTRUCTURE
     1 PA4         1 TEMP              0 ****  ****    0 ROOT
