@<TRIPOS>MOLECULE
PA5
   23    22     1     0     0
SMALL
bcc


@<TRIPOS>ATOM
      1 O1A        -0.3860    0.5310   -5.0320 o         1 PA5     -0.868800
      2 C1          0.1370   -0.2790   -4.2010 c         1 PA5      0.894600
      3 O1          0.3430   -1.4950   -4.4770 o         1 PA5     -0.868800
      4 C2          0.5780    0.2940   -2.8370 c3        1 PA5      0.003100
      5 O2          0.5080    1.7170   -2.8590 oh        1 PA5     -0.645800
      6 C3         -0.2460   -0.2270   -1.6450 c3        1 PA5      0.130100
      7 O3         -1.4780    0.4790   -1.5670 oh        1 PA5     -0.616800
      8 C4          0.5280   -0.0870   -0.3150 c3        1 PA5      0.085100
      9 O4          1.6110   -1.0060   -0.3520 oh        1 PA5     -0.652800
     10 C5         -0.3770   -0.3210    0.9230 c3        1 PA5      0.192400
     11 O5          0.3880   -0.7320    1.9880 os        1 PA5     -0.582200
     12 P           0.0320   -0.0030    3.5280 p5        1 PA5      1.322900
     13 O1P        -1.1410   -0.8110    4.0200 o         1 PA5     -0.938500
     14 O2P         1.3270   -0.2240    4.2640 o         1 PA5     -0.938500
     15 O3P        -0.2880    1.4250    3.1660 o         1 PA5     -0.938500
     16 HC2         1.6590    0.0440   -2.6610 h1        1 PA5      0.065700
     17 HO2        -0.1940    1.9430   -3.4870 ho        1 PA5      0.409000
     18 HC3        -0.5290   -1.2980   -1.8280 h1        1 PA5      0.077700
     19 HO3        -1.2560    1.3690   -1.2670 ho        1 PA5      0.395000
     20 HC4         0.9670    0.9490   -0.2660 h1        1 PA5      0.027700
     21 HO4         1.7350   -1.3140    0.5610 ho        1 PA5      0.436000
     22 H51        -0.9260    0.6320    1.1610 h1        1 PA5      0.005700
     23 H52        -1.1230   -1.1210    0.6380 h1        1 PA5      0.005700
@<TRIPOS>BOND
     1    1    2 1   
     2    2    3 1   
     3    2    4 1   
     4    4    5 1   
     5    4    6 1   
     6    4   16 1   
     7    5   17 1   
     8    6    7 1   
     9    6    8 1   
    10    6   18 1   
    11    7   19 1   
    12    8    9 1   
    13    8   10 1   
    14    8   20 1   
    15    9   21 1   
    16   10   11 1   
    17   10   22 1   
    18   10   23 1   
    19   11   12 1   
    20   12   13 1   
    21   12   14 1   
    22   12   15 1   
@<TRIPOS>SUBSTRUCTURE
     1 PA5         1 TEMP              0 ****  ****    0 ROOT
