@<TRIPOS>MOLECULE
PA6
   33    32     1     0     0
SMALL
bcc


@<TRIPOS>ATOM
      1 O32         1.3680   -0.6120    6.8180 o         1 PA6     -0.581000
      2 C31         0.9720    0.5520    6.6820 c         1 PA6      0.631100
      3 C32        -0.3040    0.9900    6.0170 c3        1 PA6     -0.138400
      4 C33        -1.3920   -0.0490    6.1710 c3        1 PA6     -0.077400
      5 C34        -2.6210    0.3260    5.3700 c3        1 PA6     -0.080400
      6 C35        -3.7190   -0.6940    5.5340 c3        1 PA6     -0.089100
      7 O31         1.6780    1.5960    7.1660 os        1 PA6     -0.427900
      8 C3          3.0320    1.3820    7.6220 c3        1 PA6      0.141400
      9 C2          4.0370    1.4970    6.4800 c3        1 PA6      0.109100
     10 O21         3.9000    2.8250    5.9730 os        1 PA6     -0.479900
     11 C21         4.8310    3.2700    5.0590 c         1 PA6      0.760900
     12 O22         5.2720    2.4550    4.2360 o         1 PA6     -0.674000
     13 C1          5.4540    1.2080    7.0430 c3        1 PA6      0.209400
     14 O11         5.7510    1.9820    8.1330 os        1 PA6     -0.567200
     15 P           6.9510    3.1960    7.8110 p5        1 PA6      1.339900
     16 O13         8.2130    2.3940    7.7050 o         1 PA6     -0.913833
     17 O14         6.8150    4.1330    8.9700 o         1 PA6     -0.913833
     18 O12         6.4000    3.7060    6.4800 o         1 PA6     -0.913833
     19 H321       -0.6300    1.9730    6.4470 hc        1 PA6      0.070200
     20 H322       -0.0690    1.1560    4.9320 hc        1 PA6      0.070200
     21 H331       -1.0020   -1.0460    5.8360 hc        1 PA6      0.051200
     22 H332       -1.6640   -0.1500    7.2550 hc        1 PA6      0.051200
     23 H341       -2.3470    0.4130    4.2850 hc        1 PA6      0.036200
     24 H342       -2.9900    1.3330    5.6980 hc        1 PA6      0.036200
     25 H351       -3.3740   -1.7000    5.1930 hc        1 PA6      0.026033
     26 H352       -4.0250   -0.7740    6.6050 hc        1 PA6      0.026033
     27 H353       -4.6140   -0.4050    4.9320 hc        1 PA6      0.026033
     28 H31         3.1920    2.2240    8.3490 h1        1 PA6      0.084700
     29 H32         3.1190    0.3840    8.1170 h1        1 PA6      0.084700
     30 H2          3.7930    0.7730    5.6560 h1        1 PA6      0.013700
     31 H21         4.8920    4.3700    5.0620 h5        1 PA6      0.071200
     32 H11         6.1950    1.3650    6.2080 h1        1 PA6      0.010200
     33 H12         5.4480    0.1160    7.3410 h1        1 PA6      0.010200
@<TRIPOS>BOND
     1    1    2 2   
     2    2    3 1   
     3    2    7 1   
     4    3    4 1   
     5    3   19 1   
     6    3   20 1   
     7    4    5 1   
     8    4   21 1   
     9    4   22 1   
    10    5    6 1   
    11    5   23 1   
    12    5   24 1   
    13    6   25 1   
    14    6   26 1   
    15    6   27 1   
    16    7    8 1   
    17    8    9 1   
    18    8   28 1   
    19    8   29 1   
    20    9   10 1   
    21    9   13 1   
    22    9   30 1   
    23   10   11 1   
    24   11   12 2   
    25   11   31 1   
    26   13   14 1   
    27   13   32 1   
    28   13   33 1   
    29   14   15 1   
    30   15   16 1   
    31   15   17 1   
    32   15   18 1   
@<TRIPOS>SUBSTRUCTURE
     1 PA6         1 TEMP              0 ****  ****    0 ROOT
