@<TRIPOS>MOLECULE
PA6
   33    33     1     0     0
SMALL
bcc


@<TRIPOS>ATOM
      1 O32         0.9330   -2.0380    0.3100 o         1 PA6     -0.586000
      2 C31         1.7140   -1.0850    0.1940 c         1 PA6      0.625100
      3 C32         2.3260   -0.2950    1.3200 c3        1 PA6     -0.136400
      4 C33         1.3170   -0.0460    2.4200 c3        1 PA6     -0.077400
      5 C34         1.9660    0.6200    3.6150 c3        1 PA6     -0.079400
      6 C35         0.9640    0.8910    4.7060 c3        1 PA6     -0.089100
      7 O31         2.1290   -0.6620   -1.0140 os        1 PA6     -0.425900
      8 C3          1.6120   -1.3380   -2.1920 c3        1 PA6      0.128400
      9 C2          2.4430   -0.8130   -3.3750 c3        1 PA6      0.168100
     10 O21         2.6200   -1.9050   -4.2350 os        1 PA6     -0.570600
     11 C21         2.8790   -1.6090   -5.6650 c3        1 PA6      0.792400
     12 O22         3.8280   -0.7430   -5.7690 o         1 PA6     -0.875500
     13 C1          1.7510    0.4040   -4.0200 c3        1 PA6      0.156400
     14 O11         0.5020    0.1020   -4.5510 os        1 PA6     -0.585200
     15 P           0.4900   -0.1500   -6.2040 p5        1 PA6      1.485800
     16 O13         0.8670    1.1410   -6.8250 o         1 PA6     -0.869000
     17 O14        -0.8070   -0.7860   -6.5350 o         1 PA6     -0.869000
     18 O12         1.6470   -1.2810   -6.2610 os        1 PA6     -0.724200
     19 H321        2.7240    0.6750    0.9220 hc        1 PA6      0.065200
     20 H322        3.1940   -0.8880    1.7130 hc        1 PA6      0.065200
     21 H331        0.4910    0.6030    2.0270 hc        1 PA6      0.054700
     22 H332        0.8540   -1.0210    2.7260 hc        1 PA6      0.054700
     23 H341        2.4430    1.5840    3.2920 hc        1 PA6      0.033700
     24 H342        2.7850   -0.0370    4.0100 hc        1 PA6      0.033700
     25 H351        0.1540    1.5670    4.3380 hc        1 PA6      0.026367
     26 H352        0.4920   -0.0600    5.0520 hc        1 PA6      0.026367
     27 H353        1.4600    1.3780    5.5800 hc        1 PA6      0.026367
     28 H31         1.7320   -2.4420   -2.0580 h1        1 PA6      0.059700
     29 H32         0.5310   -1.0710   -2.3000 h1        1 PA6      0.059700
     30 H2          3.4510   -0.4730   -2.9980 h1        1 PA6      0.006700
     31 H21         3.0770   -2.6750   -6.0300 h3        1 PA6     -0.035300
     32 H11         1.6050    1.1780   -3.2130 h1        1 PA6      0.028200
     33 H12         2.4280    0.8110   -4.8250 h1        1 PA6      0.028200
@<TRIPOS>BOND
     1    1    2 2   
     2    2    3 1   
     3    2    7 1   
     4    3    4 1   
     5    3   19 1   
     6    3   20 1   
     7    4    5 1   
     8    4   21 1   
     9    4   22 1   
    10    5    6 1   
    11    5   23 1   
    12    5   24 1   
    13    6   25 1   
    14    6   26 1   
    15    6   27 1   
    16    7    8 1   
    17    8    9 1   
    18    8   28 1   
    19    8   29 1   
    20    9   10 1   
    21    9   13 1   
    22    9   30 1   
    23   10   11 1   
    24   11   12 1   
    25   11   18 1   
    26   11   31 1   
    27   13   14 1   
    28   13   32 1   
    29   13   33 1   
    30   14   15 1   
    31   15   16 1   
    32   15   17 1   
    33   15   18 1   
@<TRIPOS>SUBSTRUCTURE
     1 PA6         1 TEMP              0 ****  ****    0 ROOT
