@<TRIPOS>MOLECULE
PA6
   33    33     1     0     0
SMALL
bcc


@<TRIPOS>ATOM
      1 O32         1.0400   -2.0510    0.3430 o         1 PA6     -0.586000
      2 C31         1.7720   -1.0630    0.2010 c         1 PA6      0.625100
      3 C32         2.3680   -0.2310    1.3050 c3        1 PA6     -0.136400
      4 C33         1.3750   -0.0260    2.4270 c3        1 PA6     -0.077400
      5 C34         2.0160    0.6850    3.6000 c3        1 PA6     -0.079400
      6 C35         1.0270    0.9120    4.7150 c3        1 PA6     -0.089100
      7 O31         2.1420   -0.6360   -1.0210 os        1 PA6     -0.425900
      8 C3          1.6350   -1.3510   -2.1800 c3        1 PA6      0.128400
      9 C2          2.4190   -0.8020   -3.3850 c3        1 PA6      0.168100
     10 O21         2.6320   -1.8960   -4.2350 os        1 PA6     -0.570600
     11 C21         2.8500   -1.6070   -5.6730 c3        1 PA6      0.792400
     12 O22         3.7540   -0.6990   -5.8060 o         1 PA6     -0.875500
     13 C1          1.6570    0.3710   -4.0320 c3        1 PA6      0.156400
     14 O11         0.4140    0.0040   -4.5350 os        1 PA6     -0.585200
     15 P           0.3850   -0.2710   -6.1840 p5        1 PA6      1.485800
     16 O13         0.6880    1.0280   -6.8280 o         1 PA6     -0.869000
     17 O14        -0.8870   -0.9710   -6.4820 o         1 PA6     -0.869000
     18 O12         1.5930   -1.3460   -6.2500 os        1 PA6     -0.724200
     19 H321        3.2760   -0.7730    1.6810 hc        1 PA6      0.065200
     20 H322        2.7030    0.7550    0.8900 hc        1 PA6      0.065200
     21 H331        0.9710   -1.0210    2.7530 hc        1 PA6      0.054200
     22 H332        0.5050    0.5750    2.0500 hc        1 PA6      0.054200
     23 H341        2.4320    1.6690    3.2590 hc        1 PA6      0.033700
     24 H342        2.8780    0.0760    3.9810 hc        1 PA6      0.033700
     25 H351        0.6160   -0.0600    5.0800 hc        1 PA6      0.026367
     26 H352        1.5180    1.4330    5.5720 hc        1 PA6      0.026367
     27 H353        0.1740    1.5410    4.3610 hc        1 PA6      0.026367
     28 H31         1.8100   -2.4450   -2.0350 h1        1 PA6      0.059700
     29 H32         0.5410   -1.1360   -2.2690 h1        1 PA6      0.059700
     30 H2          3.4160   -0.4090   -3.0310 h1        1 PA6      0.006700
     31 H21         3.0910   -2.6680   -6.0290 h3        1 PA6     -0.035300
     32 H11         1.4900    1.1490   -3.2320 h1        1 PA6      0.028200
     33 H12         2.3000    0.8000   -4.8540 h1        1 PA6      0.028200
@<TRIPOS>BOND
     1    1    2 2   
     2    2    3 1   
     3    2    7 1   
     4    3    4 1   
     5    3   19 1   
     6    3   20 1   
     7    4    5 1   
     8    4   21 1   
     9    4   22 1   
    10    5    6 1   
    11    5   23 1   
    12    5   24 1   
    13    6   25 1   
    14    6   26 1   
    15    6   27 1   
    16    7    8 1   
    17    8    9 1   
    18    8   28 1   
    19    8   29 1   
    20    9   10 1   
    21    9   13 1   
    22    9   30 1   
    23   10   11 1   
    24   11   12 1   
    25   11   18 1   
    26   11   31 1   
    27   13   14 1   
    28   13   32 1   
    29   13   33 1   
    30   14   15 1   
    31   15   16 1   
    32   15   17 1   
    33   15   18 1   
@<TRIPOS>SUBSTRUCTURE
     1 PA6         1 TEMP              0 ****  ****    0 ROOT
