@<TRIPOS>MOLECULE
PA7
   41    38     1     0     0
SMALL
bcc


@<TRIPOS>ATOM
      1 C5'        -1.4950    0.3510   -1.3490 c1        1 PA7      0.286000
      2 O5'        -2.0930   -0.5800   -0.7990 o         1 PA7     -0.390000
      3 N5'        -2.2650    1.4920   -1.9260 n2        1 PA7     -0.359000
      4 C51        -3.5210    1.8560   -1.3690 c3        1 PA7     -0.032000
      5 C52        -3.9010    3.2520   -1.8470 c3        1 PA7     -0.176000
      6 C53        -5.1990    3.6530   -1.2310 c3        1 PA7     -0.211000
      7 C4'        -0.0580    0.3660   -1.3740 c3        1 PA7     -0.008000
      8 O4'         0.4010    0.3530   -0.1350 os        1 PA7     -0.257000
      9 C3'         0.5060   -1.0850   -1.9940 c3        1 PA7      0.025000
     10 O3'         0.5780   -1.0070   -3.4700 oh        1 PA7     -0.315000
     11 C2'         1.6370   -1.2590   -1.5280 c3        1 PA7     -0.035000
     12 O2'         2.6830   -0.6530   -2.4640 oh        1 PA7     -0.317000
     13 C1'         1.6450   -0.5140   -0.1620 c3        1 PA7      0.128000
     14 N9          1.6110   -1.4000    0.8450 n3        1 PA7     -0.213000
     15 C8          0.9730   -2.5630    1.1330 c1        1 PA7     -0.046000
     16 N7          1.3050   -2.9180    2.4100 n2        1 PA7     -0.113000
     17 C5          2.1480   -1.9690    2.9040 c1        1 PA7     -0.244000
     18 C6          2.8670   -1.8990    4.0880 c1        1 PA7      0.243000
     19 N6          3.0610   -2.7560    5.2440 n3        1 PA7     -0.358000
     20 N1          3.7430   -0.9150    4.2780 n1        1 PA7     -0.268000
     21 C2          3.9330    0.0320    3.3000 c1        1 PA7      0.027000
     22 N3          3.2230   -0.0370    2.1310 n1        1 PA7     -0.217000
     23 C4          2.3360   -1.0340    1.9390 c1        1 PA7      0.075000
     24 H5'        -1.9520    1.9250   -2.6330 hn        1 PA7      0.235000
     25 H511       -3.4570    1.8510   -0.3610 h1        1 PA7      0.101000
     26 H512       -4.2200    1.2010   -1.6630 h1        1 PA7      0.101000
     27 H521       -3.1850    3.9100   -1.5730 hc        1 PA7      0.085000
     28 H522       -3.9890    3.2500   -2.8290 hc        1 PA7      0.085000
     29 H531       -5.0880    3.7320   -0.2400 hc        1 PA7      0.077667
     30 H532       -5.8810    2.9770   -1.4320 hc        1 PA7      0.077667
     31 H533       -5.4840    4.5330   -1.6020 hc        1 PA7      0.077667
     32 H4'         0.1110    1.1820   -1.9120 h1        1 PA7      0.156000
     33 H3'        -0.0910   -1.8240   -1.7240 h1        1 PA7      0.135000
     34 H2          0.2360   -1.7730   -3.8330 ho        1 PA7      0.231000
     35 H2'         1.8150   -2.2530   -1.3900 h1        1 PA7      0.114000
     36 H1          3.4140   -1.2150   -2.5120 ho        1 PA7      0.224000
     37 H1'         2.5100    0.0900   -0.0830 h2        1 PA7      0.171000
     38 H8          0.2840   -2.9950    0.5750 DU        1 PA7      0.225000
     39 HN61        3.8990   -3.1490    5.4020 hn        1 PA7      0.245500
     40 HN62        2.3940   -2.9530    5.7490 hn        1 PA7      0.245500
     41 H3          4.5670    0.7430    3.4370 ha        1 PA7      0.190000
@<TRIPOS>BOND
     1    1    2 1   
     2    1    7 1   
     3    3    4 1   
     4    3   24 1   
     5    4    5 1   
     6    4   25 1   
     7    4   26 1   
     8    5    6 1   
     9    5   27 1   
    10    5   28 1   
    11    6   29 1   
    12    6   30 1   
    13    6   31 1   
    14    7    8 1   
    15    7    9 1   
    16    7   32 1   
    17    8   13 1   
    18    9   10 1   
    19    9   11 1   
    20    9   33 1   
    21   10   34 1   
    22   11   12 1   
    23   11   13 1   
    24   11   35 1   
    25   12   36 1   
    26   13   14 1   
    27   13   37 1   
    28   14   15 1   
    29   14   23 1   
    30   15   16 1   
    31   16   17 1   
    32   17   23 1   
    33   18   19 1   
    34   18   20 1   
    35   19   39 1   
    36   19   40 1   
    37   21   22 1   
    38   21   41 1   
@<TRIPOS>SUBSTRUCTURE
     1 PA7         1 TEMP              0 ****  ****    0 ROOT
