@<TRIPOS>MOLECULE
PA7
   41    43     1     0     0
SMALL
bcc


@<TRIPOS>ATOM
      1 C5'         2.8800   -0.8390   -0.7820 c         1 PA7      0.638100
      2 O5'         3.5500   -0.9420   -1.8340 o         1 PA7     -0.634100
      3 N5'         2.9090    0.2750    0.0110 n         1 PA7     -0.543900
      4 C51         3.7610    1.4030   -0.2480 c3        1 PA7      0.085000
      5 C52         4.7490    1.7090    0.8800 c3        1 PA7     -0.101400
      6 C53         5.5590    2.9320    0.5380 c3        1 PA7     -0.093100
      7 C4'         2.0070   -2.0250   -0.3600 c3        1 PA7      0.026100
      8 O4'         1.0000   -1.6660    0.5830 os        1 PA7     -0.409600
      9 C3'         1.3240   -2.6680   -1.5870 c3        1 PA7      0.094100
     10 O3'         1.8640   -3.9390   -1.8740 oh        1 PA7     -0.597800
     11 C2'        -0.1550   -2.8380   -1.1830 c3        1 PA7      0.124100
     12 O2'        -0.4950   -4.1300   -0.7310 oh        1 PA7     -0.583800
     13 C1'        -0.3230   -1.9010    0.0590 c3        1 PA7      0.246800
     14 N9         -0.9870   -0.6620   -0.2440 na        1 PA7     -0.289000
     15 C8         -0.7790    0.1970   -1.3580 cc        1 PA7      0.402700
     16 N7         -1.4620    1.3450   -1.2900 nd        1 PA7     -0.534100
     17 C5         -2.1520    1.2880   -0.0670 ca        1 PA7     -0.239200
     18 C6         -3.0490    2.1980    0.5870 ca        1 PA7      0.764200
     19 N6         -3.3540    3.4020    0.0120 nh        1 PA7     -0.958500
     20 N1         -3.5790    1.8410    1.8070 nb        1 PA7     -0.794000
     21 C2         -3.2100    0.6400    2.3250 ca        1 PA7      0.690900
     22 N3         -2.3800   -0.3090    1.8290 nb        1 PA7     -0.733000
     23 C4         -1.8540    0.0360    0.6170 ca        1 PA7      0.475800
     24 H5'         2.3670    0.2810    0.8450 hn        1 PA7      0.330500
     25 H511        3.1050    2.3090   -0.4070 h1        1 PA7      0.063200
     26 H512        4.3340    1.2170   -1.2010 h1        1 PA7      0.063200
     27 H521        5.4320    0.8330    1.0360 hc        1 PA7      0.046200
     28 H522        4.1960    1.8780    1.8410 hc        1 PA7      0.046200
     29 H531        4.8970    3.8210    0.4010 hc        1 PA7      0.038033
     30 H532        6.2820    3.1550    1.3600 hc        1 PA7      0.038033
     31 H533        6.1350    2.7740   -0.4060 hc        1 PA7      0.038033
     32 H4'         2.6740   -2.7690    0.1640 h1        1 PA7      0.106700
     33 H3'         1.4150   -1.9970   -2.4850 h1        1 PA7      0.075700
     34 H2          2.7520   -3.7880   -2.2280 ho        1 PA7      0.436000
     35 H2'        -0.8330   -2.5590   -2.0330 h1        1 PA7      0.072700
     36 H1         -0.0140   -4.7720   -1.2720 ho        1 PA7      0.438000
     37 H1'        -0.8790   -2.4230    0.8970 h2        1 PA7      0.148700
     38 H8         -0.1200   -0.1000   -2.1830 h5        1 PA7      0.071800
     39 HN61       -3.0110    3.5980   -0.8950 hn        1 PA7      0.449800
     40 HN62       -4.0170    4.0070    0.4280 hn        1 PA7      0.449800
     41 H3         -3.6640    0.4030    3.3120 h5        1 PA7      0.054100
@<TRIPOS>BOND
     1    1    2 2   
     2    1    3 1   
     3    1    7 1   
     4    3    4 1   
     5    3   24 1   
     6    4    5 1   
     7    4   25 1   
     8    4   26 1   
     9    5    6 1   
    10    5   27 1   
    11    5   28 1   
    12    6   29 1   
    13    6   30 1   
    14    6   31 1   
    15    7    8 1   
    16    7    9 1   
    17    7   32 1   
    18    8   13 1   
    19    9   10 1   
    20    9   11 1   
    21    9   33 1   
    22   10   34 1   
    23   11   12 1   
    24   11   13 1   
    25   11   35 1   
    26   12   36 1   
    27   13   14 1   
    28   13   37 1   
    29   14   15 1   
    30   14   23 1   
    31   15   16 2   
    32   15   38 1   
    33   16   17 1   
    34   17   18 ar  
    35   17   23 ar  
    36   18   19 1   
    37   18   20 ar  
    38   19   39 1   
    39   19   40 1   
    40   20   21 ar  
    41   21   22 ar  
    42   21   41 1   
    43   22   23 ar  
@<TRIPOS>SUBSTRUCTURE
     1 PA7         1 TEMP              0 ****  ****    0 ROOT
