@<TRIPOS>MOLECULE
PA7
   43    45     1     0     0
SMALL
bcc


@<TRIPOS>ATOM
      1 C5'         0.2970    0.3060    0.0500 c         1 PA7      0.533100
      2 O5'        -0.2740    0.2890    1.1250 o         1 PA7     -0.379100
      3 N5'        -0.5250    0.2670   -1.2150 n4        1 PA7     -0.678800
      4 C51        -1.8800   -0.3430   -1.0240 c3        1 PA7      0.103800
      5 C52        -2.7230   -0.2870   -2.2930 c3        1 PA7     -0.104400
      6 C53        -4.0650   -0.9230   -2.0230 c3        1 PA7     -0.103100
      7 C4'         1.7870    0.3570   -0.2180 c3        1 PA7      0.030100
      8 O4'         2.4810    0.5910    1.0030 os        1 PA7     -0.378600
      9 C3'         2.2860   -0.9840   -0.8160 c3        1 PA7      0.119100
     10 O3'         2.1920   -0.9350   -2.2100 oh        1 PA7     -0.596800
     11 C2'         3.7000   -1.1360   -0.2150 c3        1 PA7      0.098100
     12 O2'         4.6070   -0.5640   -1.1250 oh        1 PA7     -0.587800
     13 C1'         3.6670   -0.2350    1.0700 c3        1 PA7      0.229800
     14 N9          3.6450   -0.9660    2.3210 na        1 PA7     -0.294000
     15 C8          2.8250   -0.7110    3.4510 cc        1 PA7      0.518700
     16 N7          3.2130   -1.3590    4.5620 nd        1 PA7     -0.559100
     17 C5          4.3670   -2.0610    4.1920 ca        1 PA7     -0.131200
     18 C6          5.2680   -2.9040    4.8710 ca        1 PA7      0.542200
     19 N6          5.0470   -3.1800    6.3020 n4        1 PA7     -0.819300
     20 N1          6.3360   -3.4560    4.2450 nb        1 PA7     -0.661000
     21 C2          6.5050   -3.1580    2.9240 ca        1 PA7      0.691900
     22 N3          5.7350   -2.3660    2.1300 nb        1 PA7     -0.648000
     23 C4          4.6730   -1.8180    2.7670 ca        1 PA7      0.452800
     24 H5'        -0.6430    1.2320   -1.5550 hn        1 PA7      0.474300
     25 H511       -1.7300   -1.4120   -0.7020 hx        1 PA7      0.113700
     26 H512       -2.3960    0.2140   -0.1890 hx        1 PA7      0.113700
     27 H521       -2.8720    0.7780   -2.6170 hc        1 PA7      0.070700
     28 H522       -2.2100   -0.8330   -3.1290 hc        1 PA7      0.070700
     29 H531       -4.6090   -0.3820   -1.2110 hc        1 PA7      0.066700
     30 H532       -3.9490   -1.9940   -1.7260 hc        1 PA7      0.066700
     31 H533       -4.6880   -0.8820   -2.9510 hc        1 PA7      0.066700
     32 H4'         2.0240    1.2250   -0.9040 h1        1 PA7      0.131700
     33 H3'         1.6370   -1.8450   -0.4910 h1        1 PA7      0.099700
     34 H2          3.0410   -0.6430   -2.5870 ho        1 PA7      0.471000
     35 H2'         3.9360   -2.2080    0.0060 h1        1 PA7      0.111700
     36 H1          5.4350   -1.0660   -1.0910 ho        1 PA7      0.460000
     37 H1'         4.5430    0.4870    1.0710 h2        1 PA7      0.138700
     38 H8          1.9520   -0.0370    3.3780 h5        1 PA7      0.120800
     39 HN61        4.0600   -3.4340    6.4440 hn        1 PA7      0.486467
     40 HN62        5.2570   -2.3270    6.8390 hn        1 PA7      0.486467
     41 H3          7.3980   -3.6270    2.4400 h5        1 PA7      0.112100
     42 H5'2       -0.0050   -0.2600   -1.9350 hn        1 PA7      0.474300
     43 H63         5.6530   -3.9470    6.6320 hn        1 PA7      0.486467
@<TRIPOS>BOND
     1    1    2 2   
     2    1    3 1   
     3    1    7 1   
     4    3    4 1   
     5    3   24 1   
     6    3   42 1   
     7    4    5 1   
     8    4   25 1   
     9    4   26 1   
    10    5    6 1   
    11    5   27 1   
    12    5   28 1   
    13    6   29 1   
    14    6   30 1   
    15    6   31 1   
    16    7    8 1   
    17    7    9 1   
    18    7   32 1   
    19    8   13 1   
    20    9   10 1   
    21    9   11 1   
    22    9   33 1   
    23   10   34 1   
    24   11   12 1   
    25   11   13 1   
    26   11   35 1   
    27   12   36 1   
    28   13   14 1   
    29   13   37 1   
    30   14   15 1   
    31   14   23 1   
    32   15   16 2   
    33   15   38 1   
    34   16   17 1   
    35   17   18 ar  
    36   17   23 ar  
    37   18   19 1   
    38   18   20 ar  
    39   19   39 1   
    40   19   40 1   
    41   19   43 1   
    42   20   21 ar  
    43   21   22 ar  
    44   21   41 1   
    45   22   23 ar  
@<TRIPOS>SUBSTRUCTURE
     1 PA7         1 TEMP              0 ****  ****    0 ROOT
