@<TRIPOS>MOLECULE
PA7
   42    44     1     0     0
SMALL
bcc


@<TRIPOS>ATOM
      1 C5'         0.5870    0.7790    0.0550 c         1 PA7      0.528100
      2 O5'         0.1050    0.9770    1.1550 o         1 PA7     -0.381100
      3 N5'        -0.3710    0.4950   -1.0900 n4        1 PA7     -0.686800
      4 C51        -1.4120   -0.5110   -0.7200 c3        1 PA7      0.101800
      5 C52        -2.4410   -0.7240   -1.8230 c3        1 PA7     -0.104400
      6 C53        -3.4470   -1.7560   -1.3740 c3        1 PA7     -0.102100
      7 C4'         2.0400    0.7950   -0.3780 c3        1 PA7      0.041100
      8 O4'         2.8660    1.0790    0.7350 os        1 PA7     -0.370600
      9 C3'         2.4540   -0.5750   -0.9800 c3        1 PA7      0.117100
     10 O3'         2.3450   -0.5230   -2.3750 oh        1 PA7     -0.606800
     11 C2'         3.8590   -0.8170   -0.3920 c3        1 PA7      0.095100
     12 O2'         4.7910   -0.2570   -1.2890 oh        1 PA7     -0.600800
     13 C1'         3.8460    0.0240    0.9310 c3        1 PA7      0.239800
     14 N9          3.5010   -0.7450    2.0950 na        1 PA7     -0.328000
     15 C8          2.6750   -0.3250    3.1840 cc        1 PA7      0.406700
     16 N7          2.8040   -1.0880    4.2700 nd        1 PA7     -0.510100
     17 C5          3.7890   -2.0380    3.9480 ca        1 PA7     -0.238200
     18 C6          4.3850   -3.1150    4.6900 ca        1 PA7      0.777200
     19 N6          3.9760   -3.3930    5.9600 nh        1 PA7     -0.938500
     20 N1          5.3690   -3.8670    4.0770 nb        1 PA7     -0.777000
     21 C2          5.7120   -3.5490    2.8090 ca        1 PA7      0.709900
     22 N3          5.2340   -2.5710    1.9920 nb        1 PA7     -0.779000
     23 C4          4.2660   -1.8230    2.5910 ca        1 PA7      0.463800
     24 H5'        -0.8370    1.3700   -1.3570 hn        1 PA7      0.466800
     25 H511       -1.9210   -0.1500    0.2220 hx        1 PA7      0.111700
     26 H512       -0.8820   -1.4800   -0.4920 hx        1 PA7      0.111700
     27 H521       -1.9380   -1.0740   -2.7640 hc        1 PA7      0.067200
     28 H522       -2.9700    0.2390   -2.0540 hc        1 PA7      0.067200
     29 H531       -4.2060   -1.9120   -2.1810 hc        1 PA7      0.062700
     30 H532       -2.9500   -2.7340   -1.1650 hc        1 PA7      0.062700
     31 H533       -3.9790   -1.4210   -0.4510 hc        1 PA7      0.062700
     32 H4'         2.1880    1.6370   -1.1160 h1        1 PA7      0.127700
     33 H3'         1.7630   -1.3990   -0.6440 h1        1 PA7      0.089700
     34 H2          3.2060   -0.2780   -2.7530 ho        1 PA7      0.466000
     35 H2'         4.0500   -1.9090   -0.2210 h1        1 PA7      0.126700
     36 H1          5.6360   -0.7120   -1.1560 ho        1 PA7      0.454000
     37 H1'         4.8240    0.5770    1.0750 h2        1 PA7      0.128700
     38 H8          2.0050    0.5380    3.0730 h5        1 PA7      0.085800
     39 HN61        3.3110   -2.8020    6.3940 hn        1 PA7      0.459300
     40 HN62        4.4090   -4.1140    6.4860 hn        1 PA7      0.459300
     41 H3          6.5140   -4.1840    2.3680 h5        1 PA7      0.064100
     42 H5'2        0.1640    0.1530   -1.9030 hn        1 PA7      0.466800
@<TRIPOS>BOND
     1    1    2 2   
     2    1    3 1   
     3    1    7 1   
     4    3    4 1   
     5    3   24 1   
     6    3   42 1   
     7    4    5 1   
     8    4   25 1   
     9    4   26 1   
    10    5    6 1   
    11    5   27 1   
    12    5   28 1   
    13    6   29 1   
    14    6   30 1   
    15    6   31 1   
    16    7    8 1   
    17    7    9 1   
    18    7   32 1   
    19    8   13 1   
    20    9   10 1   
    21    9   11 1   
    22    9   33 1   
    23   10   34 1   
    24   11   12 1   
    25   11   13 1   
    26   11   35 1   
    27   12   36 1   
    28   13   14 1   
    29   13   37 1   
    30   14   15 1   
    31   14   23 1   
    32   15   16 2   
    33   15   38 1   
    34   16   17 1   
    35   17   18 ar  
    36   17   23 ar  
    37   18   19 1   
    38   18   20 ar  
    39   19   39 1   
    40   19   40 1   
    41   20   21 ar  
    42   21   22 ar  
    43   21   41 1   
    44   22   23 ar  
@<TRIPOS>SUBSTRUCTURE
     1 PA7         1 TEMP              0 ****  ****    0 ROOT
