@<TRIPOS>MOLECULE
PA7
   42    44     1     0     0
SMALL
bcc


@<TRIPOS>ATOM
      1 C5'         0.6070    0.7870    0.0360 c         1 PA7      0.528100
      2 O5'         0.1370    1.0080    1.1360 o         1 PA7     -0.381100
      3 N5'        -0.3630    0.4970   -1.0980 ny        1 PA7     -0.686800
      4 C51        -1.4130   -0.4910   -0.7040 c3        1 PA7      0.101800
      5 C52        -2.4530   -0.7080   -1.7970 c3        1 PA7     -0.104400
      6 C53        -3.4680   -1.7200   -1.3240 c3        1 PA7     -0.102100
      7 C4'         2.0570    0.7760   -0.4070 c3        1 PA7      0.041100
      8 O4'         2.8950    1.0660    0.6950 os        1 PA7     -0.370600
      9 C3'         2.4480   -0.6090   -0.9910 c3        1 PA7      0.117100
     10 O3'         2.3290   -0.5770   -2.3860 oh        1 PA7     -0.606800
     11 C2'         3.8540   -0.8610   -0.4100 c3        1 PA7      0.095100
     12 O2'         4.7870   -0.3270   -1.3220 oh        1 PA7     -0.600800
     13 C1'         3.8620    0.0010    0.9000 c3        1 PA7      0.239800
     14 N9          3.5150   -0.7460    2.0780 na        1 PA7     -0.328000
     15 C8          2.7030   -0.2980    3.1660 cc        1 PA7      0.406700
     16 N7          2.8290   -1.0460    4.2630 nd        1 PA7     -0.510100
     17 C5          3.7990   -2.0140    3.9490 ca        1 PA7     -0.238200
     18 C6          4.3860   -3.0880    4.7030 ca        1 PA7      0.777200
     19 N6          3.9830   -3.3420    5.9790 nv        1 PA7     -0.938500
     20 N1          5.3560   -3.8630    4.0950 nb        1 PA7     -0.777000
     21 C2          5.6940   -3.5680    2.8190 ca        1 PA7      0.709900
     22 N3          5.2230   -2.5960    1.9910 nb        1 PA7     -0.779000
     23 C4          4.2690   -1.8260    2.5850 ca        1 PA7      0.463800
     24 H5'         0.1610    0.1360   -1.9090 hn        1 PA7      0.466800
     25 H511       -1.9110   -0.1090    0.2360 hx        1 PA7      0.111700
     26 H512       -0.8930   -1.4620   -0.4660 hx        1 PA7      0.111700
     27 H521       -1.9620   -1.0780   -2.7360 hc        1 PA7      0.067200
     28 H522       -2.9720    0.2580   -2.0380 hc        1 PA7      0.067200
     29 H531       -3.9890   -1.3650   -0.4020 hc        1 PA7      0.062700
     30 H532       -4.2340   -1.8790   -2.1230 hc        1 PA7      0.062700
     31 H533       -2.9810   -2.7010   -1.1040 hc        1 PA7      0.062700
     32 H4'         2.2120    1.6050   -1.1600 h1        1 PA7      0.127700
     33 H3'         1.7490   -1.4180   -0.6380 h1        1 PA7      0.089700
     34 H2          3.1910   -0.3490   -2.7740 ho        1 PA7      0.466000
     35 H2'         4.0310   -1.9520   -0.2240 h1        1 PA7      0.126700
     36 H1          5.6270   -0.7910   -1.1880 ho        1 PA7      0.454000
     37 H1'         4.8480    0.5420    1.0280 h2        1 PA7      0.128700
     38 H8          2.0430    0.5720    3.0470 h5        1 PA7      0.085800
     39 HN61        3.3280   -2.7350    6.4090 hn        1 PA7      0.459300
     40 HN62        4.4100   -4.0600    6.5130 hn        1 PA7      0.459300
     41 H3          6.4840   -4.2210    2.3820 h5        1 PA7      0.064100
     42 H5'2       -0.8200    1.3740   -1.3750 hn        1 PA7      0.466800
@<TRIPOS>BOND
     1    1    2 2   
     2    1    3 1   
     3    1    7 1   
     4    3    4 1   
     5    3   24 1   
     6    3   42 1   
     7    4    5 1   
     8    4   25 1   
     9    4   26 1   
    10    5    6 1   
    11    5   27 1   
    12    5   28 1   
    13    6   29 1   
    14    6   30 1   
    15    6   31 1   
    16    7    8 1   
    17    7    9 1   
    18    7   32 1   
    19    8   13 1   
    20    9   10 1   
    21    9   11 1   
    22    9   33 1   
    23   10   34 1   
    24   11   12 1   
    25   11   13 1   
    26   11   35 1   
    27   12   36 1   
    28   13   14 1   
    29   13   37 1   
    30   14   15 1   
    31   14   23 1   
    32   15   16 2   
    33   15   38 1   
    34   16   17 1   
    35   17   18 ar  
    36   17   23 ar  
    37   18   19 1   
    38   18   20 ar  
    39   19   39 1   
    40   19   40 1   
    41   20   21 ar  
    42   21   22 ar  
    43   21   41 1   
    44   22   23 ar  
@<TRIPOS>SUBSTRUCTURE
     1 PA7         1 TEMP              0 ****  ****    0 ROOT
