@<TRIPOS>MOLECULE
PA8
   63    62     1     0     0
SMALL
bcc


@<TRIPOS>ATOM
      1 O1         -1.2820   -2.8190   -1.1760 o         1 PA8     -0.848000
      2 O2         -1.7540   -0.2320   -1.1200 o         1 PA8     -0.848000
      3 P1         -0.9160   -1.4230   -0.8610 p5        1 PA8      1.438800
      4 O3         -0.5750   -1.2980    0.7360 oh        1 PA8     -0.784400
      5 O4          0.5880   -1.0910   -1.4390 os        1 PA8     -0.592200
      6 C1          1.6220   -1.9750   -1.1210 c3        1 PA8      0.192400
      7 C2          2.2310   -2.5580   -2.4090 c3        1 PA8      0.120100
      8 C3          3.7590   -2.5190   -2.4550 c3        1 PA8      0.150400
      9 O5          4.2950   -3.0470   -1.2540 os        1 PA8     -0.477900
     10 C4          5.7080   -3.1290   -1.2030 c2        1 PA8      0.431100
     11 O6          6.2820   -2.6810   -2.2350 o         1 PA8     -0.575000
     12 C5          6.1950   -3.6840   -0.0330 c2        1 PA8     -0.601200
     13 C6          7.6290   -3.8530    0.1940 c3        1 PA8      0.076800
     14 C7          8.1050   -3.1120    1.4390 c3        1 PA8     -0.084400
     15 C8          9.5840   -3.3250    1.6870 c3        1 PA8     -0.078400
     16 C9         10.0560   -2.5870    2.9220 c3        1 PA8     -0.079400
     17 C10        11.5340   -2.7980    3.1680 c3        1 PA8     -0.081400
     18 C11        12.0070   -2.0650    4.3970 c3        1 PA8     -0.088100
     19 O7          1.7870   -3.9320   -2.4540 os        1 PA8     -0.405900
     20 C12         1.2760   -4.4220   -3.6080 c         1 PA8      0.648100
     21 O8          1.4240   -3.8180   -4.6770 o         1 PA8     -0.592000
     22 C13         0.5650   -5.7310   -3.4010 c3        1 PA8     -0.121400
     23 C14        -0.8850   -5.4660   -3.0480 c3        1 PA8     -0.110400
     24 C15        -1.5800   -6.7350   -2.6090 c3        1 PA8     -0.061400
     25 C16        -3.0130   -6.4440   -2.2140 c3        1 PA8     -0.086400
     26 C17        -3.7030   -7.6820   -1.6820 c3        1 PA8     -0.075400
     27 C18        -5.1370   -7.3890   -1.2950 c3        1 PA8     -0.083400
     28 C19        -5.8290   -8.6130   -0.7530 c3        1 PA8     -0.088100
     29 H2          2.4290   -1.4050   -0.5820 h1        1 PA8      0.051200
     30 H3          1.2390   -2.8040   -0.4650 h1        1 PA8      0.051200
     31 H4          1.8390   -2.0010   -3.3050 h1        1 PA8      0.074700
     32 H5          4.0900   -1.4530   -2.5770 h1        1 PA8      0.030700
     33 H6          4.1260   -3.1150   -3.3320 h1        1 PA8      0.030700
     34 H7         -0.6790   -0.4070    1.0460 ho        1 PA8      0.419000
     35 H8          5.5040   -4.0130    0.7430 ha        1 PA8      0.099000
     36 H9          8.2130   -3.4860   -0.6930 hc        1 PA8     -0.008800
     37 H10         7.8890   -4.9430    0.3310 hc        1 PA8     -0.008800
     38 H11         7.8960   -2.0190    1.3160 hc        1 PA8      0.028200
     39 H12         7.5210   -3.4650    2.3270 hc        1 PA8      0.028200
     40 H13         9.7920   -4.4210    1.8040 hc        1 PA8      0.025700
     41 H14        10.1660   -2.9730    0.7950 hc        1 PA8      0.025700
     42 H15         9.4730   -2.9390    3.8140 hc        1 PA8      0.034200
     43 H16         9.8480   -1.4910    2.8040 hc        1 PA8      0.034200
     44 H17        11.7400   -3.8950    3.2830 hc        1 PA8      0.031700
     45 H18        12.1140   -2.4470    2.2740 hc        1 PA8      0.031700
     46 H19        11.4560   -2.4190    5.3020 hc        1 PA8      0.021700
     47 H20        13.0990   -2.2330    4.5600 hc        1 PA8      0.021700
     48 H21        11.8310   -0.9670    4.2910 hc        1 PA8      0.021700
     49 H22         0.6460   -6.3350   -4.3410 hc        1 PA8      0.052200
     50 H23         1.0680   -6.2910   -2.5700 hc        1 PA8      0.052200
     51 H24        -1.4120   -5.0320   -3.9370 hc        1 PA8      0.097200
     52 H25        -0.9400   -4.6910   -2.2240 hc        1 PA8      0.097200
     53 H26        -1.0340   -7.1790   -1.7350 hc        1 PA8      0.019200
     54 H27        -1.5590   -7.4950   -3.4340 hc        1 PA8      0.019200
     55 H28        -3.0200   -5.6330   -1.4360 hc        1 PA8      0.058200
     56 H29        -3.5740   -6.0520   -3.1020 hc        1 PA8      0.058200
     57 H30        -3.1450   -8.0670   -0.7880 hc        1 PA8      0.027700
     58 H31        -3.6810   -8.4920   -2.4580 hc        1 PA8      0.027700
     59 H32        -5.1520   -6.5730   -0.5250 hc        1 PA8      0.042200
     60 H33        -5.6940   -7.0060   -2.1910 hc        1 PA8      0.042200
     61 H34        -5.8410   -9.4290   -1.5150 hc        1 PA8      0.021700
     62 H35        -5.3020   -8.9920    0.1560 hc        1 PA8      0.021700
     63 H36        -6.8840   -8.3740   -0.4750 hc        1 PA8      0.021700
@<TRIPOS>BOND
     1    1    3 1   
     2    2    3 1   
     3    3    4 1   
     4    3    5 1   
     5    4   34 1   
     6    5    6 1   
     7    6    7 1   
     8    6   29 1   
     9    6   30 1   
    10    7    8 1   
    11    7   19 1   
    12    7   31 1   
    13    8    9 1   
    14    8   32 1   
    15    8   33 1   
    16    9   10 1   
    17   10   11 1   
    18   10   12 2   
    19   12   13 1   
    20   12   35 1   
    21   13   14 1   
    22   13   36 1   
    23   13   37 1   
    24   14   15 1   
    25   14   38 1   
    26   14   39 1   
    27   15   16 1   
    28   15   40 1   
    29   15   41 1   
    30   16   17 1   
    31   16   42 1   
    32   16   43 1   
    33   17   18 1   
    34   17   44 1   
    35   17   45 1   
    36   18   46 1   
    37   18   47 1   
    38   18   48 1   
    39   19   20 1   
    40   20   21 2   
    41   20   22 1   
    42   22   23 1   
    43   22   49 1   
    44   22   50 1   
    45   23   24 1   
    46   23   51 1   
    47   23   52 1   
    48   24   25 1   
    49   24   53 1   
    50   24   54 1   
    51   25   26 1   
    52   25   55 1   
    53   25   56 1   
    54   26   27 1   
    55   26   57 1   
    56   26   58 1   
    57   27   28 1   
    58   27   59 1   
    59   27   60 1   
    60   28   61 1   
    61   28   62 1   
    62   28   63 1   
@<TRIPOS>SUBSTRUCTURE
     1 PA8         1 TEMP              0 ****  ****    0 ROOT
