@<TRIPOS>MOLECULE
PA8
   63    62     1     0     0
SMALL
bcc


@<TRIPOS>ATOM
      1 O1          3.7330    1.9130   -0.2420 o         1 PA8     -0.914167
      2 O2          5.1160    0.4220   -1.7830 o         1 PA8     -0.914167
      3 P1          4.5170    0.6470   -0.4110 p5        1 PA8      1.316900
      4 O3          5.3600    0.1330    0.7190 o         1 PA8     -0.914167
      5 O4          3.2670   -0.5630   -0.4550 os        1 PA8     -0.562200
      6 C1          2.1580   -0.2440   -1.1810 c3        1 PA8      0.230400
      7 C2          1.9320   -1.1810   -2.4010 c3        1 PA8      0.075100
      8 C3          3.1590   -1.2410   -3.3110 c3        1 PA8      0.059400
      9 O5          3.5320   -2.5760   -3.6600 os        1 PA8     -0.444900
     10 C4          4.4450   -3.2470   -2.8850 c         1 PA8      0.664100
     11 O6          4.7820   -4.3110   -3.4340 o         1 PA8     -0.617000
     12 C5          4.8580   -2.7380   -1.5530 c3        1 PA8     -0.223400
     13 C6          5.9530   -3.5600   -0.9150 c3        1 PA8     -0.039400
     14 C7          6.1330   -3.1480    0.5320 c3        1 PA8     -0.115400
     15 C8          7.4100   -3.7160    1.1140 c3        1 PA8     -0.061400
     16 C9          7.5830   -3.2770    2.5530 c3        1 PA8     -0.086400
     17 C10         8.8970   -3.7610    3.1280 c3        1 PA8     -0.078400
     18 C11         9.0650   -3.3350    4.5640 c3        1 PA8     -0.088100
     19 O7          1.6580   -2.5000   -1.8790 os        1 PA8     -0.391900
     20 C12         0.6410   -3.2190   -2.3970 c         1 PA8      0.639100
     21 O8         -0.1560   -2.7310   -3.2090 o         1 PA8     -0.602000
     22 C13         0.6200   -4.6220   -1.8550 c3        1 PA8     -0.140400
     23 C14        -0.7760   -5.2020   -1.8760 c3        1 PA8     -0.074400
     24 C15        -0.7650   -6.6580   -1.4600 c3        1 PA8     -0.079400
     25 C16        -2.1620   -7.2400   -1.4640 c3        1 PA8     -0.078400
     26 C17        -2.1530   -8.6970   -1.0540 c3        1 PA8     -0.079400
     27 C18        -3.5500   -9.2800   -1.0560 c3        1 PA8     -0.080400
     28 C19        -3.5460  -10.7310   -0.6480 c3        1 PA8     -0.090100
     29 H2          2.2220    0.8080   -1.5840 h1        1 PA8      0.007200
     30 H3          1.2310   -0.3430   -0.5400 h1        1 PA8      0.007200
     31 H4          1.0390   -0.8160   -2.9760 h1        1 PA8      0.037700
     32 H5          2.9060   -0.7890   -4.3090 h1        1 PA8      0.112700
     33 H6          4.0170   -0.6580   -2.8250 h1        1 PA8      0.112700
     34 H7          5.1810   -1.6390   -1.6070 hc        1 PA8      0.156200
     35 H8          3.9340   -2.7170   -0.9020 hc        1 PA8      0.156200
     36 H9          5.7100   -4.6540   -0.9810 hc        1 PA8      0.013700
     37 H10         6.9100   -3.4060   -1.4790 hc        1 PA8      0.013700
     38 H11         5.2560   -3.5070    1.1310 hc        1 PA8      0.092200
     39 H12         6.1350   -2.0170    0.6150 hc        1 PA8      0.092200
     40 H13         8.2860   -3.3630    0.5080 hc        1 PA8      0.013200
     41 H14         7.3990   -4.8360    1.0580 hc        1 PA8      0.013200
     42 H15         7.5310   -2.1560    2.6020 hc        1 PA8      0.055200
     43 H16         6.7350   -3.6730    3.1700 hc        1 PA8      0.055200
     44 H17         9.7440   -3.3540    2.5150 hc        1 PA8      0.024200
     45 H18         8.9500   -4.8800    3.0600 hc        1 PA8      0.024200
     46 H19         9.0260   -2.2220    4.6470 hc        1 PA8      0.021700
     47 H20         8.2490   -3.7600    5.1980 hc        1 PA8      0.021700
     48 H21        10.0450   -3.6870    4.9680 hc        1 PA8      0.021700
     49 H22         1.0350   -4.6210   -0.8130 hc        1 PA8      0.079200
     50 H23         1.3130   -5.2330   -2.4950 hc        1 PA8      0.079200
     51 H24        -1.4360   -4.6150   -1.1850 hc        1 PA8      0.048700
     52 H25        -1.2060   -5.0990   -2.9080 hc        1 PA8      0.048700
     53 H26        -0.1110   -7.2430   -2.1600 hc        1 PA8      0.039700
     54 H27        -0.3200   -6.7530   -0.4350 hc        1 PA8      0.039700
     55 H28        -2.6080   -7.1400   -2.4890 hc        1 PA8      0.037200
     56 H29        -2.8140   -6.6550   -0.7620 hc        1 PA8      0.037200
     57 H30        -1.7070   -8.7960   -0.0290 hc        1 PA8      0.038200
     58 H31        -1.5010   -9.2810   -1.7560 hc        1 PA8      0.038200
     59 H32        -3.9950   -9.1780   -2.0810 hc        1 PA8      0.036200
     60 H33        -4.2000   -8.6940   -0.3550 hc        1 PA8      0.036200
     61 H34        -3.1280  -10.8500    0.3810 hc        1 PA8      0.027033
     62 H35        -4.5850  -11.1420   -0.6560 hc        1 PA8      0.027033
     63 H36        -2.9220  -11.3350   -1.3500 hc        1 PA8      0.027033
@<TRIPOS>BOND
     1    1    3 1   
     2    2    3 1   
     3    3    4 1   
     4    3    5 1   
     5    5    6 1   
     6    6    7 1   
     7    6   29 1   
     8    6   30 1   
     9    7    8 1   
    10    7   19 1   
    11    7   31 1   
    12    8    9 1   
    13    8   32 1   
    14    8   33 1   
    15    9   10 1   
    16   10   11 2   
    17   10   12 1   
    18   12   13 1   
    19   12   34 1   
    20   12   35 1   
    21   13   14 1   
    22   13   36 1   
    23   13   37 1   
    24   14   15 1   
    25   14   38 1   
    26   14   39 1   
    27   15   16 1   
    28   15   40 1   
    29   15   41 1   
    30   16   17 1   
    31   16   42 1   
    32   16   43 1   
    33   17   18 1   
    34   17   44 1   
    35   17   45 1   
    36   18   46 1   
    37   18   47 1   
    38   18   48 1   
    39   19   20 1   
    40   20   21 2   
    41   20   22 1   
    42   22   23 1   
    43   22   49 1   
    44   22   50 1   
    45   23   24 1   
    46   23   51 1   
    47   23   52 1   
    48   24   25 1   
    49   24   53 1   
    50   24   54 1   
    51   25   26 1   
    52   25   55 1   
    53   25   56 1   
    54   26   27 1   
    55   26   57 1   
    56   26   58 1   
    57   27   28 1   
    58   27   59 1   
    59   27   60 1   
    60   28   61 1   
    61   28   62 1   
    62   28   63 1   
@<TRIPOS>SUBSTRUCTURE
     1 PA8         1 TEMP              0 ****  ****    0 ROOT
