@<TRIPOS>MOLECULE
PA8
   63    62     1     0     0
SMALL
bcc


@<TRIPOS>ATOM
      1 O1         -0.1430    3.4570    3.6590 o         1 PA8     -0.927167
      2 O2          2.1570    3.3700    4.5440 o         1 PA8     -0.927167
      3 P1          0.9880    2.5430    4.0660 p5        1 PA8      1.323900
      4 O3          0.5250    1.6350    5.1800 o         1 PA8     -0.927167
      5 O4          1.4330    1.6700    2.8250 os        1 PA8     -0.558200
      6 C1          0.4810    0.8230    2.2240 c3        1 PA8      0.241400
      7 C2          1.1150    0.1010    1.0570 c3        1 PA8      0.105100
      8 C3          0.1870   -0.9920    0.5760 c3        1 PA8      0.109400
      9 O5         -1.1110   -0.7560    1.0690 os        1 PA8     -0.450900
     10 C4         -1.9310   -1.8970    1.0820 c         1 PA8      0.678100
     11 O6         -1.4690   -2.9810    0.7850 o         1 PA8     -0.585000
     12 C5         -3.3920   -1.7750    1.4560 c3        1 PA8     -0.115400
     13 C6         -4.0120   -3.1540    1.5280 c3        1 PA8     -0.116400
     14 C7         -5.5040   -3.0490    1.2990 c3        1 PA8     -0.040400
     15 C8         -6.2190   -4.0660    2.1600 c3        1 PA8     -0.124400
     16 C9         -7.6960   -4.0590    1.8290 c3        1 PA8     -0.060400
     17 C10        -8.4430   -4.9060    2.8360 c3        1 PA8     -0.087400
     18 C11        -9.9320   -4.7500    2.6200 c3        1 PA8     -0.084100
     19 O7          1.3470    1.0130    0.0110 os        1 PA8     -0.419900
     20 C12         2.6890    1.0780   -0.4000 c         1 PA8      0.629100
     21 O8          3.4650    0.2000   -0.0810 o         1 PA8     -0.588000
     22 C13         3.1680    2.2450   -1.2350 c3        1 PA8     -0.136400
     23 C14         4.4210    1.8480   -1.9850 c3        1 PA8     -0.078400
     24 C15         5.2020    3.0900   -2.3550 c3        1 PA8     -0.077400
     25 C16         6.0650    2.8010   -3.5640 c3        1 PA8     -0.079400
     26 C17         6.9430    3.9980   -3.8540 c3        1 PA8     -0.078400
     27 C18         7.6750    3.7820   -5.1600 c3        1 PA8     -0.081400
     28 C19         8.3690    5.0630   -5.5670 c3        1 PA8     -0.090100
     29 H2         -0.2760    1.3570    1.9060 h1        1 PA8      0.010200
     30 H3          0.1660    0.1690    2.8810 h1        1 PA8      0.010200
     31 H4          1.9640   -0.2930    1.3390 h1        1 PA8      0.076700
     32 H5          0.5070   -1.8590    0.9010 h1        1 PA8      0.088700
     33 H6          0.1680   -0.9970   -0.4040 h1        1 PA8      0.088700
     34 H7         -3.4700   -1.3370    2.3270 hc        1 PA8      0.034200
     35 H8         -3.8580   -1.2430    0.7810 hc        1 PA8      0.034200
     36 H9         -3.8440   -3.5410    2.4100 hc        1 PA8      0.117700
     37 H10        -3.6160   -3.7250    0.8400 hc        1 PA8      0.117700
     38 H11        -5.8070   -2.1490    1.5360 hc        1 PA8     -0.005300
     39 H12        -5.7020   -3.2220    0.3570 hc        1 PA8     -0.005300
     40 H13        -6.0960   -3.8390    3.1040 hc        1 PA8      0.100700
     41 H14        -5.8510   -4.9560    1.9880 hc        1 PA8      0.100700
     42 H15        -7.8300   -4.4250    0.9320 hc        1 PA8      0.009200
     43 H16        -8.0320   -3.1420    1.8610 hc        1 PA8      0.009200
     44 H17        -8.2120   -4.6160    3.7410 hc        1 PA8      0.052200
     45 H18        -8.1930   -5.8450    2.7210 hc        1 PA8      0.052200
     46 H19       -10.1770   -3.8040    2.7030 hc        1 PA8      0.013033
     47 H20       -10.1680   -5.0710    1.7240 hc        1 PA8      0.013033
     48 H21       -10.4160   -5.2730    3.2920 hc        1 PA8      0.013033
     49 H22         3.3650    3.0050   -0.6510 hc        1 PA8      0.063700
     50 H23         2.4720    2.4970   -1.8740 hc        1 PA8      0.063700
     51 H24         4.9720    1.2730   -1.4170 hc        1 PA8      0.055200
     52 H25         4.1750    1.3640   -2.7980 hc        1 PA8      0.055200
     53 H26         5.7710    3.3530   -1.6040 hc        1 PA8      0.034700
     54 H27         4.5810    3.8160   -2.5630 hc        1 PA8      0.034700
     55 H28         6.6260    2.0210   -3.3850 hc        1 PA8      0.040700
     56 H29         5.4930    2.6220   -4.3370 hc        1 PA8      0.040700
     57 H30         7.5930    4.1090   -3.1310 hc        1 PA8      0.036700
     58 H31         6.3890    4.8020   -3.9190 hc        1 PA8      0.036700
     59 H32         8.3390    3.0730   -5.0490 hc        1 PA8      0.037700
     60 H33         7.0340    3.5240   -5.8530 hc        1 PA8      0.037700
     61 H34         8.7630    4.9530   -6.4570 hc        1 PA8      0.027033
     62 H35         9.0750    5.2720   -4.9200 hc        1 PA8      0.027033
     63 H36         7.7180    5.7960   -5.5870 hc        1 PA8      0.027033
@<TRIPOS>BOND
     1    1    3 1   
     2    2    3 1   
     3    3    4 1   
     4    3    5 1   
     5    5    6 1   
     6    6    7 1   
     7    6   29 1   
     8    6   30 1   
     9    7    8 1   
    10    7   19 1   
    11    7   31 1   
    12    8    9 1   
    13    8   32 1   
    14    8   33 1   
    15    9   10 1   
    16   10   11 2   
    17   10   12 1   
    18   12   13 1   
    19   12   34 1   
    20   12   35 1   
    21   13   14 1   
    22   13   36 1   
    23   13   37 1   
    24   14   15 1   
    25   14   38 1   
    26   14   39 1   
    27   15   16 1   
    28   15   40 1   
    29   15   41 1   
    30   16   17 1   
    31   16   42 1   
    32   16   43 1   
    33   17   18 1   
    34   17   44 1   
    35   17   45 1   
    36   18   46 1   
    37   18   47 1   
    38   18   48 1   
    39   19   20 1   
    40   20   21 2   
    41   20   22 1   
    42   22   23 1   
    43   22   49 1   
    44   22   50 1   
    45   23   24 1   
    46   23   51 1   
    47   23   52 1   
    48   24   25 1   
    49   24   53 1   
    50   24   54 1   
    51   25   26 1   
    52   25   55 1   
    53   25   56 1   
    54   26   27 1   
    55   26   57 1   
    56   26   58 1   
    57   27   28 1   
    58   27   59 1   
    59   27   60 1   
    60   28   61 1   
    61   28   62 1   
    62   28   63 1   
@<TRIPOS>SUBSTRUCTURE
     1 PA8         1 TEMP              0 ****  ****    0 ROOT
