@<TRIPOS>MOLECULE
PA8
   63    62     1     0     0
SMALL
bcc


@<TRIPOS>ATOM
      1 O1         -0.6500    1.7940   -2.0120 o         1 PA8     -0.914833
      2 O2         -2.7360    3.1180   -1.4110 o         1 PA8     -0.914833
      3 P1         -1.9670    1.8380   -1.2920 p5        1 PA8      1.323900
      4 O3         -2.7760    0.5590   -1.2930 o         1 PA8     -0.914833
      5 O4         -1.4930    1.8380    0.3890 os        1 PA8     -0.564200
      6 C1         -0.3780    2.5660    0.6770 c3        1 PA8      0.234400
      7 C2          0.5600    1.8590    1.6940 c3        1 PA8      0.091100
      8 C3         -0.1600    1.1870    2.8610 c3        1 PA8      0.144400
      9 O5         -0.6900   -0.0720    2.4570 os        1 PA8     -0.457900
     10 C4         -2.0700   -0.1880    2.4200 c         1 PA8      0.697100
     11 O6         -2.6860    0.3300    3.3600 o         1 PA8     -0.614000
     12 C5         -2.5520   -0.9570    1.2540 c3        1 PA8     -0.219400
     13 C6         -3.9760   -1.4350    1.3890 c3        1 PA8     -0.037400
     14 C7         -4.5390   -1.7460    0.0170 c3        1 PA8     -0.114400
     15 C8         -6.0330   -1.9740    0.0680 c3        1 PA8     -0.065400
     16 C9         -6.5850   -2.2690   -1.3110 c3        1 PA8     -0.081400
     17 C10        -8.0870   -2.4540   -1.2820 c3        1 PA8     -0.079400
     18 C11        -8.6370   -2.7520   -2.6540 c3        1 PA8     -0.088100
     19 O7          1.3040    0.8880    0.9350 os        1 PA8     -0.348900
     20 C12         2.4930    0.4610    1.4030 c         1 PA8      0.630100
     21 O8          2.9820    0.9250    2.4460 o         1 PA8     -0.623000
     22 C13         3.0940   -0.5910    0.5140 c3        1 PA8     -0.139400
     23 C14         4.6030   -0.4970    0.4900 c3        1 PA8     -0.074400
     24 C15         5.2040   -1.6370   -0.3040 c3        1 PA8     -0.079400
     25 C16         6.7130   -1.5370   -0.3510 c3        1 PA8     -0.077400
     26 C17         7.3170   -2.6780   -1.1410 c3        1 PA8     -0.079400
     27 C18         8.8270   -2.5790   -1.1910 c3        1 PA8     -0.080400
     28 C19         9.4320   -3.7140   -1.9760 c3        1 PA8     -0.090100
     29 H2         -0.6490    3.5340    1.2030 h1        1 PA8      0.012700
     30 H3          0.2160    2.7860   -0.2580 h1        1 PA8      0.012700
     31 H4          1.2820    2.6120    2.1190 h1        1 PA8      0.023700
     32 H5         -0.9660    1.8680    3.2380 h1        1 PA8      0.043200
     33 H6          0.5720    0.9480    3.6800 h1        1 PA8      0.043200
     34 H7         -1.8530   -1.7960    1.0190 hc        1 PA8      0.153200
     35 H8         -2.4810   -0.2120    0.3430 hc        1 PA8      0.153200
     36 H9         -4.0340   -2.3420    2.0480 hc        1 PA8      0.012700
     37 H10        -4.5900   -0.6320    1.8770 hc        1 PA8      0.012700
     38 H11        -4.0340   -2.6570   -0.3980 hc        1 PA8      0.089700
     39 H12        -4.2850   -0.8820   -0.6760 hc        1 PA8      0.089700
     40 H13        -6.5350   -1.0600    0.4830 hc        1 PA8      0.016700
     41 H14        -6.2740   -2.8250    0.7590 hc        1 PA8      0.016700
     42 H15        -6.1010   -3.1940   -1.7200 hc        1 PA8      0.047700
     43 H16        -6.3170   -1.4240   -2.0000 hc        1 PA8      0.047700
     44 H17        -8.5680   -1.5230   -0.8800 hc        1 PA8      0.027200
     45 H18        -8.3500   -3.2900   -0.5820 hc        1 PA8      0.027200
     46 H19        -8.1910   -3.6920   -3.0600 hc        1 PA8      0.021700
     47 H20        -9.7460   -2.8760   -2.6150 hc        1 PA8      0.021700
     48 H21        -8.3980   -1.9200   -3.3590 hc        1 PA8      0.021700
     49 H22         2.7660   -1.5890    0.9100 hc        1 PA8      0.083700
     50 H23         2.6680   -0.4790   -0.5210 hc        1 PA8      0.083700
     51 H24         4.9080    0.4820    0.0370 hc        1 PA8      0.047200
     52 H25         4.9950   -0.5110    1.5420 hc        1 PA8      0.047200
     53 H26         4.9060   -2.6160    0.1570 hc        1 PA8      0.040700
     54 H27         4.7920   -1.6240   -1.3480 hc        1 PA8      0.040700
     55 H28         7.0100   -0.5600   -0.8160 hc        1 PA8      0.036700
     56 H29         7.1230   -1.5430    0.6930 hc        1 PA8      0.036700
     57 H30         7.0200   -3.6550   -0.6760 hc        1 PA8      0.038700
     58 H31         6.9050   -2.6710   -2.1840 hc        1 PA8      0.038700
     59 H32         9.1200   -1.6010   -1.6560 hc        1 PA8      0.035700
     60 H33         9.2360   -2.5830   -0.1460 hc        1 PA8      0.035700
     61 H34        10.5450   -3.6210   -2.0020 hc        1 PA8      0.026700
     62 H35         9.1700   -4.6960   -1.5140 hc        1 PA8      0.026700
     63 H36         9.0530   -3.7110   -3.0270 hc        1 PA8      0.026700
@<TRIPOS>BOND
     1    1    3 1   
     2    2    3 1   
     3    3    4 1   
     4    3    5 1   
     5    5    6 1   
     6    6    7 1   
     7    6   29 1   
     8    6   30 1   
     9    7    8 1   
    10    7   19 1   
    11    7   31 1   
    12    8    9 1   
    13    8   32 1   
    14    8   33 1   
    15    9   10 1   
    16   10   11 2   
    17   10   12 1   
    18   12   13 1   
    19   12   34 1   
    20   12   35 1   
    21   13   14 1   
    22   13   36 1   
    23   13   37 1   
    24   14   15 1   
    25   14   38 1   
    26   14   39 1   
    27   15   16 1   
    28   15   40 1   
    29   15   41 1   
    30   16   17 1   
    31   16   42 1   
    32   16   43 1   
    33   17   18 1   
    34   17   44 1   
    35   17   45 1   
    36   18   46 1   
    37   18   47 1   
    38   18   48 1   
    39   19   20 1   
    40   20   21 2   
    41   20   22 1   
    42   22   23 1   
    43   22   49 1   
    44   22   50 1   
    45   23   24 1   
    46   23   51 1   
    47   23   52 1   
    48   24   25 1   
    49   24   53 1   
    50   24   54 1   
    51   25   26 1   
    52   25   55 1   
    53   25   56 1   
    54   26   27 1   
    55   26   57 1   
    56   26   58 1   
    57   27   28 1   
    58   27   59 1   
    59   27   60 1   
    60   28   61 1   
    61   28   62 1   
    62   28   63 1   
@<TRIPOS>SUBSTRUCTURE
     1 PA8         1 TEMP              0 ****  ****    0 ROOT
