@<TRIPOS>MOLECULE
PA9
   33    31     1     0     0
SMALL
bcc


@<TRIPOS>ATOM
      1 CA         -3.5290    0.3820    0.2570 c3        1 PA9     -0.071000
      2 CB         -2.1700    0.9910   -0.1220 c3        1 PA9     -0.145000
      3 CG         -0.9950    0.0610    0.0910 c3        1 PA9     -0.167000
      4 CD          0.3150    0.7280   -0.3590 c3        1 PA9     -0.033000
      5 C          -4.6160    1.5060    0.1320 c2        1 PA9      0.319000
      6 O          -5.3210    1.5580   -0.9200 o         1 PA9     -0.588500
      7 OXT        -4.7440    2.3030    1.1010 o         1 PA9     -0.588500
      8 C1         -4.4370   -1.9090   -0.0750 c2        1 PA9      0.289000
      9 O1         -4.4290   -2.2430    1.1330 o         1 PA9     -0.422000
     10 P           5.5090   -0.0880    0.3260 p3        1 PA9      2.534000
     11 O1P         6.0760    1.1260   -0.3260 o         1 PA9     -1.212667
     12 O2P         6.2500   -1.3650    0.0950 o         1 PA9     -1.212667
     13 O3P         4.8640    0.0800    1.6590 o         1 PA9     -1.212667
     14 N1         -3.8620   -0.7670   -0.5710 n         1 PA9     -0.298000
     15 C2         -5.0320   -2.8640   -1.0970 c3        1 PA9     -0.247000
     16 N2          1.4600   -0.1330   -0.2680 n         1 PA9     -0.386000
     17 C3          2.5170   -0.0280   -1.2240 c2        1 PA9      0.362000
     18 O2          2.2730    0.6060   -2.2950 o         1 PA9     -0.537000
     19 C4          3.7530   -0.6880   -0.9170 c2        1 PA9     -0.775000
     20 HA         -3.4920    0.0460    1.3330 h1        1 PA9      0.113000
     21 HB         -2.1970    1.3230   -1.1930 hc        1 PA9      0.081500
     22 HBA        -2.0480    1.9100    0.5100 hc        1 PA9      0.081500
     23 HG         -0.9300   -0.2180    1.1750 hc        1 PA9      0.071500
     24 HGA        -1.1450   -0.8870   -0.4860 hc        1 PA9      0.071500
     25 HD          0.2000    1.0540   -1.4330 h1        1 PA9      0.063000
     26 HDA         0.4490    1.6630    0.2620 h1        1 PA9      0.063000
     27 HN1        -4.1380   -0.4990   -1.4930 hn        1 PA9      0.215000
     28 H2         -4.2590   -3.1730   -1.8400 hc        1 PA9      0.082000
     29 H2A        -5.4100   -3.7710   -0.5690 hc        1 PA9      0.082000
     30 H2B        -5.8790   -2.3740   -1.6340 hc        1 PA9      0.082000
     31 HN2         1.7810   -0.2860    0.6630 hn        1 PA9      0.194000
     32 H4          4.4160   -0.8140   -1.7830 ha        1 PA9      0.094000
     33 H4A         3.6970   -1.5570   -0.2460 ha        1 PA9      0.094000
@<TRIPOS>BOND
     1    1    2 1   
     2    1    5 1   
     3    1   14 1   
     4    1   20 1   
     5    2    3 1   
     6    2   21 1   
     7    2   22 1   
     8    3    4 1   
     9    3   23 1   
    10    3   24 1   
    11    4   16 1   
    12    4   25 1   
    13    4   26 1   
    14    5    6 1   
    15    5    7 1   
    16    8    9 1   
    17    8   14 1   
    18    8   15 1   
    19   10   11 1   
    20   10   12 1   
    21   10   13 1   
    22   14   27 1   
    23   15   28 1   
    24   15   29 1   
    25   15   30 1   
    26   16   17 1   
    27   16   31 1   
    28   17   18 1   
    29   17   19 1   
    30   19   32 1   
    31   19   33 1   
@<TRIPOS>SUBSTRUCTURE
     1 PA9         1 TEMP              0 ****  ****    0 ROOT
