@<TRIPOS>MOLECULE
PA9
   33    30     1     0     0
SMALL
bcc


@<TRIPOS>ATOM
      1 CA         -1.1460    0.8720   -2.1170 c3        1 PA9     -0.071000
      2 CB         -1.0300    0.7620   -0.6010 c3        1 PA9     -0.145000
      3 CG         -0.0070   -0.3260   -0.2450 c3        1 PA9     -0.166000
      4 CD         -0.0340   -0.5810    1.2780 c3        1 PA9     -0.035000
      5 C          -2.4370    0.2520   -2.5670 c2        1 PA9      0.319000
      6 O          -3.5320    0.8120   -2.2960 o         1 PA9     -0.588500
      7 OXT        -2.4210   -0.7760   -3.2850 o         1 PA9     -0.588500
      8 C1         -0.9680    2.6020   -3.8770 c1        1 PA9      0.288000
      9 O1         -0.9520    1.7360   -4.7290 o         1 PA9     -0.422000
     10 P           2.2740   -3.2650    5.1430 p3        1 PA9      2.533000
     11 O1P         1.5470   -2.2570    5.9930 o         1 PA9     -1.209667
     12 O2P         1.4640   -4.5390    5.0710 o         1 PA9     -1.209667
     13 O3P         3.6280   -3.5600    5.7550 o         1 PA9     -1.209667
     14 N1         -1.1190    2.2470   -2.5000 n3        1 PA9     -0.298000
     15 C2         -0.8860    4.0650   -4.2790 c2        1 PA9     -0.247000
     16 N2          1.0950   -1.4090    1.6500 n         1 PA9     -0.385000
     17 C3          1.2020   -1.9220    2.9960 c2        1 PA9      0.364000
     18 O2          0.2410   -1.8790    3.7400 o         1 PA9     -0.538000
     19 C4          2.5010   -2.5900    3.4590 c2        1 PA9     -0.793000
     20 HA         -0.3990    0.4030   -2.5340 h1        1 PA9      0.113000
     21 HB         -1.9030    0.5280   -0.2240 hc        1 PA9      0.082500
     22 HBA        -0.7350    1.6210   -0.2330 hc        1 PA9      0.082500
     23 HG          0.8870   -0.0330   -0.5110 hc        1 PA9      0.070500
     24 HGA        -0.2320   -1.1500   -0.7160 hc        1 PA9      0.070500
     25 HD          0.0180    0.2730    1.7520 h1        1 PA9      0.064500
     26 HDA        -0.8660   -1.0370    1.5170 h1        1 PA9      0.064500
     27 HN1        -1.2550    2.8900   -1.8810 hn        1 PA9      0.216000
     28 H2         -1.6340    4.5600   -3.8700 ha        1 PA9      0.082000
     29 H2A        -0.0350    4.4420   -3.9700 ha        1 PA9      0.082000
     30 H2B        -0.9410    4.1390   -5.2570 ha        1 PA9      0.082000
     31 HN2         1.7230   -1.6320    1.0260 hn        1 PA9      0.182000
     32 H4          2.7320   -3.3170    2.8440 ha        1 PA9      0.105000
     33 H4A         3.2220   -1.9300    3.4680 ha        1 PA9      0.105000
@<TRIPOS>BOND
     1    1    2 1   
     2    1    5 1   
     3    1   14 1   
     4    1   20 1   
     5    2    3 1   
     6    2   21 1   
     7    2   22 1   
     8    3    4 1   
     9    3   23 1   
    10    3   24 1   
    11    4   16 1   
    12    4   25 1   
    13    4   26 1   
    14    5    6 1   
    15    5    7 1   
    16    8    9 1   
    17    8   14 1   
    18   10   11 1   
    19   10   12 1   
    20   10   13 1   
    21   14   27 1   
    22   15   28 1   
    23   15   29 1   
    24   15   30 1   
    25   16   17 1   
    26   16   31 1   
    27   17   18 1   
    28   17   19 1   
    29   19   32 1   
    30   19   33 1   
@<TRIPOS>SUBSTRUCTURE
     1 PA9         1 TEMP              0 ****  ****    0 ROOT
