@<TRIPOS>MOLECULE
PA9
   33    31     1     0     0
SMALL
bcc


@<TRIPOS>ATOM
      1 CA          1.4030    0.1200   -0.0690 c3        1 PA9     -0.071000
      2 CB          2.0410   -0.0680    1.3160 c3        1 PA9     -0.145000
      3 CG          3.5330   -0.3200    1.2800 c3        1 PA9     -0.167000
      4 CD          4.0980   -0.4450    2.7040 c3        1 PA9     -0.033000
      5 C          -0.1510    0.2130    0.1210 c2        1 PA9      0.319000
      6 O          -0.6960    1.3580    0.1460 o         1 PA9     -0.588500
      7 OXT        -0.7900   -0.8690    0.2280 o         1 PA9     -0.588500
      8 C1          2.2220    1.3170   -2.0900 c2        1 PA9      0.289000
      9 O1          2.4200    0.2960   -2.7900 o         1 PA9     -0.422000
     10 P           8.5440   -2.2490    4.9610 p3        1 PA9      2.534000
     11 O1P         8.1940   -2.1430    6.4050 o         1 PA9     -1.212667
     12 O2P         9.9450   -1.8760    4.5960 o         1 PA9     -1.212667
     13 O3P         7.9180   -3.3490    4.1750 o         1 PA9     -1.212667
     14 N1          1.9200    1.2960   -0.7520 n         1 PA9     -0.298000
     15 C2          2.4180    2.6870   -2.7180 c3        1 PA9     -0.247000
     16 N2          5.5250   -0.5960    2.7470 n         1 PA9     -0.386000
     17 C3          6.2760   -0.0300    3.8230 c2        1 PA9      0.362000
     18 O2          5.7010    0.8430    4.5390 o         1 PA9     -0.537000
     19 C4          7.6360   -0.4610    3.9760 c2        1 PA9     -0.775000
     20 HA          1.6270   -0.7850   -0.7020 h1        1 PA9      0.113000
     21 HB          1.8270    0.8320    1.9510 hc        1 PA9      0.081500
     22 HBA         1.5190   -0.9420    1.7880 hc        1 PA9      0.081500
     23 HG          4.0520    0.5200    0.7490 hc        1 PA9      0.071500
     24 HGA         3.7410   -1.2560    0.7010 hc        1 PA9      0.071500
     25 HD          3.5740   -1.3170    3.2000 h1        1 PA9      0.063000
     26 HDA         3.8200    0.4820    3.2830 h1        1 PA9      0.063000
     27 HN1         1.5560    2.1450   -0.3690 hn        1 PA9      0.215000
     28 H2          3.2200    3.2490   -2.1840 hc        1 PA9      0.082000
     29 H2A         2.7130    2.5570   -3.7850 hc        1 PA9      0.082000
     30 H2B         1.4690    3.2720   -2.6700 hc        1 PA9      0.082000
     31 HN2         5.8470   -1.4970    2.4680 hn        1 PA9      0.194000
     32 H4          8.2390    0.1930    4.6200 ha        1 PA9      0.094000
     33 H4A         8.1470   -0.8200    3.0710 ha        1 PA9      0.094000
@<TRIPOS>BOND
     1    1    2 1   
     2    1    5 1   
     3    1   14 1   
     4    1   20 1   
     5    2    3 1   
     6    2   21 1   
     7    2   22 1   
     8    3    4 1   
     9    3   23 1   
    10    3   24 1   
    11    4   16 1   
    12    4   25 1   
    13    4   26 1   
    14    5    6 1   
    15    5    7 1   
    16    8    9 1   
    17    8   14 1   
    18    8   15 1   
    19   10   11 1   
    20   10   12 1   
    21   10   13 1   
    22   14   27 1   
    23   15   28 1   
    24   15   29 1   
    25   15   30 1   
    26   16   17 1   
    27   16   31 1   
    28   17   18 1   
    29   17   19 1   
    30   19   32 1   
    31   19   33 1   
@<TRIPOS>SUBSTRUCTURE
     1 PA9         1 TEMP              0 ****  ****    0 ROOT
