@<TRIPOS>MOLECULE
PAA
   20    19     1     0     0
SMALL
bcc


@<TRIPOS>ATOM
      1 CM          0.9300   -1.1260   -0.0040 c3        1 PAA      0.199100
      2 N1          1.9470   -0.1130    0.0130 na        1 PAA     -0.537200
      3 C2          2.5780    0.2230    1.2100 cc        1 PAA      0.053000
      4 C3          3.7050    0.9810    1.2520 cd        1 PAA     -0.206000
      5 C4          4.3470    1.4500    0.0330 cd        1 PAA     -0.007000
      6 C5          3.6870    1.0410   -1.1970 cd        1 PAA     -0.206000
      7 C6          2.5600    0.2810   -1.1760 cc        1 PAA      0.053000
      8 C2'         5.4620    2.2020    0.0430 c2        1 PAA     -0.276000
      9 C1'         4.1380   -4.2270   -0.1030 c1        1 PAA      0.884000
     10 O1'         2.9940   -3.8970   -0.0870 o         1 PAA     -0.442000
     11 O2'         5.2770   -4.5630   -0.1200 o         1 PAA     -0.442000
     12 HM1         0.2940   -1.0350    0.9160 h1        1 PAA      0.047367
     13 HM2         1.3820   -2.1570   -0.0330 h1        1 PAA      0.047367
     14 HM3         0.2810   -0.9910   -0.9090 h1        1 PAA      0.047367
     15 H2          2.0810   -0.1460    2.1250 h4        1 PAA      0.143000
     16 H3          4.1520    1.2600    2.2150 ha        1 PAA      0.140000
     17 H5          4.1200    1.3670   -2.1520 ha        1 PAA      0.140000
     18 H6          2.0490   -0.0430   -2.0990 h4        1 PAA      0.143000
     19 H2'1        5.9370    2.5500   -0.8800 ha        1 PAA      0.109000
     20 H2'2        5.9510    2.5050    0.9750 ha        1 PAA      0.109000
@<TRIPOS>BOND
     1    1    2 1   
     2    1   12 1   
     3    1   13 1   
     4    1   14 1   
     5    2    3 1   
     6    2    7 1   
     7    3    4 2   
     8    3   15 1   
     9    4    5 1   
    10    4   16 1   
    11    5    6 1   
    12    5    8 2   
    13    6    7 2   
    14    6   17 1   
    15    7   18 1   
    16    8   19 1   
    17    8   20 1   
    18    9   10 2   
    19    9   11 2   
@<TRIPOS>SUBSTRUCTURE
     1 PAA         1 TEMP              0 ****  ****    0 ROOT
