@<TRIPOS>MOLECULE
PAA
   20    19     1     0     0
SMALL
bcc


@<TRIPOS>ATOM
      1 CM          0.9620   -1.1910    0.0120 c3        1 PAA      0.199100
      2 N1          1.9470   -0.1470    0.0040 na        1 PAA     -0.537200
      3 C2          2.5610    0.2430    1.1940 cc        1 PAA      0.053000
      4 C3          3.6640    1.0360    1.2180 cd        1 PAA     -0.206000
      5 C4          4.2980    1.4890   -0.0110 cd        1 PAA     -0.007000
      6 C5          3.6580    1.0230   -1.2320 cd        1 PAA     -0.206000
      7 C6          2.5550    0.2300   -1.1930 cc        1 PAA      0.053000
      8 C2'         5.3890    2.2750   -0.0180 c2        1 PAA     -0.276000
      9 C1'         4.2430   -4.2200    0.0190 c1        1 PAA      0.884000
     10 O1'         3.0930   -3.9120    0.0200 o         1 PAA     -0.441500
     11 O2'         5.3900   -4.5330    0.0170 o         1 PAA     -0.441500
     12 HM1         0.3180   -1.0920    0.9260 h1        1 PAA      0.047367
     13 HM2         1.4450   -2.2080    0.0160 h1        1 PAA      0.047367
     14 HM3         0.3140   -1.1020   -0.9000 h1        1 PAA      0.047367
     15 H2          2.0700   -0.1140    2.1160 h4        1 PAA      0.143000
     16 H3          4.0970    1.3570    2.1750 ha        1 PAA      0.140000
     17 H5          4.0860    1.3340   -2.1930 ha        1 PAA      0.140000
     18 H6          2.0600   -0.1370   -2.1090 h4        1 PAA      0.143000
     19 H2'1        5.8590    2.6110   -0.9480 ha        1 PAA      0.109000
     20 H2'2        5.8640    2.6200    0.9070 ha        1 PAA      0.109000
@<TRIPOS>BOND
     1    1    2 1   
     2    1   12 1   
     3    1   13 1   
     4    1   14 1   
     5    2    3 1   
     6    2    7 1   
     7    3    4 2   
     8    3   15 1   
     9    4    5 1   
    10    4   16 1   
    11    5    6 1   
    12    5    8 2   
    13    6    7 2   
    14    6   17 1   
    15    7   18 1   
    16    8   19 1   
    17    8   20 1   
    18    9   10 2   
    19    9   11 2   
@<TRIPOS>SUBSTRUCTURE
     1 PAA         1 TEMP              0 ****  ****    0 ROOT
