@<TRIPOS>MOLECULE
PAA
   20    18     1     0     0
SMALL
bcc


@<TRIPOS>ATOM
      1 CM         -3.1930    0.1600   -0.0490 c3        1 PAA     -0.070000
      2 N1         -1.7700    0.1930   -0.0290 n3        1 PAA     -0.219000
      3 C2         -1.1070    0.2280    1.1600 c2        1 PAA     -0.027000
      4 C3          0.2790    0.2440    1.1820 c1        1 PAA     -0.205000
      5 C4          0.9790    0.2240    0.0100 c1        1 PAA     -0.007000
      6 C5          0.3140    0.1890   -1.1810 c1        1 PAA     -0.205000
      7 C6         -1.0720    0.1730   -1.1990 c1        1 PAA     -0.027000
      8 C2'         2.4900    0.2870    0.0310 c3        1 PAA     -0.282000
      9 C1'         3.0530   -1.1170    0.0640 c2        1 PAA      0.415000
     10 O1'         3.4080   -1.6780   -1.0060 o         1 PAA     -0.208000
     11 O2'         3.1740   -1.7210    1.1620 o         1 PAA     -0.208000
     12 HM1        -3.5130    0.3720   -0.9530 h1        1 PAA      0.082667
     13 HM2        -3.5040   -0.7350    0.2060 h1        1 PAA      0.082667
     14 HM3        -3.5450    0.8220    0.5860 h1        1 PAA      0.082667
     15 H2         -1.6080    0.2420    1.9980 h4        1 PAA      0.144000
     16 H3          0.7540    0.2690    2.0340 ha        1 PAA      0.142000
     17 H5          0.8130    0.1750   -2.0190 ha        1 PAA      0.142000
     18 H6         -1.5480    0.1480   -2.0510 ha        1 PAA      0.144000
     19 H2'1        2.8090    0.7470   -0.7720 hc        1 PAA      0.110000
     20 H2'2        2.7860    0.7750    0.8250 hc        1 PAA      0.110000
@<TRIPOS>BOND
     1    1    2 1   
     2    1   12 1   
     3    1   13 1   
     4    1   14 1   
     5    2    3 1   
     6    2    7 1   
     7    3    4 1   
     8    3   15 1   
     9    4   16 1   
    10    5    6 1   
    11    5    8 1   
    12    6   17 1   
    13    7   18 1   
    14    8    9 1   
    15    8   19 1   
    16    8   20 1   
    17    9   10 1   
    18    9   11 1   
@<TRIPOS>SUBSTRUCTURE
     1 PAA         1 TEMP              0 ****  ****    0 ROOT
