@<TRIPOS>MOLECULE
PAA
   20    19     1     0     0
SMALL
bcc


@<TRIPOS>ATOM
      1 CM          2.1680    0.6030   -1.4550 c3        1 PAA      0.204100
      2 N1          1.4370    0.5330   -0.2230 na        1 PAA     -0.539200
      3 C2          1.8970    1.2160    0.9010 cc        1 PAA      0.056000
      4 C3          1.3560    1.0340    2.1340 cd        1 PAA     -0.207500
      5 C4          0.2800    0.0790    2.3550 cd        1 PAA     -0.003000
      6 C5         -0.1430   -0.6440    1.1650 cd        1 PAA     -0.207500
      7 C6          0.4360   -0.4200   -0.0430 cc        1 PAA      0.056000
      8 C2'        -0.2780   -0.1180    3.5620 c2        1 PAA     -0.281000
      9 C1'        -0.8120   -1.6490   -4.1830 c1        1 PAA      0.886000
     10 O1'        -0.0820   -1.2500   -3.3300 o         1 PAA     -0.443000
     11 O2'        -1.5380   -2.0460   -5.0350 o         1 PAA     -0.443000
     12 HM1         3.1230    0.0130   -1.3920 h1        1 PAA      0.045367
     13 HM2         1.5430    0.1900   -2.2920 h1        1 PAA      0.045367
     14 HM3         2.4220    1.6730   -1.6810 h1        1 PAA      0.045367
     15 H2          2.7180    1.9310    0.7150 h4        1 PAA      0.146500
     16 H3          1.7220    1.6110    2.9930 ha        1 PAA      0.138500
     17 H5         -0.9510   -1.3810    1.2660 ha        1 PAA      0.138500
     18 H6          0.1310   -0.9610   -0.9580 h4        1 PAA      0.146500
     19 H2'1       -1.0870   -0.8400    3.7180 ha        1 PAA      0.108000
     20 H2'2        0.0480    0.4310    4.4510 ha        1 PAA      0.108000
@<TRIPOS>BOND
     1    1    2 1   
     2    1   12 1   
     3    1   13 1   
     4    1   14 1   
     5    2    3 1   
     6    2    7 1   
     7    3    4 2   
     8    3   15 1   
     9    4    5 1   
    10    4   16 1   
    11    5    6 1   
    12    5    8 2   
    13    6    7 2   
    14    6   17 1   
    15    7   18 1   
    16    8   19 1   
    17    8   20 1   
    18    9   10 2   
    19    9   11 2   
@<TRIPOS>SUBSTRUCTURE
     1 PAA         1 TEMP              0 ****  ****    0 ROOT
