@<TRIPOS>MOLECULE
PAB
   16    16     1     0     0
SMALL
bcc


@<TRIPOS>ATOM
      1 C1'        -0.0020    0.0420    0.0620 c         1 PAB      0.909200
      2 O1'         1.2550    0.1770    0.0320 o         1 PAB     -0.835300
      3 O2'        -0.6780   -0.0500    1.1270 o         1 PAB     -0.835300
      4 C1         -0.7460   -0.0070   -1.2620 ca        1 PAB     -0.146600
      5 C2         -0.0540    0.0980   -2.4710 ca        1 PAB     -0.084000
      6 C3         -0.7280    0.0710   -3.6880 ca        1 PAB     -0.202000
      7 C4         -2.1320   -0.0710   -3.7210 ca        1 PAB      0.067600
      8 C5         -2.8280   -0.1790   -2.4980 ca        1 PAB     -0.202000
      9 C6         -2.1360   -0.1500   -1.2920 ca        1 PAB     -0.084000
     10 N4         -2.8200   -0.1690   -4.9550 nh        1 PAB     -0.796200
     11 H2          1.0420    0.2060   -2.4350 ha        1 PAB      0.150000
     12 H3         -0.1610    0.1550   -4.6250 ha        1 PAB      0.105000
     13 H5         -3.9220   -0.2920   -2.4940 ha        1 PAB      0.105000
     14 H6         -2.6710   -0.2350   -0.3310 ha        1 PAB      0.150000
     15 HN41       -2.3420    0.3260   -5.6810 hn        1 PAB      0.350800
     16 HN42       -3.7620    0.1570   -4.8770 hn        1 PAB      0.350800
@<TRIPOS>BOND
     1    1    2 1   
     2    1    3 1   
     3    1    4 1   
     4    4    5 ar  
     5    4    9 ar  
     6    5    6 ar  
     7    5   11 1   
     8    6    7 ar  
     9    6   12 1   
    10    7    8 ar  
    11    7   10 1   
    12    8    9 ar  
    13    8   13 1   
    14    9   14 1   
    15   10   15 1   
    16   10   16 1   
@<TRIPOS>SUBSTRUCTURE
     1 PAB         1 TEMP              0 ****  ****    0 ROOT
