@<TRIPOS>MOLECULE
PAB
   16    16     1     0     0
SMALL
bcc


@<TRIPOS>ATOM
      1 C1'        -0.0510    0.0490   -2.1440 c         1 PAB      0.909200
      2 O1'        -1.1770    0.0730   -2.7170 o         1 PAB     -0.835300
      3 O2'         1.0550    0.0730   -2.7570 o         1 PAB     -0.835300
      4 C1         -0.0240   -0.0060   -0.6260 ca        1 PAB     -0.146600
      5 C2         -1.2130   -0.0280    0.1060 ca        1 PAB     -0.084000
      6 C3         -1.1990   -0.0620    1.4970 ca        1 PAB     -0.202000
      7 C4          0.0270   -0.0820    2.1960 ca        1 PAB      0.067600
      8 C5          1.2270   -0.0620    1.4540 ca        1 PAB     -0.202000
      9 C6          1.1910   -0.0290    0.0630 ca        1 PAB     -0.084000
     10 N4          0.0520   -0.1860    3.6080 nh        1 PAB     -0.796200
     11 H2         -2.1660   -0.0140   -0.4480 ha        1 PAB      0.150000
     12 H3         -2.1490   -0.0790    2.0500 ha        1 PAB      0.105000
     13 H5          2.1960   -0.0800    1.9720 ha        1 PAB      0.105000
     14 H6          2.1240   -0.0150   -0.5250 ha        1 PAB      0.150000
     15 HN41        0.8790    0.2250    3.9910 hn        1 PAB      0.350800
     16 HN42       -0.7610    0.2250    4.0210 hn        1 PAB      0.350800
@<TRIPOS>BOND
     1    1    2 1   
     2    1    3 1   
     3    1    4 1   
     4    4    5 ar  
     5    4    9 ar  
     6    5    6 ar  
     7    5   11 1   
     8    6    7 ar  
     9    6   12 1   
    10    7    8 ar  
    11    7   10 1   
    12    8    9 ar  
    13    8   13 1   
    14    9   14 1   
    15   10   15 1   
    16   10   16 1   
@<TRIPOS>SUBSTRUCTURE
     1 PAB         1 TEMP              0 ****  ****    0 ROOT
