@<TRIPOS>MOLECULE
PAB
   16    16     1     0     0
SMALL
bcc


@<TRIPOS>ATOM
      1 C1'         0.0120   -0.0490    0.0540 c         1 PAB      0.909200
      2 O1'         1.2680   -0.1850    0.0170 o         1 PAB     -0.835300
      3 O2'        -0.6580    0.0420    1.1230 o         1 PAB     -0.835300
      4 C1         -0.7400    0.0040   -1.2650 ca        1 PAB     -0.146600
      5 C2         -0.0550   -0.0970   -2.4780 ca        1 PAB     -0.084000
      6 C3         -0.7350   -0.0670   -3.6920 ca        1 PAB     -0.202000
      7 C4         -2.1390    0.0760   -3.7160 ca        1 PAB      0.067600
      8 C5         -2.8290    0.1800   -2.4900 ca        1 PAB     -0.202000
      9 C6         -2.1290    0.1470   -1.2870 ca        1 PAB     -0.084000
     10 N4         -2.8330    0.1770   -4.9470 nh        1 PAB     -0.796200
     11 H2          1.0420   -0.2060   -2.4490 ha        1 PAB      0.150000
     12 H3         -0.1730   -0.1480   -4.6330 ha        1 PAB      0.105000
     13 H5         -3.9220    0.2940   -2.4800 ha        1 PAB      0.105000
     14 H6         -2.6590    0.2310   -0.3240 ha        1 PAB      0.150000
     15 HN41       -2.3600   -0.3160   -5.6760 hn        1 PAB      0.350800
     16 HN42       -3.7750   -0.1480   -4.8640 hn        1 PAB      0.350800
@<TRIPOS>BOND
     1    1    2 1   
     2    1    3 1   
     3    1    4 1   
     4    4    5 ar  
     5    4    9 ar  
     6    5    6 ar  
     7    5   11 1   
     8    6    7 ar  
     9    6   12 1   
    10    7    8 ar  
    11    7   10 1   
    12    8    9 ar  
    13    8   13 1   
    14    9   14 1   
    15   10   15 1   
    16   10   16 1   
@<TRIPOS>SUBSTRUCTURE
     1 PAB         1 TEMP              0 ****  ****    0 ROOT
