@<TRIPOS>MOLECULE
PAB
   16    16     1     0     0
SMALL
bcc


@<TRIPOS>ATOM
      1 C1'         0.0030   -0.0180    0.0590 c         1 PAB      0.909200
      2 O1'         1.2650   -0.0990    0.0250 o         1 PAB     -0.835300
      3 O2'        -0.6730    0.0300    1.1260 o         1 PAB     -0.835300
      4 C1         -0.7450    0.0190   -1.2620 ca        1 PAB     -0.146600
      5 C2         -0.0520   -0.0380   -2.4740 ca        1 PAB     -0.084000
      6 C3         -0.7290   -0.0220   -3.6900 ca        1 PAB     -0.202000
      7 C4         -2.1370    0.0600   -3.7180 ca        1 PAB      0.067600
      8 C5         -2.8350    0.1190   -2.4930 ca        1 PAB     -0.202000
      9 C6         -2.1390    0.1020   -1.2880 ca        1 PAB     -0.084000
     10 N4         -2.8310    0.1470   -4.9500 nv        1 PAB     -0.796200
     11 H2          1.0480   -0.0990   -2.4420 ha        1 PAB      0.150000
     12 H3         -0.1600   -0.0670   -4.6290 ha        1 PAB      0.105000
     13 H5         -3.9320    0.1860   -2.4860 ha        1 PAB      0.105000
     14 H6         -2.6750    0.1500   -0.3260 ha        1 PAB      0.150000
     15 HN41       -2.3340   -0.3160   -5.6840 hn        1 PAB      0.350800
     16 HN42       -3.7580   -0.2210   -4.8750 hn        1 PAB      0.350800
@<TRIPOS>BOND
     1    1    2 1   
     2    1    3 1   
     3    1    4 1   
     4    4    5 ar  
     5    4    9 ar  
     6    5    6 ar  
     7    5   11 1   
     8    6    7 ar  
     9    6   12 1   
    10    7    8 ar  
    11    7   10 1   
    12    8    9 ar  
    13    8   13 1   
    14    9   14 1   
    15   10   15 1   
    16   10   16 1   
@<TRIPOS>SUBSTRUCTURE
     1 PAB         1 TEMP              0 ****  ****    0 ROOT
