@<TRIPOS>MOLECULE
PAC
   17    17     1     0     0
SMALL
bcc


@<TRIPOS>ATOM
      1 C1          0.0660   -0.3520   -0.1490 c         1 PAC      0.918600
      2 C2          1.4010    0.3880    0.1030 c3        1 PAC     -0.176100
      3 C1'         1.9390    0.2020    1.4710 ca        1 PAC     -0.014300
      4 C2'         1.9840   -1.0770    2.0490 ca        1 PAC     -0.138500
      5 C3'         2.5240   -1.2570    3.3190 ca        1 PAC     -0.145500
      6 C4'         3.0250   -0.1680    4.0340 ca        1 PAC     -0.169000
      7 C5'         2.9730    1.1070    3.4740 ca        1 PAC     -0.145500
      8 C6'         2.4330    1.2910    2.2010 ca        1 PAC     -0.138500
      9 O1         -0.9550    0.3530   -0.3780 o         1 PAC     -0.841800
     10 O2          0.0740   -1.6170   -0.1550 o         1 PAC     -0.841800
     11 H21         1.2510    1.4760   -0.1130 hc        1 PAC      0.037200
     12 H22         2.1460   -0.0160   -0.6330 hc        1 PAC      0.037200
     13 H2'         1.5510   -1.9200    1.4780 ha        1 PAC      0.152000
     14 H3'         2.5500   -2.2620    3.7640 ha        1 PAC      0.106500
     15 H4'         3.4510   -0.3130    5.0360 ha        1 PAC      0.103000
     16 H5'         3.3560    1.9700    4.0360 ha        1 PAC      0.106500
     17 H6'         2.3870    2.3010    1.7680 ha        1 PAC      0.152000
@<TRIPOS>BOND
     1    1    2 1   
     2    1    9 1   
     3    1   10 1   
     4    2    3 1   
     5    2   11 1   
     6    2   12 1   
     7    3    4 ar  
     8    3    8 ar  
     9    4    5 ar  
    10    4   13 1   
    11    5    6 ar  
    12    5   14 1   
    13    6    7 ar  
    14    6   15 1   
    15    7    8 ar  
    16    7   16 1   
    17    8   17 1   
@<TRIPOS>SUBSTRUCTURE
     1 PAC         1 TEMP              0 ****  ****    0 ROOT
