@<TRIPOS>MOLECULE
PAC
   17    17     1     0     0
SMALL
bcc


@<TRIPOS>ATOM
      1 C1          0.0960   -0.7220   -0.0730 c         1 PAC      0.918600
      2 C2          1.5380   -0.1730    0.0380 c3        1 PAC     -0.176100
      3 C1'         1.9870    0.0480    1.4330 ca        1 PAC     -0.014300
      4 C2'         1.7720   -0.9340    2.4130 ca        1 PAC     -0.138500
      5 C3'         2.2270   -0.7420    3.7140 ca        1 PAC     -0.145500
      6 C4'         2.9010    0.4310    4.0600 ca        1 PAC     -0.169000
      7 C5'         3.1080    1.4160    3.0970 ca        1 PAC     -0.145500
      8 C6'         2.6540    1.2270    1.7920 ca        1 PAC     -0.138500
      9 O1         -0.1350   -1.8910    0.3530 o         1 PAC     -0.841800
     10 O2         -0.7660    0.0150   -0.6260 o         1 PAC     -0.841800
     11 H21         1.6020    0.7780   -0.5490 hc        1 PAC      0.037200
     12 H22         2.2160   -0.9280   -0.4410 hc        1 PAC      0.037200
     13 H2'         1.2060   -1.8400    2.1240 ha        1 PAC      0.152000
     14 H3'         2.0500   -1.5150    4.4750 ha        1 PAC      0.106500
     15 H4'         3.2600    0.5790    5.0870 ha        1 PAC      0.103000
     16 H5'         3.6280    2.3460    3.3660 ha        1 PAC      0.106500
     17 H6'         2.8120    2.0120    1.0390 ha        1 PAC      0.152000
@<TRIPOS>BOND
     1    1    2 1   
     2    1    9 1   
     3    1   10 1   
     4    2    3 1   
     5    2   11 1   
     6    2   12 1   
     7    3    4 ar  
     8    3    8 ar  
     9    4    5 ar  
    10    4   13 1   
    11    5    6 ar  
    12    5   14 1   
    13    6    7 ar  
    14    6   15 1   
    15    7    8 ar  
    16    7   16 1   
    17    8   17 1   
@<TRIPOS>SUBSTRUCTURE
     1 PAC         1 TEMP              0 ****  ****    0 ROOT
