@<TRIPOS>MOLECULE
PAC
   17    14     1     0     0
SMALL
bcc


@<TRIPOS>ATOM
      1 C1         -1.8570    0.4600   -1.8160 c1        1 PAC      0.338000
      2 C2         -0.4500   -0.0980   -1.8280 c2        1 PAC     -0.212000
      3 C1'         0.1030   -0.1030   -0.4200 c2        1 PAC     -0.007000
      4 C2'         0.9330    0.9240    0.0020 c2        1 PAC     -0.155000
      5 C3'         1.4340    0.9240    1.2950 c1        1 PAC     -0.147000
      6 C4'         1.1040   -0.1030    2.1660 c1        1 PAC     -0.156500
      7 C5'         0.2730   -1.1300    1.7450 c1        1 PAC     -0.156500
      8 C6'        -0.2270   -1.1290    0.4510 c1        1 PAC     -0.122000
      9 O1         -2.0420    1.6930   -1.6510 o         1 PAC     -0.576500
     10 O2         -2.8380   -0.3050   -2.0070 o         1 PAC     -0.576500
     11 H21        -0.4650   -1.0140   -2.1760 ha        1 PAC      0.076500
     12 H22         0.1170    0.4580   -2.3990 ha        1 PAC      0.076500
     13 H2'         1.1780    1.6400   -0.6170 ha        1 PAC      0.118000
     14 H3'         2.0430    1.6310    1.5820 ha        1 PAC      0.103000
     15 H4'         1.4280   -0.0850    3.0850 ha        1 PAC      0.106500
     16 H5'         0.0660   -1.8690    2.3480 ha        1 PAC      0.106500
     17 H6'        -0.7990   -1.8930    0.2390 ha        1 PAC      0.186000
@<TRIPOS>BOND
     1    1    9 1   
     2    1   10 1   
     3    2    3 1   
     4    2   11 1   
     5    2   12 1   
     6    3    4 1   
     7    3    8 1   
     8    4    5 1   
     9    4   13 1   
    10    5   14 1   
    11    6    7 1   
    12    6   15 1   
    13    7   16 1   
    14    8   17 1   
@<TRIPOS>SUBSTRUCTURE
     1 PAC         1 TEMP              0 ****  ****    0 ROOT
