@<TRIPOS>MOLECULE
PAC
   17    17     1     0     0
SMALL
bcc


@<TRIPOS>ATOM
      1 C1          0.4840    0.0860    2.1340 c         1 PAC      0.918600
      2 C2         -0.1020   -0.9480    1.1420 c3        1 PAC     -0.176100
      3 C1'        -0.1130   -0.4870   -0.2660 ca        1 PAC     -0.014300
      4 C2'         1.0240    0.1200   -0.8240 ca        1 PAC     -0.138500
      5 C3'         1.0270    0.5190   -2.1560 ca        1 PAC     -0.145500
      6 C4'        -0.1020    0.3230   -2.9550 ca        1 PAC     -0.169000
      7 C5'        -1.2380   -0.2680   -2.4060 ca        1 PAC     -0.145500
      8 C6'        -1.2450   -0.6690   -1.0710 ca        1 PAC     -0.138500
      9 O1          1.7150    0.3640    2.0500 o         1 PAC     -0.841800
     10 O2         -0.2950    0.5650    3.0020 o         1 PAC     -0.841800
     11 H21         0.5350   -1.8690    1.2130 hc        1 PAC      0.037200
     12 H22        -1.1380   -1.2120    1.4750 hc        1 PAC      0.037200
     13 H2'         1.8950    0.2960   -0.1630 ha        1 PAC      0.152000
     14 H3'         1.9200    0.9970   -2.5820 ha        1 PAC      0.106500
     15 H4'        -0.0960    0.6380   -4.0060 ha        1 PAC      0.103000
     16 H5'        -2.1340   -0.4150   -3.0260 ha        1 PAC      0.106500
     17 H6'        -2.1480   -1.1250   -0.6410 ha        1 PAC      0.152000
@<TRIPOS>BOND
     1    1    2 1   
     2    1    9 1   
     3    1   10 1   
     4    2    3 1   
     5    2   11 1   
     6    2   12 1   
     7    3    4 ar  
     8    3    8 ar  
     9    4    5 ar  
    10    4   13 1   
    11    5    6 ar  
    12    5   14 1   
    13    6    7 ar  
    14    6   15 1   
    15    7    8 ar  
    16    7   16 1   
    17    8   17 1   
@<TRIPOS>SUBSTRUCTURE
     1 PAC         1 TEMP              0 ****  ****    0 ROOT
