@<TRIPOS>MOLECULE
PAE
   10     9     1     0     0
SMALL
bcc


@<TRIPOS>ATOM
      1 P           0.1010    0.0690   -1.1850 p5        1 PAE      1.224700
      2 O1P         0.9910   -0.9220   -1.9200 o         1 PAE     -0.973500
      3 O2P        -1.3090    0.0750   -1.7540 o         1 PAE     -0.973500
      4 O3P         0.7070    1.4510   -1.0870 o         1 PAE     -0.973500
      5 C1P        -0.1380   -0.7630    0.4910 c3        1 PAE     -0.345600
      6 C1          0.1420   -0.3540    1.9200 c         1 PAE      0.949600
      7 O1          1.2450   -0.6670    2.4960 o         1 PAE     -0.960300
      8 O2         -0.7620    0.2030    2.6410 o         1 PAE     -0.960300
      9 H11         0.4290   -1.7090    0.3190 hc        1 PAE      0.005700
     10 H12        -1.2300   -0.9900    0.4390 hc        1 PAE      0.005700
@<TRIPOS>BOND
     1    1    2 1   
     2    1    3 1   
     3    1    4 1   
     4    1    5 1   
     5    5    6 1   
     6    5    9 1   
     7    5   10 1   
     8    6    7 1   
     9    6    8 1   
@<TRIPOS>SUBSTRUCTURE
     1 PAE         1 TEMP              0 ****  ****    0 ROOT
