@<TRIPOS>MOLECULE
PAE
   10     9     1     0     0
SMALL
bcc


@<TRIPOS>ATOM
      1 P           0.1250   -0.1490    0.0740 p5        1 PAE      1.224700
      2 O1P         1.3290   -0.2360   -0.8510 o         1 PAE     -0.973500
      3 O2P         0.5260    0.3230    1.4630 o         1 PAE     -0.973500
      4 O3P        -0.7010   -1.4150    0.0930 o         1 PAE     -0.973500
      5 C1P        -0.8070    1.3410   -0.6100 c3        1 PAE     -0.345600
      6 C1         -2.2060    1.5540   -1.1460 c         1 PAE      0.949600
      7 O1         -2.4570    1.4660   -2.4020 o         1 PAE     -0.960300
      8 O2         -3.1560    1.9560   -0.3820 o         1 PAE     -0.960300
      9 H11        -0.6880    2.0510    0.2430 hc        1 PAE      0.005700
     10 H12        -0.1100    1.6470   -1.4260 hc        1 PAE      0.005700
@<TRIPOS>BOND
     1    1    2 1   
     2    1    3 1   
     3    1    4 1   
     4    1    5 1   
     5    5    6 1   
     6    5    9 1   
     7    5   10 1   
     8    6    7 1   
     9    6    8 1   
@<TRIPOS>SUBSTRUCTURE
     1 PAE         1 TEMP              0 ****  ****    0 ROOT
