@<TRIPOS>MOLECULE
PAE
   10     9     1     0     0
SMALL
bcc


@<TRIPOS>ATOM
      1 P           0.1420   -0.1530    0.0370 p5        1 PAE      1.224700
      2 O1P         1.3590   -0.1670   -0.8740 o         1 PAE     -0.973500
      3 O2P         0.5140    0.2590    1.4530 o         1 PAE     -0.973500
      4 O3P        -0.6530   -1.4380   -0.0160 o         1 PAE     -0.973500
      5 C1P        -0.8180    1.3460   -0.5860 c3        1 PAE     -0.345600
      6 C1         -2.2140    1.5520   -1.1310 c         1 PAE      0.949600
      7 O1         -2.4460    1.5210   -2.3930 o         1 PAE     -0.960300
      8 O2         -3.1840    1.8920   -0.3620 o         1 PAE     -0.960300
      9 H11        -0.7270    2.0160    0.3030 hc        1 PAE      0.005700
     10 H12        -0.1170    1.7090   -1.3760 hc        1 PAE      0.005700
@<TRIPOS>BOND
     1    1    2 1   
     2    1    3 1   
     3    1    4 1   
     4    1    5 1   
     5    5    6 1   
     6    5    9 1   
     7    5   10 1   
     8    6    7 1   
     9    6    8 1   
@<TRIPOS>SUBSTRUCTURE
     1 PAE         1 TEMP              0 ****  ****    0 ROOT
