@<TRIPOS>MOLECULE
PAE
   10     8     1     0     0
SMALL
bcc


@<TRIPOS>ATOM
      1 P           0.2110    1.2390    0.2440 p4        1 PAE      1.593000
      2 O1P         1.7210    1.2390    0.2440 os        1 PAE     -1.300000
      3 O2P        -0.2930    1.2390    1.6670 o         1 PAE     -0.970000
      4 O3P        -0.2930    2.4720   -0.4680 o         1 PAE     -1.018800
      5 C1P        -0.3940   -0.2440   -0.6120 c3        1 PAE     -0.345600
      6 C1          0.0280   -1.4770    0.1560 c         1 PAE      0.949600
      7 O1          1.1310   -2.0290   -0.0970 o         1 PAE     -0.960300
      8 O2         -0.7240   -1.9510    1.0470 o         1 PAE     -0.960300
      9 H11        -1.3690   -0.2120   -0.6680 hc        1 PAE      0.005700
     10 H12        -0.0180   -0.2760   -1.5120 hc        1 PAE      0.005700
@<TRIPOS>BOND
     1    1    3 1   
     2    1    4 2   
     3    1    5 1   
     4    5    6 1   
     5    5    9 1   
     6    5   10 1   
     7    6    7 1   
     8    6    8 1   
@<TRIPOS>SUBSTRUCTURE
     1 PAE         1 TEMP              0 ****  ****    0 ROOT
