@<TRIPOS>MOLECULE
PAF
   21    20     1     0     0
SMALL
bcc


@<TRIPOS>ATOM
      1 O1         -0.1000   -0.0020    0.2860 o         1 PAF     -0.835300
      2 C1          1.1390   -0.0800    0.0360 c         1 PAF      0.897600
      3 O2          1.6330   -0.1920   -1.1170 o         1 PAF     -0.835300
      4 C2          2.0890   -0.0610    1.2650 c3        1 PAF      0.020100
      5 O3          1.3780   -0.3740    2.4530 oh        1 PAF     -0.649800
      6 C3          2.8030    1.3000    1.4250 c3        1 PAF     -0.052000
      7 C4          1.7830    2.4240    1.4300 c3        1 PAF     -0.081600
      8 C5          3.7870    1.4890    0.2850 c3        1 PAF     -0.081600
      9 C6          3.5550    1.2780    2.7620 c3        1 PAF      0.132400
     10 O4          4.2570    2.5060    2.9290 oh        1 PAF     -0.610800
     11 H21         2.8640   -0.8670    1.1530 h1        1 PAF      0.041700
     12 HO31        0.4410   -0.1900    2.2750 ho        1 PAF      0.425000
     13 H41         1.0400    2.2570    2.2470 hc        1 PAF      0.035533
     14 H42         2.2890    3.4050    1.5910 hc        1 PAF      0.035533
     15 H43         1.2360    2.4390    0.4550 hc        1 PAF      0.035533
     16 H51         4.6020    0.7290    0.3480 hc        1 PAF      0.035533
     17 H52         4.2450    2.5060    0.3400 hc        1 PAF      0.035533
     18 H53         3.2570    1.3610   -0.6930 hc        1 PAF      0.035533
     19 H61         4.2920    0.4300    2.7710 h1        1 PAF      0.021200
     20 H62         2.8230    1.1380    3.6020 h1        1 PAF      0.021200
     21 HO41        4.6000    2.4920    3.8290 ho        1 PAF      0.374000
@<TRIPOS>BOND
     1    1    2 1   
     2    2    3 1   
     3    2    4 1   
     4    4    5 1   
     5    4    6 1   
     6    4   11 1   
     7    5   12 1   
     8    6    7 1   
     9    6    8 1   
    10    6    9 1   
    11    7   13 1   
    12    7   14 1   
    13    7   15 1   
    14    8   16 1   
    15    8   17 1   
    16    8   18 1   
    17    9   10 1   
    18    9   19 1   
    19    9   20 1   
    20   10   21 1   
@<TRIPOS>SUBSTRUCTURE
     1 PAF         1 TEMP              0 ****  ****    0 ROOT
