@<TRIPOS>MOLECULE
PAF
   21    20     1     0     0
SMALL
bcc


@<TRIPOS>ATOM
      1 O1          2.4320   -0.7110   -0.7580 o         1 PAF     -0.835300
      2 C1          1.8270    0.1050   -0.0020 c         1 PAF      0.897600
      3 O2          2.2370    1.2610    0.2830 o         1 PAF     -0.835300
      4 C2          0.5000   -0.4000    0.6280 c3        1 PAF      0.020100
      5 O3          0.4230   -1.8160    0.5680 oh        1 PAF     -0.649800
      6 C3         -0.7400    0.2200   -0.0550 c3        1 PAF     -0.052000
      7 C4         -0.6630    0.0130   -1.5570 c3        1 PAF     -0.081600
      8 C5         -0.8020    1.7030    0.2670 c3        1 PAF     -0.081600
      9 C6         -1.9820   -0.4840    0.5010 c3        1 PAF      0.132400
     10 O4         -3.1500    0.0870   -0.0800 oh        1 PAF     -0.610800
     11 H21         0.4800   -0.1410    1.7220 h1        1 PAF      0.041700
     12 HO31        1.0300   -2.0990   -0.1360 ho        1 PAF      0.425000
     13 H41         0.2430    0.5280   -1.9610 hc        1 PAF      0.035533
     14 H42        -0.5780   -1.0770   -1.7840 hc        1 PAF      0.035533
     15 H43        -1.5770    0.4190   -2.0510 hc        1 PAF      0.035533
     16 H51        -1.6410    2.1800   -0.2920 hc        1 PAF      0.035533
     17 H52        -0.9720    1.8540    1.3600 hc        1 PAF      0.035533
     18 H53         0.1680    2.1880   -0.0110 hc        1 PAF      0.035533
     19 H61        -1.9310   -1.5800    0.2600 h1        1 PAF      0.021200
     20 H62        -2.0270   -0.3550    1.6160 h1        1 PAF      0.021200
     21 HO41       -3.8830   -0.4710    0.2000 ho        1 PAF      0.374000
@<TRIPOS>BOND
     1    1    2 1   
     2    2    3 1   
     3    2    4 1   
     4    4    5 1   
     5    4    6 1   
     6    4   11 1   
     7    5   12 1   
     8    6    7 1   
     9    6    8 1   
    10    6    9 1   
    11    7   13 1   
    12    7   14 1   
    13    7   15 1   
    14    8   16 1   
    15    8   17 1   
    16    8   18 1   
    17    9   10 1   
    18    9   19 1   
    19    9   20 1   
    20   10   21 1   
@<TRIPOS>SUBSTRUCTURE
     1 PAF         1 TEMP              0 ****  ****    0 ROOT
