@<TRIPOS>MOLECULE
PAF
   21    20     1     0     0
SMALL
bcc


@<TRIPOS>ATOM
      1 O1         -0.0780   -0.0310    0.2640 o         1 PAF     -0.835300
      2 C1          1.1630   -0.0910    0.0210 c         1 PAF      0.897600
      3 O2          1.6660   -0.1900   -1.1300 o         1 PAF     -0.835300
      4 C2          2.1060   -0.0670    1.2560 c3        1 PAF      0.020100
      5 O3          1.3910   -0.3950    2.4370 oh        1 PAF     -0.649800
      6 C3          2.8010    1.3030    1.4280 c3        1 PAF     -0.052000
      7 C4          1.7670    2.4140    1.4300 c3        1 PAF     -0.081600
      8 C5          3.7910    1.5100    0.2950 c3        1 PAF     -0.081600
      9 C6          3.5440    1.2840    2.7690 c3        1 PAF      0.132400
     10 O4          4.2300    2.5190    2.9460 oh        1 PAF     -0.610800
     11 H21         2.8920   -0.8620    1.1440 h1        1 PAF      0.041700
     12 HO31        0.4530   -0.2220    2.2550 ho        1 PAF      0.425000
     13 H41         1.0200    2.2330    2.2410 hc        1 PAF      0.035533
     14 H42         2.2590    3.4010    1.6010 hc        1 PAF      0.035533
     15 H43         1.2270    2.4270    0.4520 hc        1 PAF      0.035533
     16 H51         4.6150    0.7600    0.3600 hc        1 PAF      0.035533
     17 H52         4.2340    2.5320    0.3580 hc        1 PAF      0.035533
     18 H53         3.2690    1.3790   -0.6870 hc        1 PAF      0.035533
     19 H61         4.2910    0.4460    2.7800 h1        1 PAF      0.021200
     20 H62         2.8080    1.1310    3.6030 h1        1 PAF      0.021200
     21 HO41        4.5660    2.5060    3.8490 ho        1 PAF      0.374000
@<TRIPOS>BOND
     1    1    2 1   
     2    2    3 1   
     3    2    4 1   
     4    4    5 1   
     5    4    6 1   
     6    4   11 1   
     7    5   12 1   
     8    6    7 1   
     9    6    8 1   
    10    6    9 1   
    11    7   13 1   
    12    7   14 1   
    13    7   15 1   
    14    8   16 1   
    15    8   17 1   
    16    8   18 1   
    17    9   10 1   
    18    9   19 1   
    19    9   20 1   
    20   10   21 1   
@<TRIPOS>SUBSTRUCTURE
     1 PAF         1 TEMP              0 ****  ****    0 ROOT
