@<TRIPOS>MOLECULE
PAF
   21    20     1     0     0
SMALL
bcc


@<TRIPOS>ATOM
      1 O1         -2.2280   -1.1430   -1.5860 o         1 PAF     -0.834300
      2 C1         -0.9720   -1.0700   -1.6370 c         1 PAF      0.898600
      3 O2         -0.3910   -0.9830   -2.7510 o         1 PAF     -0.834300
      4 C2         -0.1610   -1.0890   -0.3610 c3        1 PAF      0.015100
      5 O3         -0.8480   -1.8270    0.6210 oh        1 PAF     -0.656800
      6 C3          0.0450    0.3280    0.1250 c3        1 PAF     -0.090000
      7 C4         -1.2970    0.9620    0.4150 c3        1 PAF     -0.086100
      8 C5          0.7610    1.1280   -0.9410 c3        1 PAF     -0.086100
      9 C6          0.8790    0.3110    1.3880 c3        1 PAF      0.149400
     10 O4          2.1090   -0.3280    1.1300 oh        1 PAF     -0.629800
     11 H21         0.7070   -1.5040   -0.5330 h1        1 PAF      0.042700
     12 HO31       -0.6200   -2.6840    0.5620 ho        1 PAF      0.430000
     13 H41        -1.8210    0.3680    0.9930 hc        1 PAF      0.035200
     14 H42        -1.1620    1.8210    0.8670 hc        1 PAF      0.035200
     15 H43        -1.7790    1.1080   -0.4260 hc        1 PAF      0.035200
     16 H51         1.1300    1.9450   -0.5440 hc        1 PAF      0.035200
     17 H52         0.1280    1.3660   -1.6510 hc        1 PAF      0.035200
     18 H53         1.4890    0.5910   -1.3190 hc        1 PAF      0.035200
     19 H61         1.0440    1.2310    1.6820 h1        1 PAF      0.025700
     20 H62         0.3980   -0.1750    2.0890 h1        1 PAF      0.025700
     21 HO41        2.5910   -0.3560    1.8770 ho        1 PAF      0.417000
@<TRIPOS>BOND
     1    1    2 1   
     2    2    3 1   
     3    2    4 1   
     4    4    5 1   
     5    4    6 1   
     6    4   11 1   
     7    5   12 1   
     8    6    7 1   
     9    6    8 1   
    10    6    9 1   
    11    7   13 1   
    12    7   14 1   
    13    7   15 1   
    14    8   16 1   
    15    8   17 1   
    16    8   18 1   
    17    9   10 1   
    18    9   19 1   
    19    9   20 1   
    20   10   21 1   
@<TRIPOS>SUBSTRUCTURE
     1 PAF         1 TEMP              0 ****  ****    0 ROOT
