@<TRIPOS>MOLECULE
PAG
   15    14     1     0     0
SMALL
bcc


@<TRIPOS>ATOM
      1 C1         -0.1320    0.2250    0.1770 c         1 PAG      0.900600
      2 O1         -0.8700   -0.7400    0.5550 o         1 PAG     -0.913800
      3 O2'        -0.6440    1.3860    0.0330 o         1 PAG     -0.913800
      4 C2          1.4060    0.0710    0.0180 c3        1 PAG      0.124100
      5 C3          1.9150   -0.3150    1.4320 c3        1 PAG      0.128400
      6 O2          1.7810   -0.8700   -0.9190 os        1 PAG     -0.572200
      7 O3          3.2680    0.0110    1.6770 oh        1 PAG     -0.736800
      8 P           3.1350   -0.5530   -1.9180 p5        1 PAG      1.336900
      9 O1P         4.0980    0.1570   -0.9800 o         1 PAG     -0.945833
     10 O2P         3.5820   -1.9420   -2.3080 o         1 PAG     -0.945833
     11 O3P         2.6590    0.2980   -3.0660 o         1 PAG     -0.945833
     12 H2          1.8450    1.0750   -0.2560 h1        1 PAG      0.019700
     13 H31         1.3220    0.2340    2.2140 h1        1 PAG     -0.011800
     14 H32         1.7780   -1.4190    1.5830 h1        1 PAG     -0.011800
     15 HO3         3.7130    0.0420    0.7930 ho        1 PAG      0.487000
@<TRIPOS>BOND
     1    1    2 1   
     2    1    3 1   
     3    1    4 1   
     4    4    5 1   
     5    4    6 1   
     6    4   12 1   
     7    5    7 1   
     8    5   13 1   
     9    5   14 1   
    10    6    8 1   
    11    7   15 1   
    12    8    9 1   
    13    8   10 1   
    14    8   11 1   
@<TRIPOS>SUBSTRUCTURE
     1 PAG         1 TEMP              0 ****  ****    0 ROOT
