@<TRIPOS>MOLECULE
PAG
   15    14     1     0     0
SMALL
bcc


@<TRIPOS>ATOM
      1 C1         -0.7040   -0.1980   -2.2070 c         1 PAG      0.900600
      2 O1         -1.0370    0.8640   -2.8250 o         1 PAG     -0.913800
      3 O2'        -1.0550   -1.3310   -2.6790 o         1 PAG     -0.913800
      4 C2          0.2370   -0.1690   -0.9710 c3        1 PAG      0.124100
      5 C3          1.5620    0.4440   -1.4940 c3        1 PAG      0.128400
      6 O2         -0.2590    0.5550    0.0940 os        1 PAG     -0.572200
      7 O3          2.7080    0.0880   -0.7480 oh        1 PAG     -0.736800
      8 P           0.0000   -0.0250    1.6840 p5        1 PAG      1.336900
      9 O1P         1.4030   -0.6040    1.6170 o         1 PAG     -0.945833
     10 O2P        -0.0970    1.2370    2.5080 o         1 PAG     -0.945833
     11 O3P        -1.0710   -1.0440    1.9720 o         1 PAG     -0.945833
     12 H2          0.4400   -1.2310   -0.6460 h1        1 PAG      0.019700
     13 H31         1.4720    1.5630   -1.5030 h1        1 PAG     -0.011800
     14 H32         1.7600    0.0890   -2.5430 h1        1 PAG     -0.011800
     15 HO3         2.3900   -0.1360    0.1630 ho        1 PAG      0.487000
@<TRIPOS>BOND
     1    1    2 1   
     2    1    3 1   
     3    1    4 1   
     4    4    5 1   
     5    4    6 1   
     6    4   12 1   
     7    5    7 1   
     8    5   13 1   
     9    5   14 1   
    10    6    8 1   
    11    7   15 1   
    12    8    9 1   
    13    8   10 1   
    14    8   11 1   
@<TRIPOS>SUBSTRUCTURE
     1 PAG         1 TEMP              0 ****  ****    0 ROOT
