@<TRIPOS>MOLECULE
PAG
   15    13     1     0     0
SMALL
bcc


@<TRIPOS>ATOM
      1 C1         -1.6250    0.4500    0.1220 c1        1 PAG      0.314000
      2 O1         -2.2180    1.5600    0.1220 o         1 PAG     -0.653000
      3 O2'        -2.2890   -0.6190    0.1400 os        1 PAG     -0.645000
      4 C2         -0.1130    0.4010    0.1000 c3        1 PAG      0.066000
      5 C3          0.4130    0.4140    1.5180 c3        1 PAG     -0.034000
      6 O2          0.3080   -0.7750   -0.5460 os        1 PAG     -0.725000
      7 O3          0.0490   -0.7860    2.1650 oh        1 PAG     -0.419000
      8 P           0.7410   -0.6870   -2.0630 p5        1 PAG      1.560500
      9 O1P         1.0190   -2.0760   -2.5880 o         1 PAG     -0.951167
     10 O2P         1.9880    0.1550   -2.1830 o         1 PAG     -0.951167
     11 O3P        -0.3710   -0.0580   -2.8680 o         1 PAG     -0.951167
     12 H2          0.2310    1.1790   -0.3820 h1        1 PAG      0.065000
     13 H31         1.3890    0.4940    1.5040 h1        1 PAG      0.038500
     14 H32         0.0290    1.1740    2.0020 h1        1 PAG      0.038500
     15 HO3         0.4480   -0.8270    2.9590 ho        1 PAG      0.245000
@<TRIPOS>BOND
     1    1    2 1   
     2    1    4 1   
     3    4    5 1   
     4    4    6 1   
     5    4   12 1   
     6    5    7 1   
     7    5   13 1   
     8    5   14 1   
     9    6    8 1   
    10    7   15 1   
    11    8    9 1   
    12    8   10 1   
    13    8   11 1   
@<TRIPOS>SUBSTRUCTURE
     1 PAG         1 TEMP              0 ****  ****    0 ROOT
