@<TRIPOS>MOLECULE
PAG
   15    14     1     0     0
SMALL
bcc


@<TRIPOS>ATOM
      1 C1         -0.1340    0.2270    0.1540 c         1 PAG      0.900600
      2 O1         -0.8650   -0.7160    0.5970 o         1 PAG     -0.913800
      3 O2'        -0.6540    1.3720   -0.0650 o         1 PAG     -0.913800
      4 C2          1.4040    0.0730    0.0040 c3        1 PAG      0.124100
      5 C3          1.9180   -0.2170    1.4390 c3        1 PAG      0.128400
      6 O2          1.7840   -0.9250   -0.8710 os        1 PAG     -0.572200
      7 O3          3.2680    0.1340    1.6600 oh        1 PAG     -0.736800
      8 P           3.1360   -0.6660   -1.8890 p5        1 PAG      1.336900
      9 O1P         4.0940    0.1110   -1.0020 o         1 PAG     -0.945833
     10 O2P         3.5920   -2.0740   -2.1880 o         1 PAG     -0.945833
     11 O3P         2.6530    0.1040   -3.0910 o         1 PAG     -0.945833
     12 H2          1.8370    1.0590   -0.3360 h1        1 PAG      0.019700
     13 H31         1.3220    0.3780    2.1840 h1        1 PAG     -0.011800
     14 H32         1.7890   -1.3090    1.6630 h1        1 PAG     -0.011800
     15 HO3         3.7130    0.1100    0.7760 ho        1 PAG      0.487000
@<TRIPOS>BOND
     1    1    2 1   
     2    1    3 1   
     3    1    4 1   
     4    4    5 1   
     5    4    6 1   
     6    4   12 1   
     7    5    7 1   
     8    5   13 1   
     9    5   14 1   
    10    6    8 1   
    11    7   15 1   
    12    8    9 1   
    13    8   10 1   
    14    8   11 1   
@<TRIPOS>SUBSTRUCTURE
     1 PAG         1 TEMP              0 ****  ****    0 ROOT
