@<TRIPOS>MOLECULE
PAH
   13    12     1     0     0
SMALL
bcc


@<TRIPOS>ATOM
      1 C1         -0.8550   -0.2630    0.2200 c3        1 PAH     -0.288600
      2 C2          0.6440   -0.0580    0.1890 c         1 PAH      0.632100
      3 N3          1.2820    0.6750    1.2220 n         1 PAH     -0.356400
      4 O3          2.6380    0.8600    1.1950 oh        1 PAH     -0.517100
      5 O2          1.3020   -0.5220   -0.7210 o         1 PAH     -0.801100
      6 O1P        -2.9580   -0.7440   -1.4380 o         1 PAH     -0.863500
      7 O2P        -0.8260   -1.8560   -1.9860 o         1 PAH     -0.863500
      8 O3P        -1.0840    0.5670   -2.3610 o         1 PAH     -0.863500
      9 P          -1.4560   -0.5870   -1.4620 p5        1 PAH      1.129700
     10 H11        -1.0680   -1.0240    0.7950 hc        1 PAH      0.074700
     11 H12        -1.2860    0.5420    0.5710 hc        1 PAH      0.074700
     12 HN3         0.7870    1.0250    1.9060 hn        1 PAH      0.245500
     13 HO3         2.8800    1.3850    1.8700 ho        1 PAH      0.399000
@<TRIPOS>BOND
     1    1    2 1   
     2    1    9 1   
     3    1   10 1   
     4    1   11 1   
     5    2    3 1   
     6    2    5 2   
     7    3    4 1   
     8    3   12 1   
     9    4   13 1   
    10    6    9 1   
    11    7    9 1   
    12    8    9 1   
@<TRIPOS>SUBSTRUCTURE
     1 PAH         1 TEMP              0 ****  ****    0 ROOT
