@<TRIPOS>MOLECULE
PAH
   13    11     1     0     0
SMALL
bcc


@<TRIPOS>ATOM
      1 C1         -0.3700   -1.0570    0.2470 c2        1 PAH     -0.725000
      2 C2         -0.2950   -0.6320    1.5760 c2        1 PAH      0.276000
      3 N3          1.0400   -0.6290    2.2090 n         1 PAH     -0.197000
      4 O3          1.0840   -0.0110    3.3960 oh        1 PAH     -0.322000
      5 O2         -1.2410   -0.2240    2.3250 o         1 PAH     -0.562000
      6 O1P         1.2520    1.0280   -1.1520 o         1 PAH     -1.183000
      7 O2P         0.5340   -1.0070   -2.5010 o         1 PAH     -1.183000
      8 O3P        -1.1480    0.8270   -2.0180 o         1 PAH     -1.183000
      9 P           0.1580    0.1950   -1.7110 p3        1 PAH      2.496000
     10 H11         0.4400   -1.6550   -0.1840 ha        1 PAH      0.114000
     11 H12        -1.3650   -1.1760   -0.1910 ha        1 PAH      0.114000
     12 HN3         1.6630   -0.1270    1.5720 hn        1 PAH      0.159000
     13 HO3         0.2230    0.4320    3.5630 ho        1 PAH      0.198000
@<TRIPOS>BOND
     1    1    2 1   
     2    1   10 1   
     3    1   11 1   
     4    2    3 1   
     5    2    5 1   
     6    3    4 1   
     7    3   12 1   
     8    4   13 1   
     9    6    9 1   
    10    7    9 1   
    11    8    9 1   
@<TRIPOS>SUBSTRUCTURE
     1 PAH         1 TEMP              0 ****  ****    0 ROOT
