@<TRIPOS>MOLECULE
PAH
   13    11     1     0     0
SMALL
bcc


@<TRIPOS>ATOM
      1 C1          0.2710    0.0740   -0.0430 c2        1 PAH     -0.725000
      2 C2          1.6250    0.3250    0.1980 c2        1 PAH      0.276000
      3 N3          2.0720    0.3220    1.6060 n         1 PAH     -0.197000
      4 O3          3.4020    0.3500    1.7600 oh        1 PAH     -0.322000
      5 O2          2.5470    0.5450   -0.6540 o         1 PAH     -0.562000
      6 O1P        -0.0150   -2.7280    0.9570 o         1 PAH     -1.183000
      7 O2P        -2.1420   -1.4730    0.3430 o         1 PAH     -1.183000
      8 O3P        -0.6810   -2.4280   -1.4960 o         1 PAH     -1.183000
      9 P          -0.8320   -2.0380   -0.0730 p3        1 PAH      2.496000
     10 H11        -0.0910    0.1910   -1.0670 ha        1 PAH      0.114000
     11 H12        -0.4600    0.1980    0.7620 ha        1 PAH      0.114000
     12 HN3         1.7270   -0.5460    2.0190 hn        1 PAH      0.159000
     13 HO3         3.8320    0.2440    0.8830 ho        1 PAH      0.198000
@<TRIPOS>BOND
     1    1    2 1   
     2    1   10 1   
     3    1   11 1   
     4    2    3 1   
     5    2    5 1   
     6    3    4 1   
     7    3   12 1   
     8    4   13 1   
     9    6    9 1   
    10    7    9 1   
    11    8    9 1   
@<TRIPOS>SUBSTRUCTURE
     1 PAH         1 TEMP              0 ****  ****    0 ROOT
