@<TRIPOS>MOLECULE
PAI
   44    43     1     0     0
SMALL
bcc


@<TRIPOS>ATOM
      1 P1         -4.8710    3.1880    0.4740 p5        1 PAI      1.318900
      2 O1P        -5.7710    2.1100    1.0200 o         1 PAI     -0.935833
      3 O2P        -5.5490    4.2830   -0.3030 o         1 PAI     -0.935833
      4 O3P        -4.0020    2.3320   -0.7810 os        1 PAI     -0.579200
      5 O4P        -3.7630    3.6150    1.3990 o         1 PAI     -0.935833
      6 C6         -3.4330    1.1570   -0.3600 c3        1 PAI      0.235400
      7 C5         -1.9600    1.0780   -0.8410 c3        1 PAI      0.071100
      8 O1         -1.3340    0.0180   -0.1290 oh        1 PAI     -0.618800
      9 C4         -1.8650    0.8310   -2.3620 c3        1 PAI      0.093100
     10 O4         -2.1860    2.0190   -3.0690 oh        1 PAI     -0.659800
     11 C3         -0.4510    0.3920   -2.7970 c3        1 PAI      0.097100
     12 O3          0.5330    1.2140   -2.1830 oh        1 PAI     -0.624800
     13 C2         -0.2340    0.3710   -4.3290 c3        1 PAI      0.096100
     14 O2         -1.3890   -0.1160   -4.9890 oh        1 PAI     -0.601800
     15 C1          0.9460   -0.5720   -4.6730 c3        1 PAI      0.176800
     16 N1          1.5950   -0.4950   -5.9740 n3        1 PAI     -0.694600
     17 C7          2.0060    0.8740   -6.2840 c3        1 PAI      0.087800
     18 C8          3.0460    1.0700   -7.4520 c3        1 PAI      0.542600
     19 O5          3.8800    2.0660   -7.2380 o         1 PAI     -0.943500
     20 O6          2.2840    1.4170   -8.6430 oh        1 PAI     -0.741800
     21 C9          0.8760   -1.1560   -7.0480 c3        1 PAI     -0.104400
     22 P2          1.4320   -2.7490   -7.3460 p5        1 PAI      1.357600
     23 O5P         1.4260   -3.6090   -6.1330 o         1 PAI     -0.893000
     24 O6P         3.0230   -2.5670   -7.7320 oh        1 PAI     -0.796400
     25 O7P         0.7790   -3.2530   -8.5880 o         1 PAI     -0.893000
     26 HC61       -3.4480    1.0750    0.7620 h1        1 PAI      0.003700
     27 HC62       -3.9720    0.2660   -0.7990 h1        1 PAI      0.003700
     28 HC5        -1.4490    2.0530   -0.6070 h1        1 PAI      0.052700
     29 HO1        -0.3870    0.1230   -0.2820 ho        1 PAI      0.385000
     30 HC4        -2.5910    0.0240   -2.6600 h1        1 PAI      0.041700
     31 HO4        -2.9130    2.4490   -2.5790 ho        1 PAI      0.468000
     32 HC3        -0.2600   -0.6360   -2.3770 h1        1 PAI      0.069700
     33 HO3         0.3140    2.1230   -2.4240 ho        1 PAI      0.409000
     34 HC2        -0.0170    1.4220   -4.6680 h1        1 PAI      0.041700
     35 HO2        -2.0780    0.5470   -4.8500 ho        1 PAI      0.401000
     36 HC11        0.5900   -1.6280   -4.5110 h1        1 PAI      0.054700
     37 HC12        1.7440   -0.3420   -3.9080 h1        1 PAI      0.054700
     38 HC71        1.1170    1.5230   -6.5250 h1        1 PAI      0.006200
     39 HC72        2.4960    1.2930   -5.3610 h1        1 PAI      0.006200
     40 HC8         3.5180    0.0740   -7.7170 h2        1 PAI     -0.039300
     41 HO5         3.4790   -1.9590   -7.1640 ho        1 PAI      0.425000
     42 HO6         2.3620    2.3690   -8.7430 ho        1 PAI      0.360000
     43 HC91       -0.2310   -1.1730   -6.8510 h1        1 PAI      0.069700
     44 HC92        1.0050   -0.5570   -7.9940 h1        1 PAI      0.069700
@<TRIPOS>BOND
     1    1    2 1   
     2    1    3 1   
     3    1    4 1   
     4    1    5 1   
     5    4    6 1   
     6    6    7 1   
     7    6   26 1   
     8    6   27 1   
     9    7    8 1   
    10    7    9 1   
    11    7   28 1   
    12    8   29 1   
    13    9   10 1   
    14    9   11 1   
    15    9   30 1   
    16   10   31 1   
    17   11   12 1   
    18   11   13 1   
    19   11   32 1   
    20   12   33 1   
    21   13   14 1   
    22   13   15 1   
    23   13   34 1   
    24   14   35 1   
    25   15   16 1   
    26   15   36 1   
    27   15   37 1   
    28   16   17 1   
    29   16   21 1   
    30   17   18 1   
    31   17   38 1   
    32   17   39 1   
    33   18   19 1   
    34   18   20 1   
    35   18   40 1   
    36   20   42 1   
    37   21   22 1   
    38   21   43 1   
    39   21   44 1   
    40   22   23 1   
    41   22   24 1   
    42   22   25 1   
    43   24   41 1   
@<TRIPOS>SUBSTRUCTURE
     1 PAI         1 TEMP              0 ****  ****    0 ROOT
