@<TRIPOS>MOLECULE
PAI
   45    44     1     0     0
SMALL
bcc


@<TRIPOS>ATOM
      1 P1         -3.5280   -0.1600    0.1370 p5        1 PAI      1.330900
      2 O1P        -4.7470    0.3610   -0.5640 o         1 PAI     -0.931500
      3 O2P        -2.6530    0.8470    0.8240 o         1 PAI     -0.931500
      4 O3P        -2.5130   -0.7070   -1.1750 os        1 PAI     -0.569200
      5 O4P        -3.6680   -1.4840    0.8610 o         1 PAI     -0.931500
      6 C6         -1.4970   -1.5270   -0.7630 c3        1 PAI      0.206400
      7 C5         -1.7600   -2.9970   -1.1900 c3        1 PAI      0.065100
      8 O1         -1.0670   -3.3000   -2.4040 oh        1 PAI     -0.649800
      9 C4         -1.2840   -3.9910   -0.1220 c3        1 PAI      0.139100
     10 O4         -2.0030   -3.8530    1.0870 oh        1 PAI     -0.691800
     11 C3         -1.4680   -5.4510   -0.5990 c3        1 PAI      0.098100
     12 O3         -2.8180   -5.8650   -0.4750 oh        1 PAI     -0.623800
     13 C2         -0.5810   -6.4720    0.1420 c3        1 PAI      0.090100
     14 O2         -0.7170   -6.3990    1.5510 oh        1 PAI     -0.623800
     15 C1          0.9120   -6.3590   -0.2410 c3        1 PAI      0.125800
     16 N1          1.4490   -7.3520   -1.1720 n3        1 PAI     -0.682600
     17 C7          0.7550   -7.2670   -2.4540 c3        1 PAI      0.097800
     18 C8          1.4780   -7.9630   -3.6280 c3        1 PAI      0.347900
     19 O5          2.6750   -7.3120   -3.9910 oh        1 PAI     -0.646300
     20 O6          0.7100   -7.8430   -4.8080 oh        1 PAI     -0.646300
     21 C9          1.4940   -8.6960   -0.6260 c3        1 PAI     -0.093400
     22 P2          3.1040   -9.2620   -0.4120 p5        1 PAI      1.344600
     23 O5P         3.9870   -8.6100   -1.6490 oh        1 PAI     -0.795400
     24 O6P         3.0700  -10.7280   -0.6410 o         1 PAI     -0.873500
     25 O7P         3.7700   -8.6570    0.7670 o         1 PAI     -0.873500
     26 HC61       -1.3610   -1.4820    0.3540 h1        1 PAI     -0.001800
     27 HC62       -0.5260   -1.2100   -1.2540 h1        1 PAI     -0.001800
     28 HC5        -2.8620   -3.1550   -1.3600 h1        1 PAI      0.073700
     29 HO1        -1.1990   -2.5260   -2.9650 ho        1 PAI      0.404000
     30 HC4        -0.1960   -3.8150    0.1050 h1        1 PAI      0.029700
     31 HO4        -2.6060   -3.0660    1.0380 ho        1 PAI      0.521000
     32 HC3        -1.2410   -5.5120   -1.7010 h1        1 PAI      0.078700
     33 HO3        -3.1590   -5.4740    0.3440 ho        1 PAI      0.425000
     34 HC2        -0.9690   -7.5040   -0.1060 h1        1 PAI      0.059700
     35 HO2        -0.7830   -5.4660    1.7970 ho        1 PAI      0.426000
     36 HC11        1.5140   -6.4280    0.7100 h1        1 PAI      0.066200
     37 HC12        1.1010   -5.3470   -0.6960 h1        1 PAI      0.066200
     38 HC71        0.6590   -6.1760   -2.7260 h1        1 PAI      0.047200
     39 HC72       -0.2860   -7.7020   -2.4100 h1        1 PAI      0.047200
     40 HC8         1.6250   -9.0660   -3.4720 h2        1 PAI      0.074700
     41 HO5         3.3000   -7.4290   -3.2610 ho        1 PAI      0.432500
     42 HO6         0.6880   -6.9060   -5.0390 ho        1 PAI      0.432500
     43 HC91        0.9400   -9.4250   -1.2790 h1        1 PAI      0.059700
     44 HC92        0.9750   -8.7430    0.3720 h1        1 PAI      0.059700
     45 H11         4.5410   -7.9080   -1.3250 ho        1 PAI      0.420000
@<TRIPOS>BOND
     1    1    2 1   
     2    1    3 1   
     3    1    4 1   
     4    1    5 1   
     5    4    6 1   
     6    6    7 1   
     7    6   26 1   
     8    6   27 1   
     9    7    8 1   
    10    7    9 1   
    11    7   28 1   
    12    8   29 1   
    13    9   10 1   
    14    9   11 1   
    15    9   30 1   
    16   10   31 1   
    17   11   12 1   
    18   11   13 1   
    19   11   32 1   
    20   12   33 1   
    21   13   14 1   
    22   13   15 1   
    23   13   34 1   
    24   14   35 1   
    25   15   16 1   
    26   15   36 1   
    27   15   37 1   
    28   16   17 1   
    29   16   21 1   
    30   17   18 1   
    31   17   38 1   
    32   17   39 1   
    33   18   19 1   
    34   18   20 1   
    35   18   40 1   
    36   19   41 1   
    37   20   42 1   
    38   21   22 1   
    39   21   43 1   
    40   21   44 1   
    41   22   23 1   
    42   22   24 1   
    43   22   25 1   
    44   23   45 1   
@<TRIPOS>SUBSTRUCTURE
     1 PAI         1 TEMP              0 ****  ****    0 ROOT
