@<TRIPOS>MOLECULE
PAI
   45    44     1     0     0
SMALL
bcc


@<TRIPOS>ATOM
      1 P1         -3.5580   -0.1640    0.1270 p5        1 PAI      1.330900
      2 O1P        -4.7800    0.3550   -0.5690 o         1 PAI     -0.931500
      3 O2P        -2.6790    0.8460    0.8080 o         1 PAI     -0.931500
      4 O3P        -2.5480   -0.7140   -1.1870 os        1 PAI     -0.569200
      5 O4P        -3.6940   -1.4860    0.8570 o         1 PAI     -0.931500
      6 C6         -1.5300   -1.5330   -0.7780 c3        1 PAI      0.206400
      7 C5         -1.7950   -3.0040   -1.1990 c3        1 PAI      0.065100
      8 O1         -1.1080   -3.3110   -2.4150 oh        1 PAI     -0.649800
      9 C4         -1.3150   -3.9950   -0.1310 c3        1 PAI      0.139100
     10 O4         -2.0270   -3.8530    1.0820 oh        1 PAI     -0.691800
     11 C3         -1.5000   -5.4560   -0.6020 c3        1 PAI      0.098100
     12 O3         -2.8500   -5.8700   -0.4700 oh        1 PAI     -0.623800
     13 C2         -0.6100   -6.4750    0.1370 c3        1 PAI      0.090100
     14 O2         -0.7390   -6.3980    1.5470 oh        1 PAI     -0.623800
     15 C1          0.8820   -6.3640   -0.2530 c3        1 PAI      0.125800
     16 N1          1.4140   -7.3580   -1.1850 n3        1 PAI     -0.682600
     17 C7          0.7140   -7.2750   -2.4640 c3        1 PAI      0.097800
     18 C8          1.4310   -7.9730   -3.6400 c3        1 PAI      0.347900
     19 O5          2.6260   -7.3230   -4.0100 oh        1 PAI     -0.646300
     20 O6          0.6580   -7.8540   -4.8160 oh        1 PAI     -0.646300
     21 C9          1.4600   -8.7010   -0.6370 c3        1 PAI     -0.093400
     22 P2          3.0720   -9.2670   -0.4300 p5        1 PAI      1.344600
     23 O5P         3.9490   -8.6180   -1.6720 oh        1 PAI     -0.795400
     24 O6P         3.0350  -10.7340   -0.6560 o         1 PAI     -0.873500
     25 O7P         3.7430   -8.6610    0.7450 o         1 PAI     -0.873500
     26 HC61       -1.3890   -1.4850    0.3390 h1        1 PAI     -0.001800
     27 HC62       -0.5620   -1.2170   -1.2740 h1        1 PAI     -0.001800
     28 HC5        -2.8980   -3.1630   -1.3630 h1        1 PAI      0.073700
     29 HO1        -1.2420   -2.5390   -2.9780 ho        1 PAI      0.404000
     30 HC4        -0.2250   -3.8180    0.0920 h1        1 PAI      0.029700
     31 HO4        -2.6310   -3.0670    1.0330 ho        1 PAI      0.521000
     32 HC3        -1.2780   -5.5210   -1.7050 h1        1 PAI      0.078700
     33 HO3        -3.1870   -5.4770    0.3490 ho        1 PAI      0.425000
     34 HC2        -0.9980   -7.5080   -0.1060 h1        1 PAI      0.059700
     35 HO2        -0.8040   -5.4650    1.7900 ho        1 PAI      0.426000
     36 HC11        1.0680   -5.3520   -0.7110 h1        1 PAI      0.066200
     37 HC12        1.4880   -6.4300    0.6950 h1        1 PAI      0.066200
     38 HC71        0.6170   -6.1840   -2.7370 h1        1 PAI      0.047200
     39 HC72       -0.3270   -7.7090   -2.4150 h1        1 PAI      0.047200
     40 HC8         1.5790   -9.0750   -3.4830 h2        1 PAI      0.074700
     41 HO5         3.2550   -7.4390   -3.2820 ho        1 PAI      0.432500
     42 HO6         0.6350   -6.9170   -5.0490 ho        1 PAI      0.432500
     43 HC91        0.9030   -9.4300   -1.2860 h1        1 PAI      0.059700
     44 HC92        0.9470   -8.7460    0.3630 h1        1 PAI      0.059700
     45 H11         4.5050   -7.9160   -1.3530 ho        1 PAI      0.420000
@<TRIPOS>BOND
     1    1    2 1   
     2    1    3 1   
     3    1    4 1   
     4    1    5 1   
     5    4    6 1   
     6    6    7 1   
     7    6   26 1   
     8    6   27 1   
     9    7    8 1   
    10    7    9 1   
    11    7   28 1   
    12    8   29 1   
    13    9   10 1   
    14    9   11 1   
    15    9   30 1   
    16   10   31 1   
    17   11   12 1   
    18   11   13 1   
    19   11   32 1   
    20   12   33 1   
    21   13   14 1   
    22   13   15 1   
    23   13   34 1   
    24   14   35 1   
    25   15   16 1   
    26   15   36 1   
    27   15   37 1   
    28   16   17 1   
    29   16   21 1   
    30   17   18 1   
    31   17   38 1   
    32   17   39 1   
    33   18   19 1   
    34   18   20 1   
    35   18   40 1   
    36   19   41 1   
    37   20   42 1   
    38   21   22 1   
    39   21   43 1   
    40   21   44 1   
    41   22   23 1   
    42   22   24 1   
    43   22   25 1   
    44   23   45 1   
@<TRIPOS>SUBSTRUCTURE
     1 PAI         1 TEMP              0 ****  ****    0 ROOT
