@<TRIPOS>MOLECULE
PAI
   45    44     1     0     0
SMALL
bcc


@<TRIPOS>ATOM
      1 P1         -3.5620   -0.1420    0.0080 p5        1 PAI      1.330900
      2 O1P        -4.7440    0.3940   -0.7430 o         1 PAI     -0.931500
      3 O2P        -2.7090    0.8540    0.7400 o         1 PAI     -0.931500
      4 O3P        -2.4940   -0.6910   -1.2600 os        1 PAI     -0.569200
      5 O4P        -3.7450   -1.4690    0.7180 o         1 PAI     -0.931500
      6 C6         -1.5050   -1.5220   -0.8090 c3        1 PAI      0.206400
      7 C5         -1.7610   -2.9870   -1.2560 c3        1 PAI      0.065100
      8 O1         -1.0180   -3.2890   -2.4400 oh        1 PAI     -0.649800
      9 C4         -1.3430   -3.9910   -0.1740 c3        1 PAI      0.139100
     10 O4         -2.1130   -3.8540    1.0030 oh        1 PAI     -0.691800
     11 C3         -1.5180   -5.4470   -0.6680 c3        1 PAI      0.098100
     12 O3         -2.8760   -5.8490   -0.6060 oh        1 PAI     -0.623800
     13 C2         -0.6740   -6.4800    0.1050 c3        1 PAI      0.090100
     14 O2         -0.8720   -6.4140    1.5070 oh        1 PAI     -0.623800
     15 C1          0.8360   -6.3790   -0.2100 c3        1 PAI      0.125800
     16 N1          1.4040   -7.3710   -1.1240 n3        1 PAI     -0.682600
     17 C7          0.7690   -7.2710   -2.4340 c3        1 PAI      0.097800
     18 C8          1.5360   -7.9670   -3.5800 c3        1 PAI      0.347900
     19 O5          2.7540   -7.3250   -3.8850 oh        1 PAI     -0.646300
     20 O6          0.8230   -7.8320   -4.7920 oh        1 PAI     -0.646300
     21 C9          1.4120   -8.7190   -0.5850 c3        1 PAI     -0.093400
     22 P2          3.0060   -9.3020   -0.3030 p5        1 PAI      1.344600
     23 O5P         3.9490   -8.6520   -1.4960 oh        1 PAI     -0.795400
     24 O6P         2.9680  -10.7660   -0.5430 o         1 PAI     -0.873500
     25 O7P         3.6250   -8.7100    0.9070 o         1 PAI     -0.873500
     26 HC61       -1.4190   -1.4850    0.3140 h1        1 PAI     -0.001800
     27 HC62       -0.5110   -1.2110   -1.2540 h1        1 PAI     -0.001800
     28 HC5        -2.8560   -3.1340   -1.4760 h1        1 PAI      0.073700
     29 HO1        -1.1180   -2.5110   -3.0010 ho        1 PAI      0.404000
     30 HC4        -0.2640   -3.8260    0.1030 h1        1 PAI      0.029700
     31 HO4        -2.7070   -3.0620    0.9320 ho        1 PAI      0.521000
     32 HC3        -1.2430   -5.5040   -1.7590 h1        1 PAI      0.078700
     33 HO3        -3.2490   -5.4600    0.1990 ho        1 PAI      0.425000
     34 HC2        -1.0590   -7.5080   -0.1660 h1        1 PAI      0.059700
     35 HO2        -0.9410   -5.4820    1.7560 ho        1 PAI      0.426000
     36 HC11        1.0530   -5.3660   -0.6500 h1        1 PAI      0.066200
     37 HC12        1.3940   -6.4590    0.7660 h1        1 PAI      0.066200
     38 HC71        0.6960   -6.1780   -2.7030 h1        1 PAI      0.047200
     39 HC72       -0.2770   -7.6960   -2.4400 h1        1 PAI      0.047200
     40 HC8         1.6660   -9.0720   -3.4240 h2        1 PAI      0.074700
     41 HO5         3.3450   -7.4530   -3.1290 ho        1 PAI      0.432500
     42 HO6         0.8200   -6.8930   -5.0180 ho        1 PAI      0.432500
     43 HC91        0.8810   -9.4380   -1.2670 h1        1 PAI      0.059700
     44 HC92        0.8490   -8.7670    0.3880 h1        1 PAI      0.059700
     45 H11         4.4950   -7.9570   -1.1440 ho        1 PAI      0.420000
@<TRIPOS>BOND
     1    1    2 1   
     2    1    3 1   
     3    1    4 1   
     4    1    5 1   
     5    4    6 1   
     6    6    7 1   
     7    6   26 1   
     8    6   27 1   
     9    7    8 1   
    10    7    9 1   
    11    7   28 1   
    12    8   29 1   
    13    9   10 1   
    14    9   11 1   
    15    9   30 1   
    16   10   31 1   
    17   11   12 1   
    18   11   13 1   
    19   11   32 1   
    20   12   33 1   
    21   13   14 1   
    22   13   15 1   
    23   13   34 1   
    24   14   35 1   
    25   15   16 1   
    26   15   36 1   
    27   15   37 1   
    28   16   17 1   
    29   16   21 1   
    30   17   18 1   
    31   17   38 1   
    32   17   39 1   
    33   18   19 1   
    34   18   20 1   
    35   18   40 1   
    36   19   41 1   
    37   20   42 1   
    38   21   22 1   
    39   21   43 1   
    40   21   44 1   
    41   22   23 1   
    42   22   24 1   
    43   22   25 1   
    44   23   45 1   
@<TRIPOS>SUBSTRUCTURE
     1 PAI         1 TEMP              0 ****  ****    0 ROOT
