@<TRIPOS>MOLECULE
PAI
   44    42     1     0     0
SMALL
bcc


@<TRIPOS>ATOM
      1 P1          6.3980    1.0070    3.0860 p4        1 PAI      1.685200
      2 O1P         7.0510    0.5030    4.3470 o         1 PAI     -0.934500
      3 O2P         6.5280    2.5140    3.0180 os        1 PAI     -1.259000
      4 O3P         4.8580    0.6070    3.0880 os        1 PAI     -0.570200
      5 O4P         7.0780    0.3880    1.8850 o         1 PAI     -0.983300
      6 C6          4.1530    0.6430    1.8650 c3        1 PAI      0.158400
      7 C5          2.6930    0.3070    2.1100 c3        1 PAI      0.100100
      8 O1          2.0940    1.3360    2.8640 oh        1 PAI     -0.646800
      9 C4          1.9800    0.1710    0.7850 c3        1 PAI      0.096100
     10 O4          2.5250   -0.9090    0.0670 oh        1 PAI     -0.649800
     11 C3          0.5000   -0.0760    1.0270 c3        1 PAI      0.116100
     12 O3          0.3300   -1.3180    1.6470 oh        1 PAI     -0.596800
     13 C2         -0.2400   -0.0670   -0.3030 c3        1 PAI      0.117100
     14 O2          0.4040    0.7950   -1.1860 oh        1 PAI     -0.614800
     15 C1         -1.6770    0.4050   -0.0850 c3        1 PAI      0.160800
     16 N1         -2.5440   -0.1940   -1.0880 n3        1 PAI     -0.631600
     17 C7         -2.8540    0.7930   -2.1160 c3        1 PAI      0.121800
     18 C8         -3.4220    0.0840   -3.3470 c3        1 PAI      0.363900
     19 O5         -2.3550   -0.3890   -4.1540 oh        1 PAI     -0.702800
     20 O6         -4.2130    0.9960   -4.0960 oh        1 PAI     -0.702800
     21 C9         -3.7720   -0.6380   -0.4590 c3        1 PAI     -0.038400
     22 P2         -3.8890   -2.4600   -0.5660 p5        1 PAI      1.236700
     23 O5P        -3.7040   -3.0590    0.8130 o         1 PAI     -0.949167
     24 O6P        -2.8120   -2.9810   -1.4900 o         1 PAI     -0.949167
     25 O7P        -5.2430   -2.8460   -1.1050 o         1 PAI     -0.949167
     26 HC61        4.2200    1.5360    1.4780 h1        1 PAI      0.014200
     27 HC62        4.5420   -0.0150    1.2430 h1        1 PAI      0.014200
     28 HC5         2.6310   -0.5370    2.6020 h1        1 PAI      0.036700
     29 HO1         2.1800    1.1540    3.7420 ho        1 PAI      0.443000
     30 HC4         2.0920    0.9980    0.2670 h1        1 PAI      0.049700
     31 HO4         3.0380   -0.6020   -0.5850 ho        1 PAI      0.422000
     32 HC3         0.1420    0.6270    1.6030 h1        1 PAI      0.089700
     33 HO3        -0.1270   -1.2130    2.3970 ho        1 PAI      0.397000
     34 HC2        -0.2470   -0.9580   -0.6730 h1        1 PAI      0.043700
     35 HO2         0.4840    0.4030   -1.9790 ho        1 PAI      0.395000
     36 HC11       -1.7150    1.3820   -0.1630 h1        1 PAI      0.033700
     37 HC12       -1.9790    0.1350    0.8130 h1        1 PAI      0.033700
     38 HC71       -2.0420    1.2720   -2.3620 h1        1 PAI      0.009200
     39 HC72       -3.5080    1.4210   -1.7740 h1        1 PAI      0.009200
     40 HC8        -3.9770   -0.6730   -3.0620 h2        1 PAI      0.107700
     41 HO5        -2.6380   -0.4930   -4.9850 ho        1 PAI      0.445000
     42 HO6        -4.6540    0.5510   -4.7390 ho        1 PAI      0.445000
     43 HC91       -3.7740   -0.3630    0.4870 h1        1 PAI      0.016700
     44 HC92       -4.5360   -0.2360   -0.9160 h1        1 PAI      0.016700
@<TRIPOS>BOND
     1    1    2 1   
     2    1    4 1   
     3    1    5 2   
     4    4    6 1   
     5    6    7 1   
     6    6   26 1   
     7    6   27 1   
     8    7    8 1   
     9    7    9 1   
    10    7   28 1   
    11    8   29 1   
    12    9   10 1   
    13    9   11 1   
    14    9   30 1   
    15   10   31 1   
    16   11   12 1   
    17   11   13 1   
    18   11   32 1   
    19   12   33 1   
    20   13   14 1   
    21   13   15 1   
    22   13   34 1   
    23   14   35 1   
    24   15   16 1   
    25   15   36 1   
    26   15   37 1   
    27   16   17 1   
    28   16   21 1   
    29   17   18 1   
    30   17   38 1   
    31   17   39 1   
    32   18   19 1   
    33   18   20 1   
    34   18   40 1   
    35   19   41 1   
    36   20   42 1   
    37   21   22 1   
    38   21   43 1   
    39   21   44 1   
    40   22   23 1   
    41   22   24 1   
    42   22   25 1   
@<TRIPOS>SUBSTRUCTURE
     1 PAI         1 TEMP              0 ****  ****    0 ROOT
