@<TRIPOS>MOLECULE
PAJ
   56    58     1     0     0
SMALL
bcc


@<TRIPOS>ATOM
      1 P           1.3490   -1.7540   -0.6960 p5        1 PAJ      1.481800
      2 O1P         2.3880   -2.0200   -1.7150 o         1 PAJ     -0.806500
      3 O2P         1.4880   -1.3750    0.7070 o         1 PAJ     -0.806500
      4 O5'         0.3720   -3.0620   -0.8510 os        1 PAJ     -0.585200
      5 C5'        -0.7280   -3.0870    0.0130 c3        1 PAJ      0.153400
      6 C4'        -1.5170   -4.3820   -0.1720 c3        1 PAJ      0.099100
      7 O4'        -2.1810   -4.4170   -1.4490 os        1 PAJ     -0.423600
      8 C3'        -0.6420   -5.6450   -0.0880 c3        1 PAJ      0.094100
      9 O3'        -1.1410   -6.5910    0.8310 oh        1 PAJ     -0.588800
     10 C2'        -0.6220   -6.2320   -1.5210 c3        1 PAJ      0.084100
     11 O2'        -1.3050   -7.4740   -1.5680 oh        1 PAJ     -0.600800
     12 C1'        -1.4840   -5.2580   -2.3760 c3        1 PAJ      0.261800
     13 N9         -0.7690   -4.4200   -3.3330 na        1 PAJ     -0.273000
     14 C8         -1.1290   -3.0500   -3.4970 cc        1 PAJ      0.509700
     15 N7         -0.1560   -2.2680   -3.9830 nd        1 PAJ     -0.586100
     16 C5          0.9480   -3.1220   -4.1220 ca        1 PAJ     -0.121200
     17 C6          2.3120   -2.9030   -4.3950 ca        1 PAJ      0.603200
     18 N6          2.8180   -1.5280   -4.3390 n4        1 PAJ     -0.848300
     19 N1          3.1730   -3.9420   -4.5620 nb        1 PAJ     -0.705000
     20 C2          2.6690   -5.1870   -4.3320 ca        1 PAJ      0.666900
     21 N3          1.4330   -5.5450   -3.8970 nb        1 PAJ     -0.668000
     22 C4          0.5750   -4.5040   -3.7530 ca        1 PAJ      0.482800
     23 O11         1.7890    0.2730   -2.3590 o         1 PAJ     -0.660000
     24 C11         0.5700    0.2770   -2.0970 c         1 PAJ      0.681100
     25 O12         0.1640   -0.7020   -1.3070 os        1 PAJ     -0.527500
     26 C12        -0.4390    1.2650   -2.6420 c3        1 PAJ      0.097100
     27 O13         0.1180    1.8990   -3.7790 oh        1 PAJ     -0.596800
     28 C13        -0.8950    2.2780   -1.5700 c3        1 PAJ     -0.068000
     29 C14         0.3000    2.9010   -0.8700 c3        1 PAJ     -0.095100
     30 C15        -1.7840    1.5780   -0.5560 c3        1 PAJ     -0.095100
     31 C16        -1.7030    3.3710   -2.2890 c3        1 PAJ      0.137400
     32 O14        -2.1440    4.3030   -1.3150 oh        1 PAJ     -0.597800
     33 H5'1       -0.3590   -3.0130    1.0740 h1        1 PAJ      0.058700
     34 H5'2       -1.3880   -2.2060   -0.2170 h1        1 PAJ      0.058700
     35 H4'        -2.3550   -4.4100    0.5800 h1        1 PAJ      0.086700
     36 H3'         0.3940   -5.4000    0.2730 h1        1 PAJ      0.121700
     37 H3T        -2.0480   -6.8030    0.5690 ho        1 PAJ      0.412000
     38 H2'         0.4280   -6.3610   -1.8810 h1        1 PAJ      0.095700
     39 HO'2       -0.8210   -8.0750   -0.9840 ho        1 PAJ      0.427000
     40 H1'        -2.2870   -5.8120   -2.9500 h2        1 PAJ      0.117700
     41 H8         -2.1400   -2.7090   -3.2240 h5        1 PAJ      0.097800
     42 H61         2.1430   -0.8900   -4.7620 hn        1 PAJ      0.490800
     43 H62         2.8870   -1.2930   -3.2880 hn        1 PAJ      0.490800
     44 H2          3.3860   -6.0230   -4.4880 h5        1 PAJ      0.071100
     45 H12        -1.3300    0.6990   -3.0390 h1        1 PAJ      0.105700
     46 H13         0.9310    2.3400   -3.4940 ho        1 PAJ      0.415000
     47 H141       -0.0540    3.6640   -0.1360 hc        1 PAJ      0.050533
     48 H142        0.8840    2.1180   -0.3270 hc        1 PAJ      0.050533
     49 H143        0.9700    3.4040   -1.6080 hc        1 PAJ      0.050533
     50 H151       -2.6760    1.1360   -1.0600 hc        1 PAJ      0.050533
     51 H152       -2.1330    2.3200    0.2030 hc        1 PAJ      0.050533
     52 H153       -1.2200    0.7620   -0.0410 hc        1 PAJ      0.050533
     53 H161       -1.0560    3.8860   -3.0500 h1        1 PAJ      0.028200
     54 H162       -2.5860    2.9100   -2.8070 h1        1 PAJ      0.028200
     55 H14        -2.6370    4.9800   -1.7940 ho        1 PAJ      0.401000
     56 H63         3.7310   -1.4380   -4.7800 hn        1 PAJ      0.490800
@<TRIPOS>BOND
     1    1    2 1   
     2    1    3 1   
     3    1    4 1   
     4    1   25 1   
     5    4    5 1   
     6    5    6 1   
     7    5   33 1   
     8    5   34 1   
     9    6    7 1   
    10    6    8 1   
    11    6   35 1   
    12    7   12 1   
    13    8    9 1   
    14    8   10 1   
    15    8   36 1   
    16    9   37 1   
    17   10   11 1   
    18   10   12 1   
    19   10   38 1   
    20   11   39 1   
    21   12   13 1   
    22   12   40 1   
    23   13   14 1   
    24   13   22 1   
    25   14   15 2   
    26   14   41 1   
    27   15   16 1   
    28   16   17 ar  
    29   16   22 ar  
    30   17   18 1   
    31   17   19 ar  
    32   18   42 1   
    33   18   43 1   
    34   18   56 1   
    35   19   20 ar  
    36   20   21 ar  
    37   20   44 1   
    38   21   22 ar  
    39   23   24 2   
    40   24   25 1   
    41   24   26 1   
    42   26   27 1   
    43   26   28 1   
    44   26   45 1   
    45   27   46 1   
    46   28   29 1   
    47   28   30 1   
    48   28   31 1   
    49   29   47 1   
    50   29   48 1   
    51   29   49 1   
    52   30   50 1   
    53   30   51 1   
    54   30   52 1   
    55   31   32 1   
    56   31   53 1   
    57   31   54 1   
    58   32   55 1   
@<TRIPOS>SUBSTRUCTURE
     1 PAJ         1 TEMP              0 ****  ****    0 ROOT
