@<TRIPOS>MOLECULE
PAJ
   55    57     1     0     0
SMALL
bcc


@<TRIPOS>ATOM
      1 P           2.0180   -0.1110    1.6810 p5        1 PAJ      1.451800
      2 O1P         2.9100   -0.0720    2.8390 o         1 PAJ     -0.808500
      3 O2P         1.8750    0.8060    0.5290 o         1 PAJ     -0.808500
      4 O5'         2.2000   -1.5860    0.9590 os        1 PAJ     -0.563200
      5 C5'         1.4630   -1.8190   -0.1970 c3        1 PAJ      0.189400
      6 C4'         2.3680   -1.9080   -1.4380 c3        1 PAJ      0.080100
      7 O4'         1.5590   -1.7970   -2.6220 os        1 PAJ     -0.426600
      8 C3'         3.4220   -0.7930   -1.5120 c3        1 PAJ      0.091100
      9 O3'         4.6780   -1.2500   -1.9650 oh        1 PAJ     -0.595800
     10 C2'         2.8350    0.2470   -2.4910 c3        1 PAJ      0.077100
     11 O2'         3.7440    0.5640   -3.5310 oh        1 PAJ     -0.609800
     12 C1'         1.6300   -0.4710   -3.1730 c3        1 PAJ      0.250800
     13 N9          0.3760    0.2300   -3.0340 na        1 PAJ     -0.276000
     14 C8         -0.1080    0.9810   -1.9280 cc        1 PAJ      0.437700
     15 N7         -1.3670    1.4140   -2.0890 nd        1 PAJ     -0.574100
     16 C5         -1.7720    0.9250   -3.3410 ca        1 PAJ     -0.212200
     17 C6         -2.9920    1.0380   -4.0790 ca        1 PAJ      0.719200
     18 N6         -4.0240    1.8270   -3.5940 nh        1 PAJ     -0.940500
     19 N1         -3.0980    0.4060   -5.2930 nb        1 PAJ     -0.798000
     20 C2         -2.0030   -0.2670   -5.7430 ca        1 PAJ      0.658900
     21 N3         -0.7900   -0.4440   -5.1730 nb        1 PAJ     -0.719000
     22 C4         -0.6870    0.1600   -3.9500 ca        1 PAJ      0.451800
     23 O11         0.5500    1.5350    3.0330 o         1 PAJ     -0.594000
     24 C11        -0.1220    0.4940    2.9260 c         1 PAJ      0.652100
     25 O12         0.4430   -0.4740    2.2150 os        1 PAJ     -0.526500
     26 C12        -1.5030    0.2730    3.4990 c3        1 PAJ      0.098100
     27 O13        -2.1660    1.5170    3.6460 oh        1 PAJ     -0.604800
     28 C13        -1.4460   -0.4900    4.8420 c3        1 PAJ     -0.066000
     29 C14        -0.5220    0.2150    5.8190 c3        1 PAJ     -0.093100
     30 C15        -0.9650   -1.9110    4.5990 c3        1 PAJ     -0.093100
     31 C16        -2.8750   -0.5190    5.4030 c3        1 PAJ      0.135400
     32 O14        -2.8610   -1.2130    6.6430 oh        1 PAJ     -0.601800
     33 H5'1        0.9360   -2.8080   -0.0830 h1        1 PAJ      0.037200
     34 H5'2        0.6990   -1.0070   -0.3520 h1        1 PAJ      0.037200
     35 H4'         2.8460   -2.9220   -1.5030 h1        1 PAJ      0.076700
     36 H3'         3.6060   -0.3430   -0.4940 h1        1 PAJ      0.135700
     37 H3T         4.5340   -1.6800   -2.8180 ho        1 PAJ      0.399000
     38 H2'         2.5420    1.1780   -1.9330 h1        1 PAJ      0.111700
     39 HO'2        4.5980    0.7270   -3.1060 ho        1 PAJ      0.420000
     40 H1'         1.8190   -0.6220   -4.2790 h2        1 PAJ      0.113700
     41 H8          0.5330    1.1810   -1.0390 h5        1 PAJ      0.154800
     42 H61        -4.9280    1.6970   -3.9820 hn        1 PAJ      0.423300
     43 H62        -3.9810    2.0450   -2.6250 hn        1 PAJ      0.423300
     44 H2         -2.1350   -0.7500   -6.7340 h5        1 PAJ      0.037100
     45 H12        -2.1280   -0.3060    2.7600 h1        1 PAJ      0.094700
     46 H13        -1.5190    2.1540    3.9830 ho        1 PAJ      0.423000
     47 H141       -0.8710    1.2620    5.9920 hc        1 PAJ      0.047867
     48 H142       -0.5210   -0.3280    6.7950 hc        1 PAJ      0.047867
     49 H143        0.5200    0.2460    5.4140 hc        1 PAJ      0.047867
     50 H151       -1.6480   -2.4360    3.8900 hc        1 PAJ      0.047867
     51 H152        0.0640   -1.9020    4.1630 hc        1 PAJ      0.047867
     52 H153       -0.9520   -2.4700    5.5660 hc        1 PAJ      0.047867
     53 H161       -3.2420    0.5320    5.5550 h1        1 PAJ      0.027200
     54 H162       -3.5560   -1.0480    4.6840 h1        1 PAJ      0.027200
     55 H14        -3.7580   -1.1540    6.9900 ho        1 PAJ      0.389000
@<TRIPOS>BOND
     1    1    2 1   
     2    1    3 1   
     3    1    4 1   
     4    1   25 1   
     5    4    5 1   
     6    5    6 1   
     7    5   33 1   
     8    5   34 1   
     9    6    7 1   
    10    6    8 1   
    11    6   35 1   
    12    7   12 1   
    13    8    9 1   
    14    8   10 1   
    15    8   36 1   
    16    9   37 1   
    17   10   11 1   
    18   10   12 1   
    19   10   38 1   
    20   11   39 1   
    21   12   13 1   
    22   12   40 1   
    23   13   14 1   
    24   13   22 1   
    25   14   15 2   
    26   14   41 1   
    27   15   16 1   
    28   16   17 ar  
    29   16   22 ar  
    30   17   18 1   
    31   17   19 ar  
    32   18   42 1   
    33   18   43 1   
    34   19   20 ar  
    35   20   21 ar  
    36   20   44 1   
    37   21   22 ar  
    38   23   24 2   
    39   24   25 1   
    40   24   26 1   
    41   26   27 1   
    42   26   28 1   
    43   26   45 1   
    44   27   46 1   
    45   28   29 1   
    46   28   30 1   
    47   28   31 1   
    48   29   47 1   
    49   29   48 1   
    50   29   49 1   
    51   30   50 1   
    52   30   51 1   
    53   30   52 1   
    54   31   32 1   
    55   31   53 1   
    56   31   54 1   
    57   32   55 1   
@<TRIPOS>SUBSTRUCTURE
     1 PAJ         1 TEMP              0 ****  ****    0 ROOT
