@<TRIPOS>MOLECULE
PAJ
   55    57     1     0     0
SMALL
bcc


@<TRIPOS>ATOM
      1 P           1.3820    1.0140   -1.0210 p5        1 PAJ      1.442800
      2 O1P         2.5250    0.3150   -1.6080 o         1 PAJ     -0.797500
      3 O2P         1.2000    1.7290    0.2530 o         1 PAJ     -0.797500
      4 O5'         0.8300    2.0910   -2.1520 os        1 PAJ     -0.556200
      5 C5'        -0.3070    2.8170   -1.8240 c3        1 PAJ      0.188400
      6 C4'         0.0190    4.3160   -1.7270 c3        1 PAJ      0.108100
      7 O4'        -1.1630    5.0730   -2.0770 os        1 PAJ     -0.418600
      8 C3'         0.4360    4.7580   -0.3130 c3        1 PAJ      0.110100
      9 O3'         1.4220    5.7640   -0.4610 oh        1 PAJ     -0.591800
     10 C2'        -0.8650    5.3170    0.3110 c3        1 PAJ      0.076100
     11 O2'        -0.5680    6.5210    0.9820 oh        1 PAJ     -0.594800
     12 C1'        -1.8000    5.5900   -0.9130 c3        1 PAJ      0.222800
     13 N9         -3.1270    5.0120   -0.7810 na        1 PAJ     -0.273000
     14 C8         -3.7140    3.9810   -1.5480 cc        1 PAJ      0.441700
     15 N7         -4.9840    3.7110   -1.2040 nd        1 PAJ     -0.568100
     16 C5         -5.2730    4.5940   -0.1540 ca        1 PAJ     -0.214200
     17 C6         -6.4400    4.8080    0.6490 ca        1 PAJ      0.735200
     18 N6         -7.6010    4.1080    0.3820 nv        1 PAJ     -0.942500
     19 N1         -6.3980    5.7540    1.6440 nb        1 PAJ     -0.797000
     20 C2         -5.2420    6.4580    1.7930 ca        1 PAJ      0.672900
     21 N3         -4.0770    6.3770    1.1150 nb        1 PAJ     -0.740000
     22 C4         -4.1060    5.4260    0.1300 ca        1 PAJ      0.440800
     23 O11         0.9960   -1.1830    0.2990 o         1 PAJ     -0.596000
     24 C11         0.0210   -1.0720   -0.4650 c         1 PAJ      0.651100
     25 O12         0.0020    0.0200   -1.2140 os        1 PAJ     -0.524500
     26 C12        -1.1270   -2.0510   -0.5680 c3        1 PAJ      0.096100
     27 O13        -1.3030   -2.7170    0.6710 oh        1 PAJ     -0.607800
     28 C13        -0.9110   -3.0620   -1.7170 c3        1 PAJ     -0.065000
     29 C14         0.4040   -3.8000   -1.5400 c3        1 PAJ     -0.092600
     30 C15        -0.9240   -2.3300   -3.0480 c3        1 PAJ     -0.092600
     31 C16        -2.0790   -4.0570   -1.6630 c3        1 PAJ      0.134400
     32 O14        -1.9030   -5.0200   -2.6930 oh        1 PAJ     -0.601800
     33 H5'1       -1.0600    2.6860   -2.6540 h1        1 PAJ      0.031200
     34 H5'2       -0.7490    2.4520   -0.8560 h1        1 PAJ      0.031200
     35 H4'         0.7880    4.6070   -2.4920 h1        1 PAJ      0.109700
     36 H3'         0.8370    3.9010    0.3000 h1        1 PAJ      0.143700
     37 H3T         1.5990    6.1060    0.4250 ho        1 PAJ      0.412000
     38 H2'        -1.3070    4.5680    1.0200 h1        1 PAJ      0.073700
     39 HO'2       -1.3760    6.7910    1.4390 ho        1 PAJ      0.419000
     40 H1'        -1.9250    6.7020   -1.0780 h2        1 PAJ      0.093700
     41 H8         -3.1340    3.4810   -2.3380 h5        1 PAJ      0.095800
     42 H61        -7.5050    3.2940   -0.1780 hn        1 PAJ      0.429800
     43 H62        -8.3210    4.1100    1.0630 hn        1 PAJ      0.429800
     44 H2         -5.2660    7.2130    2.6080 h5        1 PAJ      0.043100
     45 H12        -2.0890   -1.4880   -0.7360 h1        1 PAJ      0.091700
     46 H13        -0.4220   -2.9290    1.0140 ho        1 PAJ      0.423000
     47 H141        0.5370   -4.5360   -2.3690 hc        1 PAJ      0.047700
     48 H142        0.4080   -4.3520   -0.5690 hc        1 PAJ      0.047700
     49 H143        1.2570   -3.0780   -1.5460 hc        1 PAJ      0.047700
     50 H151       -0.8110   -3.0660   -3.8800 hc        1 PAJ      0.047700
     51 H152       -0.0880   -1.5900   -3.0910 hc        1 PAJ      0.047700
     52 H153       -1.8890   -1.7830   -3.1810 hc        1 PAJ      0.047700
     53 H161       -3.0500   -3.5140   -1.8200 h1        1 PAJ      0.026700
     54 H162       -2.0970   -4.5650   -0.6610 h1        1 PAJ      0.026700
     55 H14        -2.6220   -5.6530   -2.5900 ho        1 PAJ      0.388000
@<TRIPOS>BOND
     1    1    2 1   
     2    1    3 1   
     3    1    4 1   
     4    1   25 1   
     5    4    5 1   
     6    5    6 1   
     7    5   33 1   
     8    5   34 1   
     9    6    7 1   
    10    6    8 1   
    11    6   35 1   
    12    7   12 1   
    13    8    9 1   
    14    8   10 1   
    15    8   36 1   
    16    9   37 1   
    17   10   11 1   
    18   10   12 1   
    19   10   38 1   
    20   11   39 1   
    21   12   13 1   
    22   12   40 1   
    23   13   14 1   
    24   13   22 1   
    25   14   15 2   
    26   14   41 1   
    27   15   16 1   
    28   16   17 ar  
    29   16   22 ar  
    30   17   18 1   
    31   17   19 ar  
    32   18   42 1   
    33   18   43 1   
    34   19   20 ar  
    35   20   21 ar  
    36   20   44 1   
    37   21   22 ar  
    38   23   24 2   
    39   24   25 1   
    40   24   26 1   
    41   26   27 1   
    42   26   28 1   
    43   26   45 1   
    44   27   46 1   
    45   28   29 1   
    46   28   30 1   
    47   28   31 1   
    48   29   47 1   
    49   29   48 1   
    50   29   49 1   
    51   30   50 1   
    52   30   51 1   
    53   30   52 1   
    54   31   32 1   
    55   31   53 1   
    56   31   54 1   
    57   32   55 1   
@<TRIPOS>SUBSTRUCTURE
     1 PAJ         1 TEMP              0 ****  ****    0 ROOT
