@<TRIPOS>MOLECULE
PAJ
   55    57     1     0     0
SMALL
bcc


@<TRIPOS>ATOM
      1 P           0.6200    1.1430   -0.2520 p5        1 PAJ      1.450800
      2 O1P         1.9200    0.4860   -0.1190 o         1 PAJ     -0.805500
      3 O2P        -0.2030    1.8730    0.7330 o         1 PAJ     -0.805500
      4 O5'         0.7600    2.2220   -1.4960 os        1 PAJ     -0.571200
      5 C5'        -0.3600    2.9940   -1.7930 c3        1 PAJ      0.182400
      6 C4'        -0.0660    4.4800   -1.5330 c3        1 PAJ      0.076100
      7 O4'        -1.2880    5.2280   -1.6320 os        1 PAJ     -0.419600
      8 C3'         0.5430    4.7440   -0.1420 c3        1 PAJ      0.070100
      9 O3'         1.7800    5.4280   -0.2540 oh        1 PAJ     -0.614800
     10 C2'        -0.4520    5.6610    0.5930 c3        1 PAJ      0.127100
     11 O2'         0.0110    6.9720    0.8100 oh        1 PAJ     -0.585800
     12 C1'        -1.7040    5.7050   -0.3460 c3        1 PAJ      0.214800
     13 N9         -2.8320    4.9580    0.1600 na        1 PAJ     -0.281000
     14 C8         -2.8470    3.6650    0.7550 cc        1 PAJ      0.436700
     15 N7         -4.0820    3.2210    1.0280 nd        1 PAJ     -0.568100
     16 C5         -4.9490    4.2320    0.5830 ca        1 PAJ     -0.213200
     17 C6         -6.3730    4.3590    0.5870 ca        1 PAJ      0.721200
     18 N6         -7.1530    3.3860    1.1920 nh        1 PAJ     -0.940500
     19 N1         -6.9440    5.4800    0.0370 nb        1 PAJ     -0.799000
     20 C2         -6.1010    6.4330   -0.4500 ca        1 PAJ      0.659900
     21 N3         -4.7510    6.4610   -0.5050 nb        1 PAJ     -0.723000
     22 C4         -4.1770    5.3340    0.0160 ca        1 PAJ      0.449800
     23 O11        -0.3670   -1.0540    0.6880 o         1 PAJ     -0.592000
     24 C11        -0.8020   -0.9600   -0.4720 c         1 PAJ      0.653100
     25 O12        -0.4310    0.1330   -1.1280 os        1 PAJ     -0.526500
     26 C12        -1.7200   -1.9470   -1.1570 c3        1 PAJ      0.099100
     27 O13        -2.5090   -2.6190   -0.1910 oh        1 PAJ     -0.604800
     28 C13        -0.9270   -2.9510   -2.0250 c3        1 PAJ     -0.066000
     29 C14         0.1100   -3.6790   -1.1890 c3        1 PAJ     -0.093100
     30 C15        -0.2540   -2.2150   -3.1700 c3        1 PAJ     -0.093100
     31 C16        -1.9440   -3.9570   -2.5850 c3        1 PAJ      0.134400
     32 O14        -1.2480   -4.9130   -3.3720 oh        1 PAJ     -0.601800
     33 H5'1       -1.2450    2.6690   -1.1780 h1        1 PAJ      0.040200
     34 H5'2       -0.6000    2.8700   -2.8860 h1        1 PAJ      0.040200
     35 H4'         0.5990    4.8880   -2.3410 h1        1 PAJ      0.070700
     36 H3'         0.6680    3.7690    0.4180 h1        1 PAJ      0.124700
     37 H3T         2.4220    4.7680   -0.5450 ho        1 PAJ      0.425000
     38 H2'        -0.6930    5.2620    1.6150 h1        1 PAJ      0.106700
     39 HO'2        0.5630    7.2230    0.0580 ho        1 PAJ      0.419000
     40 H1'        -2.0400    6.7710   -0.5220 h2        1 PAJ      0.112700
     41 H8         -1.9050    3.1050    0.9630 h5        1 PAJ      0.154800
     42 H61        -8.1210    3.3650    0.9750 hn        1 PAJ      0.424300
     43 H62        -6.7100    2.5110    1.3470 hn        1 PAJ      0.424300
     44 H2         -6.6110    7.3240   -0.8730 h5        1 PAJ      0.037100
     45 H12        -2.4580   -1.3890   -1.8010 h1        1 PAJ      0.094700
     46 H13        -1.9340   -2.8300    0.5590 ho        1 PAJ      0.423000
     47 H141        0.6620   -4.4100   -1.8270 hc        1 PAJ      0.047700
     48 H142        0.8360   -2.9500   -0.7520 hc        1 PAJ      0.047700
     49 H143       -0.3850   -4.2350   -0.3560 hc        1 PAJ      0.047700
     50 H151        0.2770   -2.9470   -3.8240 hc        1 PAJ      0.047700
     51 H152       -1.0130   -1.6710   -3.7820 hc        1 PAJ      0.047700
     52 H153        0.4800   -1.4710   -2.7740 hc        1 PAJ      0.047700
     53 H161       -2.6960   -3.4210   -3.2240 h1        1 PAJ      0.027700
     54 H162       -2.4750   -4.4680   -1.7380 h1        1 PAJ      0.027700
     55 H14        -1.9090   -5.5550   -3.6560 ho        1 PAJ      0.389000
@<TRIPOS>BOND
     1    1    2 1   
     2    1    3 1   
     3    1    4 1   
     4    1   25 1   
     5    4    5 1   
     6    5    6 1   
     7    5   33 1   
     8    5   34 1   
     9    6    7 1   
    10    6    8 1   
    11    6   35 1   
    12    7   12 1   
    13    8    9 1   
    14    8   10 1   
    15    8   36 1   
    16    9   37 1   
    17   10   11 1   
    18   10   12 1   
    19   10   38 1   
    20   11   39 1   
    21   12   13 1   
    22   12   40 1   
    23   13   14 1   
    24   13   22 1   
    25   14   15 2   
    26   14   41 1   
    27   15   16 1   
    28   16   17 ar  
    29   16   22 ar  
    30   17   18 1   
    31   17   19 ar  
    32   18   42 1   
    33   18   43 1   
    34   19   20 ar  
    35   20   21 ar  
    36   20   44 1   
    37   21   22 ar  
    38   23   24 2   
    39   24   25 1   
    40   24   26 1   
    41   26   27 1   
    42   26   28 1   
    43   26   45 1   
    44   27   46 1   
    45   28   29 1   
    46   28   30 1   
    47   28   31 1   
    48   29   47 1   
    49   29   48 1   
    50   29   49 1   
    51   30   50 1   
    52   30   51 1   
    53   30   52 1   
    54   31   32 1   
    55   31   53 1   
    56   31   54 1   
    57   32   55 1   
@<TRIPOS>SUBSTRUCTURE
     1 PAJ         1 TEMP              0 ****  ****    0 ROOT
