@<TRIPOS>MOLECULE
PAK
   32    35     1     0     0
SMALL
bcc


@<TRIPOS>ATOM
      1 N          -1.6820   -0.5970   -2.3690 n         1 PAK     -0.474100
      2 C          -2.3480   -0.0930   -1.2550 c         1 PAK      0.705500
      3 O          -3.5100   -0.4930   -1.0560 o         1 PAK     -0.625500
      4 C1         -1.6780    0.8940   -0.3220 c3        1 PAK     -0.067200
      5 C2         -0.3870    0.3880    0.1430 cc        1 PAK     -0.126400
      6 C3          0.0390    0.1730    1.5070 ca        1 PAK     -0.090800
      7 C4          1.3920   -0.3380    1.4340 ca        1 PAK     -0.018200
      8 N1          1.7620   -0.4090    0.0930 na        1 PAK     -0.178400
      9 C5          0.6760    0.0160   -0.6920 cd        1 PAK      0.016700
     10 C6          0.7060    0.0720   -2.1410 ca        1 PAK     -0.075800
     11 C7         -0.4550   -0.1940   -2.9120 ca        1 PAK      0.094600
     12 C8         -0.3520   -0.1180   -4.3270 ca        1 PAK     -0.174000
     13 C9          0.8460    0.2110   -4.9410 ca        1 PAK     -0.093000
     14 C10         1.9800    0.4840   -4.1740 ca        1 PAK     -0.150000
     15 C11         1.9030    0.4150   -2.7900 ca        1 PAK     -0.098000
     16 C12         2.1080   -0.6570    2.6000 ca        1 PAK     -0.150000
     17 C13         1.4810   -0.4660    3.8180 ca        1 PAK     -0.075000
     18 C14         0.1600    0.0350    3.8980 ca        1 PAK     -0.047000
     19 C15        -0.4310    0.2120    5.1780 cg        1 PAK      0.237800
     20 N2         -0.9140    0.3570    6.2270 n1        1 PAK     -0.371800
     21 C16        -0.5650    0.3540    2.7500 ca        1 PAK     -0.035000
     22 H1         -2.2410   -1.1700   -2.9710 hn        1 PAK      0.325500
     23 H6         -2.3720    1.0700    0.5450 hc        1 PAK      0.085200
     24 H7         -1.5490    1.8700   -0.8670 hc        1 PAK      0.085200
     25 H2          2.5950   -0.8030   -0.2570 hn        1 PAK      0.305700
     26 H8         -1.2360   -0.3260   -4.9510 ha        1 PAK      0.141000
     27 H9          0.8990    0.2630   -6.0400 ha        1 PAK      0.140000
     28 H10         2.9270    0.7540   -4.6640 ha        1 PAK      0.141000
     29 H11         2.7970    0.6480   -2.1910 ha        1 PAK      0.135000
     30 H3          3.1340   -1.0470    2.5460 ha        1 PAK      0.141000
     31 H4          2.0160   -0.7080    4.7500 ha        1 PAK      0.145000
     32 H5         -1.5940    0.7390    2.8180 ha        1 PAK      0.150000
@<TRIPOS>BOND
     1    1    2 1   
     2    1   11 1   
     3    1   22 1   
     4    2    3 2   
     5    2    4 1   
     6    4    5 1   
     7    4   23 1   
     8    4   24 1   
     9    5    6 1   
    10    5    9 2   
    11    6    7 ar  
    12    6   21 ar  
    13    7    8 1   
    14    7   16 ar  
    15    8    9 1   
    16    8   25 1   
    17    9   10 1   
    18   10   11 ar  
    19   10   15 ar  
    20   11   12 ar  
    21   12   13 ar  
    22   12   26 1   
    23   13   14 ar  
    24   13   27 1   
    25   14   15 ar  
    26   14   28 1   
    27   15   29 1   
    28   16   17 ar  
    29   16   30 1   
    30   17   18 ar  
    31   17   31 1   
    32   18   19 1   
    33   18   21 ar  
    34   19   20 3   
    35   21   32 1   
@<TRIPOS>SUBSTRUCTURE
     1 PAK         1 TEMP              0 ****  ****    0 ROOT
