@<TRIPOS>MOLECULE
PAK
   32    35     1     0     0
SMALL
bcc


@<TRIPOS>ATOM
      1 N           0.0130    0.0750    0.0440 n         1 PAK     -0.474100
      2 C           1.4030   -0.0100    0.0620 c         1 PAK      0.705500
      3 O           1.9790   -0.1600   -1.0310 o         1 PAK     -0.625500
      4 C1          2.1770    0.0850    1.3600 c3        1 PAK     -0.067200
      5 C2          1.8130    1.2900    2.1060 cc        1 PAK     -0.126400
      6 C3          2.6840    2.3550    2.5450 ca        1 PAK     -0.090800
      7 C4          1.8420    3.3100    3.2340 ca        1 PAK     -0.018200
      8 N1          0.5340    2.8300    3.2230 na        1 PAK     -0.178400
      9 C5          0.5130    1.6110    2.5220 cd        1 PAK      0.016700
     10 C6         -0.6880    0.8270    2.3130 ca        1 PAK     -0.075800
     11 C7         -0.8770    0.0740    1.1250 ca        1 PAK      0.094600
     12 C8         -2.0780   -0.6740    0.9900 ca        1 PAK     -0.174000
     13 C9         -3.0380   -0.6740    1.9890 ca        1 PAK     -0.093000
     14 C10        -2.8370    0.0600    3.1600 ca        1 PAK     -0.150000
     15 C11        -1.6730    0.7980    3.3140 ca        1 PAK     -0.098000
     16 C12         2.3830    4.4810    3.7910 ca        1 PAK     -0.150000
     17 C13         3.7440    4.6910    3.6620 ca        1 PAK     -0.075000
     18 C14         4.5740    3.7620    2.9910 ca        1 PAK     -0.047000
     19 C15         5.9660    4.0310    2.8900 cg        1 PAK      0.237800
     20 N2          7.1050    4.2530    2.8100 n1        1 PAK     -0.371800
     21 C16         4.0520    2.5960    2.4310 ca        1 PAK     -0.035000
     22 H1         -0.4080   -0.0900   -0.8490 hn        1 PAK      0.325500
     23 H6          3.2720    0.0910    1.1060 hc        1 PAK      0.085200
     24 H7          1.9680   -0.8380    1.9700 hc        1 PAK      0.085200
     25 H2         -0.2620    3.3150    3.5420 hn        1 PAK      0.305700
     26 H8         -2.2550   -1.2630    0.0760 ha        1 PAK      0.141000
     27 H9         -3.9600   -1.2610    1.8600 ha        1 PAK      0.140000
     28 H10        -3.5960    0.0500    3.9560 ha        1 PAK      0.141000
     29 H11        -1.5130    1.3600    4.2480 ha        1 PAK      0.135000
     30 H3          1.7460    5.2080    4.3130 ha        1 PAK      0.141000
     31 H4          4.1980    5.6010    4.0870 ha        1 PAK      0.145000
     32 H5          4.7020    1.8790    1.9070 ha        1 PAK      0.150000
@<TRIPOS>BOND
     1    1    2 1   
     2    1   11 1   
     3    1   22 1   
     4    2    3 2   
     5    2    4 1   
     6    4    5 1   
     7    4   23 1   
     8    4   24 1   
     9    5    6 1   
    10    5    9 2   
    11    6    7 ar  
    12    6   21 ar  
    13    7    8 1   
    14    7   16 ar  
    15    8    9 1   
    16    8   25 1   
    17    9   10 1   
    18   10   11 ar  
    19   10   15 ar  
    20   11   12 ar  
    21   12   13 ar  
    22   12   26 1   
    23   13   14 ar  
    24   13   27 1   
    25   14   15 ar  
    26   14   28 1   
    27   15   29 1   
    28   16   17 ar  
    29   16   30 1   
    30   17   18 ar  
    31   17   31 1   
    32   18   19 1   
    33   18   21 ar  
    34   19   20 3   
    35   21   32 1   
@<TRIPOS>SUBSTRUCTURE
     1 PAK         1 TEMP              0 ****  ****    0 ROOT
