@<TRIPOS>MOLECULE
PAK
   32    35     1     0     0
SMALL
bcc


@<TRIPOS>ATOM
      1 N           0.0540   -0.0650    0.0410 n         1 PAK     -0.474100
      2 C           1.4420   -0.1580    0.0750 c         1 PAK      0.705500
      3 O           2.0280   -0.3500   -1.0060 o         1 PAK     -0.625500
      4 C1          2.2050   -0.0210    1.3770 c3        1 PAK     -0.067200
      5 C2          1.8410    1.2120    2.0750 cc        1 PAK     -0.126400
      6 C3          2.7150    2.2870    2.4840 ca        1 PAK     -0.090800
      7 C4          1.8720    3.2710    3.1310 ca        1 PAK     -0.018200
      8 N1          0.5610    2.7990    3.1240 na        1 PAK     -0.178400
      9 C5          0.5400    1.5560    2.4670 cd        1 PAK      0.016700
     10 C6         -0.6650    0.7710    2.2740 ca        1 PAK     -0.075800
     11 C7         -0.8470   -0.0220    1.1130 ca        1 PAK      0.094600
     12 C8         -2.0510   -0.7670    0.9930 ca        1 PAK     -0.174000
     13 C9         -3.0210   -0.7260    1.9820 ca        1 PAK     -0.093000
     14 C10        -2.8270    0.0480    3.1280 ca        1 PAK     -0.150000
     15 C11        -1.6590    0.7840    3.2670 ca        1 PAK     -0.098000
     16 C12         2.4150    4.4580    3.6510 ca        1 PAK     -0.150000
     17 C13         3.7790    4.6560    3.5270 ca        1 PAK     -0.075000
     18 C14         4.6090    3.6980    2.8980 ca        1 PAK     -0.047000
     19 C15         6.0030    3.9550    2.8010 cg        1 PAK      0.237800
     20 N2          7.1450    4.1670    2.7240 n1        1 PAK     -0.371800
     21 C16         4.0850    2.5160    2.3750 ca        1 PAK     -0.035000
     22 H1         -0.3600   -0.2600   -0.8500 hn        1 PAK      0.325500
     23 H6          1.9840   -0.9200    2.0170 hc        1 PAK      0.085200
     24 H7          3.3020   -0.0310    1.1330 hc        1 PAK      0.085200
     25 H2         -0.2350    3.3000    3.4170 hn        1 PAK      0.305700
     26 H8         -2.2240   -1.3880    0.0980 ha        1 PAK      0.141000
     27 H9         -3.9450   -1.3120    1.8640 ha        1 PAK      0.140000
     28 H10        -3.5940    0.0710    3.9160 ha        1 PAK      0.141000
     29 H11        -1.5050    1.3790    4.1810 ha        1 PAK      0.135000
     30 H3          1.7770    5.2070    4.1400 ha        1 PAK      0.141000
     31 H4          4.2340    5.5770    3.9240 ha        1 PAK      0.145000
     32 H5          4.7360    1.7760    1.8830 ha        1 PAK      0.150000
@<TRIPOS>BOND
     1    1    2 1   
     2    1   11 1   
     3    1   22 1   
     4    2    3 2   
     5    2    4 1   
     6    4    5 1   
     7    4   23 1   
     8    4   24 1   
     9    5    6 1   
    10    5    9 2   
    11    6    7 ar  
    12    6   21 ar  
    13    7    8 1   
    14    7   16 ar  
    15    8    9 1   
    16    8   25 1   
    17    9   10 1   
    18   10   11 ar  
    19   10   15 ar  
    20   11   12 ar  
    21   12   13 ar  
    22   12   26 1   
    23   13   14 ar  
    24   13   27 1   
    25   14   15 ar  
    26   14   28 1   
    27   15   29 1   
    28   16   17 ar  
    29   16   30 1   
    30   17   18 ar  
    31   17   31 1   
    32   18   19 1   
    33   18   21 ar  
    34   19   20 3   
    35   21   32 1   
@<TRIPOS>SUBSTRUCTURE
     1 PAK         1 TEMP              0 ****  ****    0 ROOT
