@<TRIPOS>MOLECULE
PAK
   32    35     1     0     0
SMALL
bcc


@<TRIPOS>ATOM
      1 N           0.0100   -0.0350   -0.0290 ns        1 PAK     -0.474100
      2 C           1.3990   -0.1220   -0.0010 c         1 PAK      0.705500
      3 O           1.9830   -0.2860   -1.0880 o         1 PAK     -0.625500
      4 C1          2.1640   -0.0120    1.3020 c3        1 PAK     -0.067200
      5 C2          1.7960    1.2030    2.0290 cc        1 PAK     -0.126400
      6 C3          2.6650    2.2730    2.4610 ca        1 PAK     -0.090800
      7 C4          1.8190    3.2380    3.1320 ca        1 PAK     -0.018200
      8 N1          0.5100    2.7600    3.1170 na        1 PAK     -0.178400
      9 C5          0.4930    1.5320    2.4320 cd        1 PAK      0.016700
     10 C6         -0.7080    0.7460    2.2240 ca        1 PAK     -0.075800
     11 C7         -0.8890   -0.0220    1.0450 ca        1 PAK      0.094600
     12 C8         -2.0890   -0.7700    0.9100 ca        1 PAK     -0.174000
     13 C9         -3.0570   -0.7570    1.9020 ca        1 PAK     -0.093000
     14 C10        -2.8640   -0.0080    3.0660 ca        1 PAK     -0.150000
     15 C11        -1.7000    0.7310    3.2190 ca        1 PAK     -0.098000
     16 C12         2.3570    4.4160    3.6780 ca        1 PAK     -0.150000
     17 C13         3.7190    4.6230    3.5550 ca        1 PAK     -0.075000
     18 C14         4.5530    3.6840    2.9020 ca        1 PAK     -0.047000
     19 C15         5.9460    3.9510    2.8080 cg        1 PAK      0.237800
     20 N2          7.0860    4.1700    2.7330 n1        1 PAK     -0.371800
     21 C16         4.0340    2.5110    2.3540 ca        1 PAK     -0.035000
     22 H1         -0.4050   -0.2120   -0.9240 hn        1 PAK      0.325500
     23 H6          1.9490   -0.9260    1.9210 hc        1 PAK      0.085200
     24 H7          3.2600   -0.0100    1.0550 hc        1 PAK      0.085200
     25 H2         -0.2880    3.2490    3.4240 hn        1 PAK      0.305700
     26 H8         -2.2610   -1.3710    0.0030 ha        1 PAK      0.141000
     27 H9         -3.9790   -1.3450    1.7740 ha        1 PAK      0.140000
     28 H10        -3.6290   -0.0070    3.8560 ha        1 PAK      0.141000
     29 H11        -1.5460    1.3050    4.1460 ha        1 PAK      0.135000
     30 H3          1.7170    5.1490    4.1850 ha        1 PAK      0.141000
     31 H4          4.1710    5.5370    3.9720 ha        1 PAK      0.145000
     32 H5          4.6860    1.7870    1.8430 ha        1 PAK      0.150000
@<TRIPOS>BOND
     1    1    2 1   
     2    1   11 1   
     3    1   22 1   
     4    2    3 2   
     5    2    4 1   
     6    4    5 1   
     7    4   23 1   
     8    4   24 1   
     9    5    6 1   
    10    5    9 2   
    11    6    7 ar  
    12    6   21 ar  
    13    7    8 1   
    14    7   16 ar  
    15    8    9 1   
    16    8   25 1   
    17    9   10 1   
    18   10   11 ar  
    19   10   15 ar  
    20   11   12 ar  
    21   12   13 ar  
    22   12   26 1   
    23   13   14 ar  
    24   13   27 1   
    25   14   15 ar  
    26   14   28 1   
    27   15   29 1   
    28   16   17 ar  
    29   16   30 1   
    30   17   18 ar  
    31   17   31 1   
    32   18   19 1   
    33   18   21 ar  
    34   19   20 3   
    35   21   32 1   
@<TRIPOS>SUBSTRUCTURE
     1 PAK         1 TEMP              0 ****  ****    0 ROOT
