@<TRIPOS>MOLECULE
PAK
   32    27     1     0     0
SMALL
bcc


@<TRIPOS>ATOM
      1 N          -1.1400   -1.4420   -1.5810 n         1 PAK     -0.328000
      2 C          -0.0160   -1.4690   -1.6100 c2        1 PAK      0.313000
      3 O           0.6470   -1.5020   -2.6230 o         1 PAK     -0.350000
      4 C1          0.5030   -1.4980   -0.3240 c3        1 PAK     -0.100000
      5 C2          0.6470   -0.1360    0.0810 c2        1 PAK     -0.134000
      6 C3          1.5900    0.8540    0.1390 c1        1 PAK     -0.079000
      7 C4          0.9730    2.0190    0.6790 c1        1 PAK      0.027000
      8 N1         -0.4280    1.7060    0.9630 n1        1 PAK     -0.201000
      9 C5         -0.6480    0.4270    0.6150 c2        1 PAK      0.032000
     10 C6         -1.9600   -0.5950    0.3200 c1        1 PAK     -0.064000
     11 C7         -1.5810   -1.7290   -0.3450 c1        1 PAK      0.102000
     12 C8         -2.3690   -2.9000   -0.2500 c1        1 PAK     -0.174000
     13 C9         -3.5230   -2.8970    0.5160 c1        1 PAK     -0.121500
     14 C10        -3.9060   -1.7470    1.1900 c1        1 PAK     -0.121500
     15 C11        -3.1300   -0.5940    1.0960 c1        1 PAK     -0.098000
     16 C12         1.6830    3.2160    0.7430 c1        1 PAK     -0.150000
     17 C13         3.0020    3.2750    0.2750 c1        1 PAK     -0.075000
     18 C14         3.6150    2.1190   -0.2610 c1        1 PAK     -0.043000
     19 C15         4.8730    2.7000   -0.8740 c1        1 PAK     -0.092000
     20 N2          5.8190    3.1370   -1.3360 n1        1 PAK     -0.046000
     21 C16         2.9040    0.9150   -0.3260 c2        1 PAK     -0.035000
     22 H1         -1.6700   -1.3750   -2.3110 hn        1 PAK      0.239000
     23 H6         -0.0540   -2.1110    0.2010 hc        1 PAK      0.124500
     24 H7          1.3860   -1.9250   -0.2450 hc        1 PAK      0.124500
     25 H2         -1.0270    2.2610    1.3590 DU        1 PAK      0.256000
     26 H8         -2.1000   -3.7080   -0.7230 ha        1 PAK      0.141000
     27 H9         -4.0710   -3.7110    0.5830 ha        1 PAK      0.140500
     28 H10        -4.7180   -1.7460    1.7290 ha        1 PAK      0.140500
     29 H11        -3.4000    0.2160    1.5710 ha        1 PAK      0.135000
     30 H3          1.2630    4.0100    1.1100 ha        1 PAK      0.141000
     31 H4          3.5060    4.1130    0.3340 ha        1 PAK      0.145000
     32 H5          3.3290    0.1170   -0.6970 ha        1 PAK      0.150000
@<TRIPOS>BOND
     1    1    2 1   
     2    1   11 1   
     3    1   22 1   
     4    2    3 1   
     5    2    4 1   
     6    4    5 1   
     7    4   23 1   
     8    4   24 1   
     9    5    6 1   
    10    5    9 1   
    11    6   21 1   
    12    7   16 1   
    13    8    9 1   
    14    9   10 1   
    15   10   15 1   
    16   11   12 1   
    17   12   26 1   
    18   13   14 1   
    19   13   27 1   
    20   14   28 1   
    21   15   29 1   
    22   16   30 1   
    23   17   18 1   
    24   17   31 1   
    25   18   21 1   
    26   19   20 1   
    27   21   32 1   
@<TRIPOS>SUBSTRUCTURE
     1 PAK         1 TEMP              0 ****  ****    0 ROOT
