@<TRIPOS>MOLECULE
PAL
   22    21     1     0     0
SMALL
bcc


@<TRIPOS>ATOM
      1 P          -0.5510   -0.3820    0.6300 p5        1 PAL      1.204700
      2 O1P         0.7310   -0.7170    1.3480 o         1 PAL     -0.936167
      3 O2P        -1.5310    0.3730    1.4910 o         1 PAL     -0.936167
      4 O3P        -1.1460   -1.5120   -0.1560 o         1 PAL     -0.936167
      5 C1P         0.1260    1.1400   -0.5880 c3        1 PAL     -0.347600
      6 C1          0.0470    1.4850   -2.0360 c         1 PAL      0.720100
      7 O1         -1.0240    1.8860   -2.5680 o         1 PAL     -0.736100
      8 N2          1.2030    1.3930   -2.8180 n         1 PAL     -0.568900
      9 C2          1.4620    2.1150   -4.0540 c3        1 PAL      0.021700
     10 C4          2.5620    1.3580   -4.8660 c         1 PAL      0.919600
     11 O2          2.2770    0.8710   -6.0030 o         1 PAL     -0.896300
     12 O3          3.7280    1.2250   -4.3720 o         1 PAL     -0.896300
     13 C3          1.9270    3.5680   -3.8140 c3        1 PAL     -0.176400
     14 C5          1.7060    4.6160   -4.9040 c         1 PAL      0.915600
     15 O4          0.7110    4.6040   -5.6900 o         1 PAL     -0.908300
     16 O5          2.5310    5.5970   -4.9480 o         1 PAL     -0.908300
     17 H1P1        1.1710    1.0980   -0.2220 hc        1 PAL      0.033700
     18 H1P2       -0.4550    1.9110   -0.0400 hc        1 PAL      0.033700
     19 HN2         2.0300    1.1070   -2.3470 hn        1 PAL      0.279500
     20 H2          0.5120    2.1430   -4.6580 h1        1 PAL      0.077700
     21 H31         3.0240    3.5470   -3.5790 hc        1 PAL      0.020700
     22 H32         1.3940    3.9780   -2.9130 hc        1 PAL      0.020700
@<TRIPOS>BOND
     1    1    2 1   
     2    1    3 1   
     3    1    4 1   
     4    1    5 1   
     5    5    6 1   
     6    5   17 1   
     7    5   18 1   
     8    6    7 2   
     9    6    8 1   
    10    8    9 1   
    11    8   19 1   
    12    9   10 1   
    13    9   13 1   
    14    9   20 1   
    15   10   11 1   
    16   10   12 1   
    17   13   14 1   
    18   13   21 1   
    19   13   22 1   
    20   14   15 1   
    21   14   16 1   
@<TRIPOS>SUBSTRUCTURE
     1 PAL         1 TEMP              0 ****  ****    0 ROOT
