@<TRIPOS>MOLECULE
PAL
   22    21     1     0     0
SMALL
bcc


@<TRIPOS>ATOM
      1 P           0.6140    0.0510   -3.7390 p5        1 PAL      1.204700
      2 O1P         0.0780    1.4280   -4.0360 o         1 PAL     -0.936167
      3 O2P         2.0390   -0.1380   -4.1930 o         1 PAL     -0.936167
      4 O3P        -0.3120   -1.0740   -4.0910 o         1 PAL     -0.936167
      5 C1P         0.8910    0.2240   -1.7020 c3        1 PAL     -0.347600
      6 C1          0.5330   -0.5670   -0.4900 c         1 PAL      0.720100
      7 O1          1.1040   -1.6580   -0.2130 o         1 PAL     -0.736100
      8 N2         -0.4390   -0.0670    0.3830 n         1 PAL     -0.568900
      9 C2         -0.5750   -0.3960    1.7940 c3        1 PAL      0.021700
     10 C4         -2.0370   -0.0800    2.2500 c         1 PAL      0.919600
     11 O2         -2.7840   -1.0250    2.6520 o         1 PAL     -0.896300
     12 O3         -2.4660    1.1160    2.2000 o         1 PAL     -0.896300
     13 C3          0.4090    0.3870    2.6900 c3        1 PAL     -0.176400
     14 C5          0.8120   -0.1940    4.0450 c         1 PAL      0.915600
     15 O4          0.9190   -1.4380    4.2660 o         1 PAL     -0.908300
     16 O5          1.1410    0.6390    4.9630 o         1 PAL     -0.908300
     17 H1P1        0.5290    1.2690   -1.6430 hc        1 PAL      0.033700
     18 H1P2        1.9970    0.1910   -1.7940 hc        1 PAL      0.033700
     19 HN2        -0.8330    0.8120    0.1420 hn        1 PAL      0.279500
     20 H2         -0.3770   -1.4960    1.9250 h1        1 PAL      0.077700
     21 H31        -0.0210    1.4070    2.8710 hc        1 PAL      0.020700
     22 H32         1.3790    0.5190    2.1380 hc        1 PAL      0.020700
@<TRIPOS>BOND
     1    1    2 1   
     2    1    3 1   
     3    1    4 1   
     4    1    5 1   
     5    5    6 1   
     6    5   17 1   
     7    5   18 1   
     8    6    7 2   
     9    6    8 1   
    10    8    9 1   
    11    8   19 1   
    12    9   10 1   
    13    9   13 1   
    14    9   20 1   
    15   10   11 1   
    16   10   12 1   
    17   13   14 1   
    18   13   21 1   
    19   13   22 1   
    20   14   15 1   
    21   14   16 1   
@<TRIPOS>SUBSTRUCTURE
     1 PAL         1 TEMP              0 ****  ****    0 ROOT
