@<TRIPOS>MOLECULE
PAL
   22    20     1     0     0
SMALL
bcc


@<TRIPOS>ATOM
      1 P           0.5530   -1.4070    3.6150 p4        1 PAL      1.573000
      2 O1P         0.7900   -2.8280    3.1600 o         1 PAL     -0.943000
      3 O2P         1.8690   -0.6690    3.6650 os        1 PAL     -1.242000
      4 O3P        -0.0730   -1.4160    4.9890 o         1 PAL     -0.991800
      5 C1P        -0.5630   -0.5770    2.4470 c3        1 PAL     -0.347600
      6 C1          0.1200   -0.4460    1.1030 c         1 PAL      0.720100
      7 O1          1.2110   -0.9500    0.9250 o         1 PAL     -0.736100
      8 N2         -0.5200    0.2530    0.0480 n         1 PAL     -0.568900
      9 C2          0.1030    0.3430   -1.2250 c3        1 PAL      0.021700
     10 C4          0.9910    1.5670   -1.2660 c         1 PAL      0.919600
     11 O2          0.5380    2.6860   -0.9090 o         1 PAL     -0.896300
     12 O3          2.1820    1.4680   -1.6630 o         1 PAL     -0.896300
     13 C3         -0.9560    0.4520   -2.2980 c3        1 PAL     -0.176400
     14 C5         -0.3010    0.3900   -3.6610 c         1 PAL      0.915600
     15 O4          0.0970   -0.7130   -4.1190 o         1 PAL     -0.908300
     16 O5         -0.1590    1.4410   -4.3390 o         1 PAL     -0.908300
     17 H1P1       -1.3810   -1.1030    2.3480 hc        1 PAL      0.033700
     18 H1P2       -0.7860    0.3130    2.7870 hc        1 PAL      0.033700
     19 HN2        -1.3360    0.6360    0.1840 hn        1 PAL      0.279500
     20 H2          0.6440   -0.4570   -1.3800 h1        1 PAL      0.077700
     21 H31        -1.4310    1.3020   -2.2030 hc        1 PAL      0.020700
     22 H32        -1.5900   -0.2870   -2.2080 hc        1 PAL      0.020700
@<TRIPOS>BOND
     1    1    2 1   
     2    1    4 2   
     3    1    5 1   
     4    5    6 1   
     5    5   17 1   
     6    5   18 1   
     7    6    7 2   
     8    6    8 1   
     9    8    9 1   
    10    8   19 1   
    11    9   10 1   
    12    9   13 1   
    13    9   20 1   
    14   10   11 1   
    15   10   12 1   
    16   13   14 1   
    17   13   21 1   
    18   13   22 1   
    19   14   15 1   
    20   14   16 1   
@<TRIPOS>SUBSTRUCTURE
     1 PAL         1 TEMP              0 ****  ****    0 ROOT
