@<TRIPOS>MOLECULE
PAM
   47    46     1     0     0
SMALL
bcc


@<TRIPOS>ATOM
      1 C1          0.1140   -0.8460    0.4430 c         1 PAM      0.907600
      2 O1          1.0160   -0.1880    1.0380 o         1 PAM     -0.853300
      3 O2         -0.2160   -2.0270    0.7530 o         1 PAM     -0.853300
      4 C2         -0.6010   -0.1700   -0.7410 c3        1 PAM     -0.194400
      5 C3         -2.0950   -0.3640   -0.6630 c3        1 PAM     -0.065400
      6 C4         -2.7950    0.1320   -1.9110 c3        1 PAM     -0.078400
      7 C5         -4.2950   -0.0500   -1.8150 c3        1 PAM     -0.078400
      8 C6         -4.9950    0.4380   -3.0660 c3        1 PAM     -0.079400
      9 C7         -6.4940    0.2560   -2.9670 c3        1 PAM     -0.077400
     10 C8         -7.1900    0.7440   -4.2210 c3        1 PAM     -0.052200
     11 C9         -8.6610    0.5800   -4.1520 c2        1 PAM     -0.159200
     12 C10        -9.4980    0.9510   -5.1270 c2        1 PAM     -0.191200
     13 C11        -9.0550    1.5740   -6.3960 c3        1 PAM     -0.046200
     14 C12       -10.2130    1.8750   -7.3240 c3        1 PAM     -0.076400
     15 C13        -9.7320    2.5100   -8.6110 c3        1 PAM     -0.080400
     16 C14       -10.8870    2.8120   -9.5410 c3        1 PAM     -0.078400
     17 C15       -10.4070    3.4470  -10.8290 c3        1 PAM     -0.080400
     18 C16       -11.5540    3.7510  -11.7580 c3        1 PAM     -0.092100
     19 H21        -0.2050   -0.6240   -1.6840 hc        1 PAM      0.018700
     20 H22        -0.3500    0.9200   -0.7520 hc        1 PAM      0.018700
     21 H31        -2.4960    0.1800    0.2320 hc        1 PAM      0.044200
     22 H32        -2.3080   -1.4560   -0.5090 hc        1 PAM      0.044200
     23 H41        -2.5590    1.2170   -2.0700 hc        1 PAM      0.025700
     24 H42        -2.4070   -0.4230   -2.8050 hc        1 PAM      0.025700
     25 H51        -4.6840    0.5100   -0.9240 hc        1 PAM      0.036700
     26 H52        -4.5300   -1.1350   -1.6510 hc        1 PAM      0.036700
     27 H61        -4.7580    1.5220   -3.2300 hc        1 PAM      0.034200
     28 H62        -4.6060   -0.1230   -3.9560 hc        1 PAM      0.034200
     29 H71        -6.7310   -0.8290   -2.8030 hc        1 PAM      0.039200
     30 H72        -6.8830    0.8170   -2.0770 hc        1 PAM      0.039200
     31 H81        -6.7940    0.1840   -5.1120 hc        1 PAM      0.046700
     32 H82        -6.9440    1.8290   -4.3880 hc        1 PAM      0.046700
     33 H9         -9.0520    0.1200   -3.2290 ha        1 PAM      0.122000
     34 H10       -10.5840    0.8010   -5.0160 ha        1 PAM      0.116000
     35 H111       -8.4970    2.5250   -6.1700 hc        1 PAM      0.047700
     36 H112       -8.3260    0.8900   -6.9140 hc        1 PAM      0.047700
     37 H121      -10.9370    2.5630   -6.8130 hc        1 PAM      0.038700
     38 H122      -10.7660    0.9270   -7.5560 hc        1 PAM      0.038700
     39 H131       -9.1780    3.4580   -8.3790 hc        1 PAM      0.040700
     40 H132       -9.0080    1.8220   -9.1220 hc        1 PAM      0.040700
     41 H141      -11.4410    1.8650   -9.7740 hc        1 PAM      0.037700
     42 H142      -11.6110    3.5010   -9.0300 hc        1 PAM      0.037700
     43 H151       -9.8520    4.3940  -10.5940 hc        1 PAM      0.038700
     44 H152       -9.6820    2.7580  -11.3370 hc        1 PAM      0.038700
     45 H161      -12.1050    2.8160  -12.0230 hc        1 PAM      0.030367
     46 H162      -11.1780    4.2180  -12.7000 hc        1 PAM      0.030367
     47 H163      -12.2750    4.4560  -11.2780 hc        1 PAM      0.030367
@<TRIPOS>BOND
     1    1    2 1   
     2    1    3 1   
     3    1    4 1   
     4    4    5 1   
     5    4   19 1   
     6    4   20 1   
     7    5    6 1   
     8    5   21 1   
     9    5   22 1   
    10    6    7 1   
    11    6   23 1   
    12    6   24 1   
    13    7    8 1   
    14    7   25 1   
    15    7   26 1   
    16    8    9 1   
    17    8   27 1   
    18    8   28 1   
    19    9   10 1   
    20    9   29 1   
    21    9   30 1   
    22   10   11 1   
    23   10   31 1   
    24   10   32 1   
    25   11   12 2   
    26   11   33 1   
    27   12   13 1   
    28   12   34 1   
    29   13   14 1   
    30   13   35 1   
    31   13   36 1   
    32   14   15 1   
    33   14   37 1   
    34   14   38 1   
    35   15   16 1   
    36   15   39 1   
    37   15   40 1   
    38   16   17 1   
    39   16   41 1   
    40   16   42 1   
    41   17   18 1   
    42   17   43 1   
    43   17   44 1   
    44   18   45 1   
    45   18   46 1   
    46   18   47 1   
@<TRIPOS>SUBSTRUCTURE
     1 PAM         1 TEMP              0 ****  ****    0 ROOT
