@<TRIPOS>MOLECULE
PAM
   47    46     1     0     0
SMALL
bcc


@<TRIPOS>ATOM
      1 C1          0.1090   -0.8560    0.4460 c         1 PAM      0.907600
      2 O1          1.0360   -0.2020    1.0050 o         1 PAM     -0.853300
      3 O2         -0.2540   -2.0130    0.8090 o         1 PAM     -0.853300
      4 C2         -0.5980   -0.2090   -0.7580 c3        1 PAM     -0.194400
      5 C3         -2.0960   -0.3540   -0.6590 c3        1 PAM     -0.065400
      6 C4         -2.7940    0.1110   -1.9210 c3        1 PAM     -0.078400
      7 C5         -4.2980   -0.0230   -1.8040 c3        1 PAM     -0.078400
      8 C6         -4.9950    0.4340   -3.0670 c3        1 PAM     -0.079400
      9 C7         -6.4980    0.3000   -2.9480 c3        1 PAM     -0.077400
     10 C8         -7.1920    0.7590   -4.2140 c3        1 PAM     -0.052200
     11 C9         -8.6660    0.6400   -4.1260 c2        1 PAM     -0.159200
     12 C10        -9.5040    1.0180   -5.0980 c2        1 PAM     -0.191200
     13 C11        -9.0570    1.6060   -6.3830 c3        1 PAM     -0.046200
     14 C12       -10.2150    1.9000   -7.3140 c3        1 PAM     -0.076400
     15 C13        -9.7300    2.5000   -8.6170 c3        1 PAM     -0.080400
     16 C14       -10.8850    2.7950   -9.5500 c3        1 PAM     -0.078400
     17 C15       -10.4010    3.3950  -10.8530 c3        1 PAM     -0.080400
     18 C16       -11.5470    3.6900  -11.7850 c3        1 PAM     -0.092100
     19 H21        -0.2250   -0.7140   -1.6850 hc        1 PAM      0.018700
     20 H22        -0.3140    0.8720   -0.8180 hc        1 PAM      0.018700
     21 H31        -2.4720    0.2380    0.2160 hc        1 PAM      0.044200
     22 H32        -2.3400   -1.4320   -0.4580 hc        1 PAM      0.044200
     23 H41        -2.5280    1.1810   -2.1260 hc        1 PAM      0.025700
     24 H42        -2.4310   -0.4920   -2.7940 hc        1 PAM      0.025700
     25 H51        -4.6610    0.5830   -0.9330 hc        1 PAM      0.036700
     26 H52        -4.5620   -1.0930   -1.5940 hc        1 PAM      0.036700
     27 H61        -4.7290    1.5040   -3.2770 hc        1 PAM      0.034200
     28 H62        -4.6310   -0.1730   -3.9380 hc        1 PAM      0.034200
     29 H71        -6.7640   -0.7700   -2.7400 hc        1 PAM      0.039700
     30 H72        -6.8620    0.9070   -2.0780 hc        1 PAM      0.039700
     31 H81        -6.8220    0.1530   -5.0860 hc        1 PAM      0.046700
     32 H82        -6.9160    1.8290   -4.4260 hc        1 PAM      0.046700
     33 H9         -9.0600    0.2080   -3.1910 ha        1 PAM      0.122000
     34 H10       -10.5920    0.9020   -4.9730 ha        1 PAM      0.116000
     35 H111       -8.4870    2.5550   -6.1800 hc        1 PAM      0.047700
     36 H112       -8.3380    0.9030   -6.8870 hc        1 PAM      0.047700
     37 H121      -10.9280    2.6090   -6.8160 hc        1 PAM      0.038700
     38 H122      -10.7800    0.9540   -7.5220 hc        1 PAM      0.038700
     39 H131       -9.1640    3.4460   -8.4080 hc        1 PAM      0.040700
     40 H132       -9.0160    1.7910   -9.1140 hc        1 PAM      0.040700
     41 H141      -11.4500    1.8490   -9.7590 hc        1 PAM      0.037700
     42 H142      -11.5980    3.5030   -9.0530 hc        1 PAM      0.037700
     43 H151       -9.8340    4.3400  -10.6410 hc        1 PAM      0.038700
     44 H152       -9.6860    2.6850  -11.3480 hc        1 PAM      0.038700
     45 H161      -12.1090    2.7560  -12.0280 hc        1 PAM      0.030367
     46 H162      -11.1690    4.1310  -12.7390 hc        1 PAM      0.030367
     47 H163      -12.2580    4.4140  -11.3190 hc        1 PAM      0.030367
@<TRIPOS>BOND
     1    1    2 1   
     2    1    3 1   
     3    1    4 1   
     4    4    5 1   
     5    4   19 1   
     6    4   20 1   
     7    5    6 1   
     8    5   21 1   
     9    5   22 1   
    10    6    7 1   
    11    6   23 1   
    12    6   24 1   
    13    7    8 1   
    14    7   25 1   
    15    7   26 1   
    16    8    9 1   
    17    8   27 1   
    18    8   28 1   
    19    9   10 1   
    20    9   29 1   
    21    9   30 1   
    22   10   11 1   
    23   10   31 1   
    24   10   32 1   
    25   11   12 2   
    26   11   33 1   
    27   12   13 1   
    28   12   34 1   
    29   13   14 1   
    30   13   35 1   
    31   13   36 1   
    32   14   15 1   
    33   14   37 1   
    34   14   38 1   
    35   15   16 1   
    36   15   39 1   
    37   15   40 1   
    38   16   17 1   
    39   16   41 1   
    40   16   42 1   
    41   17   18 1   
    42   17   43 1   
    43   17   44 1   
    44   18   45 1   
    45   18   46 1   
    46   18   47 1   
@<TRIPOS>SUBSTRUCTURE
     1 PAM         1 TEMP              0 ****  ****    0 ROOT
