@<TRIPOS>MOLECULE
PAM
   47    46     1     0     0
SMALL
bcc


@<TRIPOS>ATOM
      1 C1          0.3760    0.3650   -7.8580 c         1 PAM      0.907600
      2 O1          0.8950   -0.3490   -8.7640 o         1 PAM     -0.853300
      3 O2         -0.5370    1.2160   -8.0690 o         1 PAM     -0.853300
      4 C2          0.9070    0.1980   -6.4240 c3        1 PAM     -0.194400
      5 C3         -0.2210    0.1120   -5.4260 c3        1 PAM     -0.065400
      6 C4          0.2830    0.1350   -3.9980 c3        1 PAM     -0.078400
      7 C5         -0.8550    0.0300   -3.0060 c3        1 PAM     -0.078400
      8 C6         -0.3520    0.0610   -1.5790 c3        1 PAM     -0.079400
      9 C7         -1.4920   -0.0450   -0.5880 c3        1 PAM     -0.077400
     10 C8         -0.9850   -0.0130    0.8390 c3        1 PAM     -0.052200
     11 C9         -2.0790   -0.1170    1.8310 c2        1 PAM     -0.159200
     12 C10        -1.8860   -0.1290    3.1550 c2        1 PAM     -0.191200
     13 C11        -0.5500   -0.0400    3.7900 c3        1 PAM     -0.046200
     14 C12        -0.6300   -0.0580    5.3020 c3        1 PAM     -0.076400
     15 C13         0.7480    0.0340    5.9230 c3        1 PAM     -0.080400
     16 C14         0.6710    0.0160    7.4350 c3        1 PAM     -0.078400
     17 C15         2.0480    0.1080    8.0570 c3        1 PAM     -0.080400
     18 C16         1.9780    0.0900    9.5620 c3        1 PAM     -0.092100
     19 H21         1.5540    1.0820   -6.1940 hc        1 PAM      0.018700
     20 H22         1.5460   -0.7190   -6.3690 hc        1 PAM      0.018700
     21 H31        -0.8040   -0.8300   -5.6020 hc        1 PAM      0.044200
     22 H32        -0.9220    0.9720   -5.6020 hc        1 PAM      0.044200
     23 H41         0.8520    1.0850   -3.8170 hc        1 PAM      0.025700
     24 H42         1.0000   -0.7130   -3.8380 hc        1 PAM      0.025700
     25 H51        -1.4210   -0.9220   -3.1840 hc        1 PAM      0.036700
     26 H52        -1.5730    0.8760   -3.1710 hc        1 PAM      0.036700
     27 H61         0.2120    1.0150   -1.4010 hc        1 PAM      0.034200
     28 H62         0.3680   -0.7830   -1.4160 hc        1 PAM      0.034200
     29 H71        -2.0560   -0.9990   -0.7660 hc        1 PAM      0.039200
     30 H72        -2.2110    0.8000   -0.7510 hc        1 PAM      0.039200
     31 H81        -0.4140    0.9410    1.0120 hc        1 PAM      0.046700
     32 H82        -0.2560   -0.8550    0.9970 hc        1 PAM      0.046700
     33 H9         -3.0990   -0.1860    1.4180 ha        1 PAM      0.122000
     34 H10        -2.7430   -0.2080    3.8430 ha        1 PAM      0.116000
     35 H111       -0.0370    0.9020    3.4510 hc        1 PAM      0.047700
     36 H112        0.0890   -0.8970    3.4370 hc        1 PAM      0.047700
     37 H121       -1.1330   -1.0020    5.6410 hc        1 PAM      0.038700
     38 H122       -1.2600    0.7990    5.6560 hc        1 PAM      0.038700
     39 H131        1.2510    0.9770    5.5830 hc        1 PAM      0.040700
     40 H132        1.3780   -0.8240    5.5680 hc        1 PAM      0.040700
     41 H141        0.1680   -0.9280    7.7750 hc        1 PAM      0.037700
     42 H142        0.0410    0.8730    7.7900 hc        1 PAM      0.037700
     43 H151        2.5500    1.0510    7.7150 hc        1 PAM      0.038700
     44 H152        2.6780   -0.7490    7.6990 hc        1 PAM      0.038700
     45 H161        3.0030    0.1590   10.0010 hc        1 PAM      0.030367
     46 H162        1.3750    0.9510    9.9390 hc        1 PAM      0.030367
     47 H163        1.5020   -0.8540    9.9240 hc        1 PAM      0.030367
@<TRIPOS>BOND
     1    1    2 1   
     2    1    3 1   
     3    1    4 1   
     4    4    5 1   
     5    4   19 1   
     6    4   20 1   
     7    5    6 1   
     8    5   21 1   
     9    5   22 1   
    10    6    7 1   
    11    6   23 1   
    12    6   24 1   
    13    7    8 1   
    14    7   25 1   
    15    7   26 1   
    16    8    9 1   
    17    8   27 1   
    18    8   28 1   
    19    9   10 1   
    20    9   29 1   
    21    9   30 1   
    22   10   11 1   
    23   10   31 1   
    24   10   32 1   
    25   11   12 2   
    26   11   33 1   
    27   12   13 1   
    28   12   34 1   
    29   13   14 1   
    30   13   35 1   
    31   13   36 1   
    32   14   15 1   
    33   14   37 1   
    34   14   38 1   
    35   15   16 1   
    36   15   39 1   
    37   15   40 1   
    38   16   17 1   
    39   16   41 1   
    40   16   42 1   
    41   17   18 1   
    42   17   43 1   
    43   17   44 1   
    44   18   45 1   
    45   18   46 1   
    46   18   47 1   
@<TRIPOS>SUBSTRUCTURE
     1 PAM         1 TEMP              0 ****  ****    0 ROOT
