@<TRIPOS>MOLECULE
PAN
   26    25     1     0     0
SMALL
bcc


@<TRIPOS>ATOM
      1 C2          1.5000   -0.0720    0.1590 c3        1 PAN      0.098100
      2 C3          0.0280   -0.2770    0.5040 c3        1 PAN      0.048100
      3 C4         -0.2840   -1.0060    1.8160 c3        1 PAN      0.089100
      4 C5         -1.8230   -1.2350    1.8540 c3        1 PAN      0.183400
      5 O2          2.1550    0.8060    1.0570 oh        1 PAN     -0.603800
      6 O3         -0.5690    1.0090    0.5180 oh        1 PAN     -0.684800
      7 O4          0.3990   -2.2530    1.8490 oh        1 PAN     -0.649800
      8 O5         -2.2110   -2.0070    0.7850 os        1 PAN     -0.583200
      9 P          -3.2240   -1.2180   -0.3900 p5        1 PAN      1.338900
     10 O1P        -2.1730   -0.3820   -1.1110 o         1 PAN     -0.921167
     11 O2P        -3.7980   -2.3660   -1.1520 o         1 PAN     -0.921167
     12 O3P        -4.1190   -0.3910    0.4830 o         1 PAN     -0.921167
     13 C1          1.6520    0.4910   -1.2650 c         1 PAN      0.584100
     14 O1          2.7140    1.0540   -1.6200 o         1 PAN     -0.666100
     15 N           0.6560    0.2350   -2.2250 n         1 PAN     -0.387400
     16 ON1         0.7200    0.9940   -3.3220 oh        1 PAN     -0.433100
     17 H2          2.0600   -1.0450    0.2330 h1        1 PAN      0.086700
     18 H3         -0.4660   -0.9400   -0.2870 h1        1 PAN      0.145700
     19 H4          0.0770   -0.4380    2.7090 h1        1 PAN      0.033700
     20 H51        -2.3490   -0.2400    1.8530 h1        1 PAN      0.012700
     21 H52        -2.0480   -1.7790    2.8170 h1        1 PAN      0.012700
     22 HO2         1.5530    1.5510    1.1940 ho        1 PAN      0.414000
     23 HO3        -1.4520    0.8890    0.0860 ho        1 PAN      0.488000
     24 HO4        -0.1290   -2.8500    1.2970 ho        1 PAN      0.423000
     25 HN         -0.3320    0.1660   -1.9140 hn        1 PAN      0.422500
     26 HO1         1.5610    0.7610   -3.7580 ho        1 PAN      0.392000
@<TRIPOS>BOND
     1    1    2 1   
     2    1    5 1   
     3    1   13 1   
     4    1   17 1   
     5    2    3 1   
     6    2    6 1   
     7    2   18 1   
     8    3    4 1   
     9    3    7 1   
    10    3   19 1   
    11    4    8 1   
    12    4   20 1   
    13    4   21 1   
    14    5   22 1   
    15    6   23 1   
    16    7   24 1   
    17    8    9 1   
    18    9   10 1   
    19    9   11 1   
    20    9   12 1   
    21   13   14 2   
    22   13   15 1   
    23   15   16 1   
    24   15   25 1   
    25   16   26 1   
@<TRIPOS>SUBSTRUCTURE
     1 PAN         1 TEMP              0 ****  ****    0 ROOT
