@<TRIPOS>MOLECULE
PAN
   26    25     1     0     0
SMALL
bcc


@<TRIPOS>ATOM
      1 C2         -0.7510   -0.1630    2.4700 c3        1 PAN      0.098100
      2 C3         -0.4590    0.1360    1.0020 c3        1 PAN      0.048100
      3 C4         -1.6640    0.2410    0.0600 c3        1 PAN      0.089100
      4 C5         -1.1010    0.3790   -1.3840 c3        1 PAN      0.183400
      5 O2         -1.4410    0.8930    3.1150 oh        1 PAN     -0.603800
      6 O3          0.2780    1.3470    0.9730 oh        1 PAN     -0.684800
      7 O4         -2.4620   -0.9310    0.1650 oh        1 PAN     -0.649800
      8 O5         -0.3490   -0.7260   -1.7060 os        1 PAN     -0.583200
      9 P           1.3520   -0.4410   -1.9380 p5        1 PAN      1.338900
     10 O1P         1.7900   -0.3110   -0.4840 o         1 PAN     -0.921167
     11 O2P         1.7950   -1.6730   -2.6580 o         1 PAN     -0.921167
     12 O3P         1.3480    0.8730   -2.6590 o         1 PAN     -0.921167
     13 C1          0.5530   -0.4310    3.2400 c         1 PAN      0.584100
     14 O1          0.5850   -0.3500    4.4900 o         1 PAN     -0.666100
     15 N           1.6790   -0.9230    2.5550 n         1 PAN     -0.387400
     16 ON1         2.8290   -0.8450    3.2280 oh        1 PAN     -0.433100
     17 H2         -1.4250   -1.0590    2.5610 h1        1 PAN      0.086700
     18 H3          0.1540   -0.7170    0.5490 h1        1 PAN      0.145700
     19 H4         -2.3370    1.0920    0.3310 h1        1 PAN      0.033700
     20 H51        -1.9900    0.4480   -2.0760 h1        1 PAN      0.012700
     21 H52        -0.4930    1.3240   -1.4600 h1        1 PAN      0.012700
     22 HO2        -1.0060    1.7100    2.8360 ho        1 PAN      0.414000
     23 HO3         0.9750    1.2100    0.2820 ho        1 PAN      0.488000
     24 HO4        -2.0030   -1.6030   -0.3630 ho        1 PAN      0.423000
     25 HN          1.8360   -0.6250    1.5730 hn        1 PAN      0.422500
     26 HO1         2.7260   -1.4300    4.0020 ho        1 PAN      0.392000
@<TRIPOS>BOND
     1    1    2 1   
     2    1    5 1   
     3    1   13 1   
     4    1   17 1   
     5    2    3 1   
     6    2    6 1   
     7    2   18 1   
     8    3    4 1   
     9    3    7 1   
    10    3   19 1   
    11    4    8 1   
    12    4   20 1   
    13    4   21 1   
    14    5   22 1   
    15    6   23 1   
    16    7   24 1   
    17    8    9 1   
    18    9   10 1   
    19    9   11 1   
    20    9   12 1   
    21   13   14 2   
    22   13   15 1   
    23   15   16 1   
    24   15   25 1   
    25   16   26 1   
@<TRIPOS>SUBSTRUCTURE
     1 PAN         1 TEMP              0 ****  ****    0 ROOT
