@<TRIPOS>MOLECULE
PAN
   26    25     1     0     0
SMALL
bcc


@<TRIPOS>ATOM
      1 C2          1.6070    0.6150    0.2100 c3        1 PAN      0.005100
      2 C3          0.0900    0.6070    0.0910 c3        1 PAN      0.271100
      3 C4         -0.4250   -0.8180    0.2750 c3        1 PAN      0.079100
      4 C5         -1.9230   -0.8120    0.2660 c3        1 PAN      0.167400
      5 O2          1.9700    0.6340    1.5630 oh        1 PAN     -0.630800
      6 O3         -0.4640    1.4350    1.0760 oh        1 PAN     -1.002800
      7 O4          0.0410   -1.6190   -0.7650 oh        1 PAN     -0.640800
      8 O5         -2.3940   -2.1280    0.3500 os        1 PAN     -0.605200
      9 P          -3.9460   -2.3590    0.5090 p5        1 PAN      1.347900
     10 O1P        -4.6770   -1.6200   -0.5830 o         1 PAN     -0.732833
     11 O2P        -4.3960   -1.8460    1.8550 o         1 PAN     -0.732833
     12 O3P        -4.2480   -3.8290    0.4070 o         1 PAN     -0.732833
     13 C1          2.1650    1.8470   -0.4810 c         1 PAN      0.594100
     14 O1          1.7070    2.9470   -0.2270 o         1 PAN     -0.675100
     15 N           3.3130    1.7280   -1.3380 n         1 PAN     -0.381400
     16 ON1         3.8700    2.8640   -1.9130 oh        1 PAN     -0.472100
     17 H2          1.9680   -0.1820   -0.2090 h1        1 PAN      0.079700
     18 H3         -0.1660    0.9310   -0.7830 h1        1 PAN     -0.053300
     19 H4         -0.1050   -1.1720    1.1280 h1        1 PAN      0.024700
     20 H51        -2.2390   -0.4080   -0.5560 h1        1 PAN      0.034200
     21 H52        -2.2520   -0.2990    1.0290 h1        1 PAN      0.034200
     22 HO2         2.7850    0.2680    1.6600 ho        1 PAN      0.429000
     23 HO3        -0.9480    2.0620    0.6940 ho        1 PAN      0.424000
     24 HO4         0.3650   -2.4060   -0.4230 ho        1 PAN      0.405000
     25 HN          3.7090    0.9240   -1.4540 hn        1 PAN      0.358500
     26 HO1         4.5920    2.6360   -2.3820 ho        1 PAN      0.403000
@<TRIPOS>BOND
     1    1    2 1   
     2    1    5 1   
     3    1   13 1   
     4    1   17 1   
     5    2    3 1   
     6    2    6 1   
     7    2   18 1   
     8    3    4 1   
     9    3    7 1   
    10    3   19 1   
    11    4    8 1   
    12    4   20 1   
    13    4   21 1   
    14    5   22 1   
    15    6   23 1   
    16    7   24 1   
    17    8    9 1   
    18    9   10 1   
    19    9   11 1   
    20    9   12 1   
    21   13   14 2   
    22   13   15 1   
    23   15   16 1   
    24   15   25 1   
    25   16   26 1   
@<TRIPOS>SUBSTRUCTURE
     1 PAN         1 TEMP              0 ****  ****    0 ROOT
