@<TRIPOS>MOLECULE
PAO
   28    27     1     0     0
SMALL
bcc


@<TRIPOS>ATOM
      1 N          -2.9100   -1.8660   -2.7280 n3        1 PAO     -0.908800
      2 CA         -1.4780   -1.6580   -2.7320 c3        1 PAO      0.036500
      3 CB         -0.9590   -1.6520   -1.3000 c3        1 PAO     -0.085400
      4 CG         -0.4710   -0.2630   -0.9460 c3        1 PAO     -0.088400
      5 CD          0.1000   -0.2710    0.4710 c3        1 PAO      0.083000
      6 NE          0.4950    1.0810    0.8410 n         1 PAO     -0.578900
      7 C          -0.8130   -2.7630   -3.5010 c         1 PAO      0.904600
      8 O          -0.1050   -2.4920   -4.4930 o         1 PAO     -0.863300
      9 OXT        -1.0500   -3.9680   -3.2060 o         1 PAO     -0.863300
     10 C1          1.1850    1.3210    2.0960 c         1 PAO      0.719100
     11 O1          1.4230    0.3930    2.8460 o         1 PAO     -0.775100
     12 C1P         1.5270    2.7580    2.5210 c3        1 PAO     -0.339600
     13 P           2.3760    2.7300    4.1060 p5        1 PAO      1.168700
     14 O1P         3.5690    1.7790    4.0260 o         1 PAO     -0.894167
     15 O2P         1.4340    2.2600    5.1700 o         1 PAO     -0.894167
     16 O3P         2.8610    4.1230    4.4430 o         1 PAO     -0.894167
     17 HN1        -3.3270   -1.1000   -2.9840 hn        1 PAO      0.330300
     18 HN2        -3.1270   -2.5520   -3.3220 hn        1 PAO      0.330300
     19 HA         -1.2740   -0.7970   -3.1570 h1        1 PAO      0.041700
     20 HB1        -1.6750   -1.9080   -0.6950 hc        1 PAO      0.039200
     21 HB2        -0.2140   -2.2940   -1.2180 hc        1 PAO      0.039200
     22 HG1         0.2290    0.0100   -1.5800 hc        1 PAO      0.026200
     23 HG2        -1.2160    0.3640   -0.9930 hc        1 PAO      0.026200
     24 HD1        -0.5790   -0.5950    1.0950 h1        1 PAO      0.024200
     25 HD2         0.8730   -0.8540    0.5040 h1        1 PAO      0.024200
     26 HNE         0.3260    1.7760    0.2750 hn        1 PAO      0.282500
     27 HP1         2.0990    3.1620    1.8560 hc        1 PAO      0.054700
     28 HP2         0.7040    3.2770    2.6010 hc        1 PAO      0.054700
@<TRIPOS>BOND
     1    1    2 1   
     2    1   17 1   
     3    1   18 1   
     4    2    3 1   
     5    2    7 1   
     6    2   19 1   
     7    3    4 1   
     8    3   20 1   
     9    3   21 1   
    10    4    5 1   
    11    4   22 1   
    12    4   23 1   
    13    5    6 1   
    14    5   24 1   
    15    5   25 1   
    16    6   10 1   
    17    6   26 1   
    18    7    8 1   
    19    7    9 1   
    20   10   11 2   
    21   10   12 1   
    22   12   13 1   
    23   12   27 1   
    24   12   28 1   
    25   13   14 1   
    26   13   15 1   
    27   13   16 1   
@<TRIPOS>SUBSTRUCTURE
     1 PAO         1 TEMP              0 ****  ****    0 ROOT
