@<TRIPOS>MOLECULE
PAO
   28    27     1     0     0
SMALL
bcc


@<TRIPOS>ATOM
      1 N          -0.1680   -0.2220   -0.0180 n3        1 PAO     -0.908800
      2 CA          1.2780   -0.0600   -0.0710 c3        1 PAO      0.037500
      3 CB          1.9640    0.1460    1.2890 c3        1 PAO     -0.087400
      4 CG          1.5500    1.4300    1.9810 c3        1 PAO     -0.088400
      5 CD          2.2310    1.5600    3.3530 c3        1 PAO      0.085000
      6 NE          1.7920    2.7020    4.1080 n         1 PAO     -0.568900
      7 C           1.9820   -1.2520   -0.7950 c         1 PAO      0.905600
      8 O           1.4730   -2.4100   -0.7090 o         1 PAO     -0.864300
      9 OXT         3.0300   -1.0070   -1.4590 o         1 PAO     -0.864300
     10 C1          1.4580    2.5770    5.4690 c         1 PAO      0.713100
     11 O1          1.3150    1.4250    5.9680 o         1 PAO     -0.752100
     12 C1P         1.2110    3.8150    6.2330 c3        1 PAO     -0.334600
     13 P           2.5890    5.1220    6.4050 p5        1 PAO      1.204700
     14 O1P         3.2240    5.0590    5.0350 o         1 PAO     -0.938833
     15 O2P         1.7640    6.3540    6.6810 o         1 PAO     -0.938833
     16 O3P         3.4430    4.6730    7.5580 o         1 PAO     -0.938833
     17 HN1        -0.3900   -1.1890   -0.1910 hn        1 PAO      0.329800
     18 HN2        -0.5010    0.0000    0.9020 hn        1 PAO      0.329800
     19 HA          1.4680    0.8640   -0.6910 h1        1 PAO      0.041700
     20 HB1         1.7440   -0.7300    1.9540 hc        1 PAO      0.037700
     21 HB2         3.0710    0.1590    1.1080 hc        1 PAO      0.037700
     22 HG1         0.4390    1.4580    2.1180 hc        1 PAO      0.029200
     23 HG2         1.8250    2.3060    1.3380 hc        1 PAO      0.029200
     24 HD1         3.3460    1.6030    3.1780 h1        1 PAO      0.026200
     25 HD2         2.0190    0.6200    3.9410 h1        1 PAO      0.026200
     26 HNE         2.2790    3.5710    3.9190 hn        1 PAO      0.352500
     27 HP1         0.4250    4.4320    5.7490 hc        1 PAO      0.049200
     28 HP2         0.9280    3.5670    7.2740 hc        1 PAO      0.049200
@<TRIPOS>BOND
     1    1    2 1   
     2    1   17 1   
     3    1   18 1   
     4    2    3 1   
     5    2    7 1   
     6    2   19 1   
     7    3    4 1   
     8    3   20 1   
     9    3   21 1   
    10    4    5 1   
    11    4   22 1   
    12    4   23 1   
    13    5    6 1   
    14    5   24 1   
    15    5   25 1   
    16    6   10 1   
    17    6   26 1   
    18    7    8 1   
    19    7    9 1   
    20   10   11 2   
    21   10   12 1   
    22   12   13 1   
    23   12   27 1   
    24   12   28 1   
    25   13   14 1   
    26   13   15 1   
    27   13   16 1   
@<TRIPOS>SUBSTRUCTURE
     1 PAO         1 TEMP              0 ****  ****    0 ROOT
