@<TRIPOS>MOLECULE
PAO
   28    27     1     0     0
SMALL
bcc


@<TRIPOS>ATOM
      1 N          -0.0440    1.9010    4.3110 n3        1 PAO     -0.908800
      2 CA         -0.4640    0.5190    4.1300 c3        1 PAO      0.037500
      3 CB          0.1440   -0.1960    2.9130 c3        1 PAO     -0.087400
      4 CG         -0.2730    0.4130    1.5890 c3        1 PAO     -0.088400
      5 CD          0.4010   -0.3120    0.4130 c3        1 PAO      0.085000
      6 NE          0.1340    0.2910   -0.8640 n         1 PAO     -0.568900
      7 C          -0.1910   -0.3550    5.3960 c         1 PAO      0.905600
      8 O           0.8120   -0.0840    6.1240 o         1 PAO     -0.864300
      9 OXT        -0.9970   -1.2940    5.6540 o         1 PAO     -0.864300
     10 C1          1.1750    0.5100   -1.7860 c         1 PAO      0.713100
     11 O1          2.3730    0.3990   -1.4020 o         1 PAO     -0.752100
     12 C1P         0.8080    0.9440   -3.1470 c3        1 PAO     -0.334600
     13 P          -0.2960   -0.1660   -4.2370 p5        1 PAO      1.204700
     14 O1P        -1.2610   -0.7150   -3.2120 o         1 PAO     -0.938833
     15 O2P        -0.8700    0.8620   -5.1800 o         1 PAO     -0.938833
     16 O3P         0.6270   -1.1590   -4.8850 o         1 PAO     -0.938833
     17 HN1         0.4540    2.2140    3.4980 hn        1 PAO      0.329800
     18 HN2         0.5950    1.9440    5.0880 hn        1 PAO      0.329800
     19 HA         -1.5840    0.5480    3.9830 h1        1 PAO      0.041700
     20 HB1         1.2620   -0.1890    2.9970 hc        1 PAO      0.037700
     21 HB2        -0.1880   -1.2660    2.9530 hc        1 PAO      0.037700
     22 HG1        -1.3870    0.3520    1.4840 hc        1 PAO      0.029200
     23 HG2         0.0010    1.4990    1.5560 hc        1 PAO      0.029200
     24 HD1         1.5140   -0.3210    0.5970 h1        1 PAO      0.026200
     25 HD2         0.0480   -1.3850    0.4280 h1        1 PAO      0.026200
     26 HNE        -0.7190   -0.0070   -1.3260 hn        1 PAO      0.352500
     27 HP1         0.1830    1.8610   -3.1190 hc        1 PAO      0.049200
     28 HP2         1.7210    1.1090   -3.7510 hc        1 PAO      0.049200
@<TRIPOS>BOND
     1    1    2 1   
     2    1   17 1   
     3    1   18 1   
     4    2    3 1   
     5    2    7 1   
     6    2   19 1   
     7    3    4 1   
     8    3   20 1   
     9    3   21 1   
    10    4    5 1   
    11    4   22 1   
    12    4   23 1   
    13    5    6 1   
    14    5   24 1   
    15    5   25 1   
    16    6   10 1   
    17    6   26 1   
    18    7    8 1   
    19    7    9 1   
    20   10   11 2   
    21   10   12 1   
    22   12   13 1   
    23   12   27 1   
    24   12   28 1   
    25   13   14 1   
    26   13   15 1   
    27   13   16 1   
@<TRIPOS>SUBSTRUCTURE
     1 PAO         1 TEMP              0 ****  ****    0 ROOT
