@<TRIPOS>MOLECULE
PAQ
   37    38     1     0     0
SMALL
bcc


@<TRIPOS>ATOM
      1 N          -2.1390    1.0000    3.6490 n3        1 PAQ     -0.888800
      2 CA         -1.3090    0.8520    2.4580 c3        1 PAQ      0.029500
      3 CB          0.0830    0.3030    2.8050 c3        1 PAQ     -0.046400
      4 CG          1.1980    0.9580    1.9800 c3        1 PAQ     -0.134500
      5 CD1         2.5370    0.4510    2.4690 c         1 PAQ      0.592300
      6 O2          2.9580    0.7410    3.6010 o         1 PAQ     -0.577100
      7 CD2         0.9440    0.7510    0.5370 c2        1 PAQ     -0.104200
      8 CE1         3.3140   -0.3890    1.5650 ce        1 PAQ     -0.391200
      9 CE2         1.7050   -0.0260   -0.2780 cf        1 PAQ      0.007000
     10 CZ          2.9230   -0.6210    0.2850 cf        1 PAQ      0.206100
     11 OH          3.6440   -1.4150   -0.5730 oh        1 PAQ     -0.501100
     12 N1          1.3770   -0.1970   -1.6690 nh        1 PAQ     -0.430800
     13 N2          0.1070   -0.7130   -1.9030 nh        1 PAQ     -0.599700
     14 C1         -0.5740   -0.2170   -3.0670 ca        1 PAQ      0.615200
     15 C2         -1.9920   -0.0380   -2.9720 ca        1 PAQ     -0.259300
     16 C3         -2.7070    0.2630   -4.1220 ca        1 PAQ     -0.089000
     17 C4         -2.0300    0.4070   -5.3380 ca        1 PAQ     -0.301300
     18 C5         -0.6380    0.2440   -5.3350 ca        1 PAQ      0.399200
     19 N3          0.0960   -0.0560   -4.2500 nb        1 PAQ     -0.699000
     20 C          -1.9710   -0.0690    1.3830 c         1 PAQ      0.885600
     21 O          -2.5760   -1.1030    1.7730 o         1 PAQ     -0.847800
     22 OXT        -1.8870    0.2820    0.1650 o         1 PAQ     -0.847800
     23 H          -2.2550    0.0920    4.0670 hn        1 PAQ      0.335800
     24 H2         -3.0500    1.3000    3.3520 hn        1 PAQ      0.335800
     25 HA         -1.1990    1.8820    2.0100 h1        1 PAQ      0.046700
     26 HB2         0.3280    0.4790    3.8870 hc        1 PAQ      0.056700
     27 HB3         0.0870   -0.8040    2.6290 hc        1 PAQ      0.056700
     28 HG          1.1710    2.0710    2.1840 hc        1 PAQ      0.089700
     29 HD2         0.0060    1.2230    0.1690 ha        1 PAQ      0.205000
     30 HE1         4.2360   -0.8260    1.9740 ha        1 PAQ      0.138000
     31 HH          4.3990   -1.7790   -0.0860 ho        1 PAQ      0.422000
     32 HN1         2.0330   -0.8450   -2.0940 hn        1 PAQ      0.389800
     33 HN2        -0.5060   -0.5880   -1.0900 hn        1 PAQ      0.454800
     34 HC2        -2.4900   -0.1180   -1.9860 ha        1 PAQ      0.205000
     35 H3         -3.7960    0.4010   -4.0730 ha        1 PAQ      0.126000
     36 H4         -2.5650    0.6490   -6.2630 ha        1 PAQ      0.122000
     37 H5         -0.0570    0.3630   -6.2660 h4        1 PAQ     -0.000900
@<TRIPOS>BOND
     1    1    2 1   
     2    1   23 1   
     3    1   24 1   
     4    2    3 1   
     5    2   20 1   
     6    2   25 1   
     7    3    4 1   
     8    3   26 1   
     9    3   27 1   
    10    4    5 1   
    11    4    7 1   
    12    4   28 1   
    13    5    6 2   
    14    5    8 1   
    15    7    9 2   
    16    7   29 1   
    17    8   10 2   
    18    8   30 1   
    19    9   10 1   
    20    9   12 1   
    21   10   11 1   
    22   11   31 1   
    23   12   13 1   
    24   12   32 1   
    25   13   14 1   
    26   13   33 1   
    27   14   15 ar  
    28   14   19 ar  
    29   15   16 ar  
    30   15   34 1   
    31   16   17 ar  
    32   16   35 1   
    33   17   18 ar  
    34   17   36 1   
    35   18   19 ar  
    36   18   37 1   
    37   20   21 1   
    38   20   22 1   
@<TRIPOS>SUBSTRUCTURE
     1 PAQ         1 TEMP              0 ****  ****    0 ROOT
