@<TRIPOS>MOLECULE
PAS
   18    17     1     0     0
SMALL
bcc


@<TRIPOS>ATOM
      1 N           1.5720    0.6280    2.3620 n3        1 PAS     -0.918800
      2 CA          0.1390    0.3890    2.3240 c3        1 PAS      0.065500
      3 CB         -0.3520   -0.5110    1.1780 c3        1 PAS     -0.170400
      4 CG          0.1080   -0.1300   -0.2120 c         1 PAS      0.658100
      5 OD1         1.2750    0.1910   -0.5220 o         1 PAS     -0.655000
      6 P1         -0.1770   -0.0020   -2.8390 p5        1 PAS      1.320900
      7 O1         -1.4980   -0.2460   -3.5230 o         1 PAS     -0.925167
      8 O2          0.2990    1.4180   -2.9460 o         1 PAS     -0.925167
      9 O3          0.8070   -1.1230   -3.0130 o         1 PAS     -0.925167
     10 O4         -0.7770   -0.1970   -1.1720 os        1 PAS     -0.497500
     11 C          -0.3640   -0.2190    3.6680 c         1 PAS      0.913600
     12 O           0.2230   -1.2330    4.1550 o         1 PAS     -0.881800
     13 OXT        -1.3480    0.3320    4.2490 o         1 PAS     -0.881800
     14 H           1.9010    0.7980    1.4260 hn        1 PAS      0.343300
     15 HN2         2.0220   -0.2030    2.7010 hn        1 PAS      0.343300
     16 HA         -0.3510    1.3990    2.2010 h1        1 PAS      0.041700
     17 HB1         0.0020   -1.5590    1.3650 hc        1 PAS      0.046700
     18 HB2        -1.4720   -0.5170    1.1980 hc        1 PAS      0.046700
@<TRIPOS>BOND
     1    1    2 1   
     2    1   14 1   
     3    1   15 1   
     4    2    3 1   
     5    2   11 1   
     6    2   16 1   
     7    3    4 1   
     8    3   17 1   
     9    3   18 1   
    10    4    5 2   
    11    4   10 1   
    12    6    7 1   
    13    6    8 1   
    14    6    9 1   
    15    6   10 1   
    16   11   12 1   
    17   11   13 1   
@<TRIPOS>SUBSTRUCTURE
     1 PAS         1 TEMP              0 ****  ****    0 ROOT
