@<TRIPOS>MOLECULE
PAS
   18    16     1     0     0
SMALL
bcc


@<TRIPOS>ATOM
      1 N          -2.5100   -0.9490   -0.6830 n3        1 PAS     -0.912800
      2 CA         -1.1240   -0.6410   -0.7890 c3        1 PAS      0.080500
      3 CB         -0.5030   -0.6350    0.5880 c3        1 PAS     -0.129400
      4 CG          0.7410    0.2270    0.5760 c         1 PAS      0.649100
      5 OD1         1.6990   -0.1000   -0.0940 o         1 PAS     -0.655000
      6 P1          2.1510    2.2030    1.4090 p4        1 PAS      1.690200
      7 O1          2.5590    2.5890    0.0080 os        1 PAS     -1.239000
      8 O2          3.2270    1.3440    2.0280 o         1 PAS     -0.928500
      9 O3          1.9610    3.4500    2.2400 o         1 PAS     -0.977300
     10 O4          0.7950    1.3930    1.3580 os        1 PAS     -0.501500
     11 C          -0.4420   -1.6830   -1.6450 c         1 PAS      0.914600
     12 O           0.2320   -1.3300   -2.6490 o         1 PAS     -0.887800
     13 OXT        -0.5640   -2.9050   -1.3670 o         1 PAS     -0.887800
     14 H          -2.8410   -1.1540   -1.5110 hn        1 PAS      0.344800
     15 HN2        -2.9580   -0.2250   -0.3460 hn        1 PAS      0.344800
     16 HA         -1.0170    0.2390   -1.1990 h1        1 PAS     -0.000300
     17 HB1        -0.2640   -1.5490    0.8420 hc        1 PAS      0.046200
     18 HB2        -1.1430   -0.2740    1.2340 hc        1 PAS      0.046200
@<TRIPOS>BOND
     1    1    2 1   
     2    1   14 1   
     3    1   15 1   
     4    2    3 1   
     5    2   11 1   
     6    2   16 1   
     7    3    4 1   
     8    3   17 1   
     9    3   18 1   
    10    4    5 2   
    11    4   10 1   
    12    6    8 1   
    13    6    9 2   
    14    6   10 1   
    15   11   12 1   
    16   11   13 1   
@<TRIPOS>SUBSTRUCTURE
     1 PAS         1 TEMP              0 ****  ****    0 ROOT
