@<TRIPOS>MOLECULE
PAT
   29    30     1     0     0
SMALL
bcc


@<TRIPOS>ATOM
      1 N           2.5810   -0.0270    0.3880 n3        1 PAT     -0.896800
      2 CA          1.6830   -0.8170    1.2230 c3        1 PAT     -0.058000
      3 C           2.2950   -2.2080    1.5170 c         1 PAT      0.928600
      4 O           1.5950   -3.2250    1.8390 o         1 PAT     -0.933800
      5 CB          0.3450   -0.9520    0.4980 c3        1 PAT      0.012800
      6 CG         -0.7250   -1.7930    1.0650 cc        1 PAT      0.039600
      7 CD1        -0.9200   -3.1510    0.9200 cd        1 PAT     -0.196100
      8 CD2        -1.9230   -1.2770    1.7390 ca        1 PAT     -0.052800
      9 NE1        -2.2250   -3.5700    1.3670 na        1 PAT     -0.196400
     10 CE2        -2.8140   -2.3950    1.9290 ca        1 PAT     -0.102200
     11 CE3        -2.2560   -0.0160    2.2210 ca        1 PAT     -0.052000
     12 CZ2        -4.0660   -2.2110    2.5170 ca        1 PAT     -0.195000
     13 CZ3        -3.5140    0.1460    2.8080 ca        1 PAT     -0.190000
     14 CH2        -4.4040   -0.9240    2.9410 ca        1 PAT     -0.172000
     15 OXT         3.5560   -2.3850    1.3560 o         1 PAT     -0.933800
     16 P           1.2540    0.7460    2.5390 p5        1 PAT      1.201700
     17 O1P         0.2480    1.5850    1.7720 o         1 PAT     -0.921167
     18 O2P         0.6270    0.1660    3.7700 o         1 PAT     -0.921167
     19 O3P         2.5720    1.4390    2.7670 o         1 PAT     -0.921167
     20 H           3.2300    0.4270    1.0130 hn        1 PAT      0.312300
     21 H2          3.1340   -0.6420   -0.1890 hn        1 PAT      0.312300
     22 HB2         0.5220   -1.3610   -0.5440 hc        1 PAT      0.020700
     23 HB3        -0.0720    0.0930    0.3780 hc        1 PAT      0.020700
     24 HD1        -0.1840   -3.8910    0.5970 h4        1 PAT      0.185000
     25 HE1        -2.2060   -4.3430    1.9980 hn        1 PAT      0.208700
     26 HE3        -1.4560    0.7880    2.1800 ha        1 PAT      0.275000
     27 HZ2        -4.7580   -3.0490    2.6620 ha        1 PAT      0.075000
     28 HZ3        -3.7980    1.1320    3.2000 ha        1 PAT      0.091000
     29 HH2        -5.3840   -0.7600    3.4120 ha        1 PAT      0.063000
@<TRIPOS>BOND
     1    1    2 1   
     2    1   20 1   
     3    1   21 1   
     4    2    3 1   
     5    2    5 1   
     6    2   16 1   
     7    3    4 1   
     8    3   15 1   
     9    5    6 1   
    10    5   22 1   
    11    5   23 1   
    12    6    7 2   
    13    6    8 1   
    14    7    9 1   
    15    7   24 1   
    16    8   10 ar  
    17    8   11 ar  
    18    9   10 1   
    19    9   25 1   
    20   10   12 ar  
    21   11   13 ar  
    22   11   26 1   
    23   12   14 ar  
    24   12   27 1   
    25   13   14 ar  
    26   13   28 1   
    27   14   29 1   
    28   16   17 1   
    29   16   18 1   
    30   16   19 1   
@<TRIPOS>SUBSTRUCTURE
     1 PAT         1 TEMP              0 ****  ****    0 ROOT
