@<TRIPOS>MOLECULE
PAU
   31    30     1     0     0
SMALL
bcc


@<TRIPOS>ATOM
      1 O2         -3.8530    0.4000   -0.5740 oh        1 PAU     -0.607800
      2 C1         -1.9170    0.4580    0.9170 c3        1 PAU     -0.111000
      3 C2         -2.3990    0.4290   -0.5430 c3        1 PAU      0.123400
      4 C3         -2.2130   -0.8770    1.5670 c3        1 PAU     -0.093600
      5 C4         -2.6430    1.5580    1.6700 c3        1 PAU     -0.093600
      6 C5         -0.3760    0.7260    0.9530 c3        1 PAU      0.071100
      7 O5'         0.0760    0.6620    2.2730 oh        1 PAU     -0.594800
      8 C6          0.3440   -0.3240    0.1160 c         1 PAU      0.617100
      9 O6'        -0.0670   -1.4720    0.0930 o         1 PAU     -0.644100
     10 N           1.5160    0.0500   -0.6750 n         1 PAU     -0.533900
     11 C8          2.4220   -0.9630   -1.1460 c3        1 PAU      0.079000
     12 C9          3.6920   -0.3100   -1.6500 c3        1 PAU     -0.223400
     13 C           4.6370   -1.3680   -2.1450 c         1 PAU      0.914600
     14 OXT         5.5240   -1.8330   -1.3750 o         1 PAU     -0.841800
     15 O           4.5440   -1.7880   -3.3160 o         1 PAU     -0.841800
     16 HO         -4.1370    0.4730   -1.4300 ho        1 PAU      0.398000
     17 H21        -2.0810    1.2210   -1.0080 h1        1 PAU      0.068200
     18 H22        -2.0510   -0.3670   -0.9810 h1        1 PAU      0.068200
     19 H31        -2.1480   -1.5880    0.8940 hc        1 PAU      0.041700
     20 H32        -3.1170   -0.8630    1.9420 hc        1 PAU      0.041700
     21 H33        -1.5620   -1.0440    2.2850 hc        1 PAU      0.041700
     22 H41        -3.6080    1.3690    1.6720 hc        1 PAU      0.041700
     23 H42        -2.4780    2.4230    1.2290 hc        1 PAU      0.041700
     24 H43        -2.3140    1.5930    2.5960 hc        1 PAU      0.041700
     25 H5         -0.1900    1.6130    0.5890 h1        1 PAU      0.092700
     26 H5'         0.4780    1.4250    2.4860 ho        1 PAU      0.403000
     27 H           1.6880    0.9400   -0.8510 hn        1 PAU      0.300500
     28 H81         2.0060   -1.4580   -1.8690 h1        1 PAU      0.073700
     29 H82         2.6390   -1.5770   -0.4090 h1        1 PAU      0.073700
     30 H91         4.1120    0.1890   -0.9250 hc        1 PAU      0.027700
     31 H92         3.4760    0.3030   -2.3840 hc        1 PAU      0.027700
@<TRIPOS>BOND
     1    1    3 1   
     2    1   16 1   
     3    2    3 1   
     4    2    4 1   
     5    2    5 1   
     6    2    6 1   
     7    3   17 1   
     8    3   18 1   
     9    4   19 1   
    10    4   20 1   
    11    4   21 1   
    12    5   22 1   
    13    5   23 1   
    14    5   24 1   
    15    6    7 1   
    16    6    8 1   
    17    6   25 1   
    18    7   26 1   
    19    8    9 2   
    20    8   10 1   
    21   10   11 1   
    22   10   27 1   
    23   11   12 1   
    24   11   28 1   
    25   11   29 1   
    26   12   13 1   
    27   12   30 1   
    28   12   31 1   
    29   13   14 1   
    30   13   15 1   
@<TRIPOS>SUBSTRUCTURE
     1 PAU         1 TEMP              0 ****  ****    0 ROOT
