@<TRIPOS>MOLECULE
PAU
   31    30     1     0     0
SMALL
bcc


@<TRIPOS>ATOM
      1 O2          2.9080    2.1940    1.3670 oh        1 PAU     -0.603800
      2 C1          2.3890    0.5060   -0.3400 c3        1 PAU     -0.112000
      3 C2          2.5830    0.8360    1.1480 c3        1 PAU      0.124400
      4 C3          1.3580    1.4350   -0.9580 c3        1 PAU     -0.094600
      5 C4          3.7160    0.6740   -1.0650 c3        1 PAU     -0.094600
      6 C5          1.9370   -0.9640   -0.4820 c3        1 PAU      0.073100
      7 O5'         2.8690   -1.8410    0.1200 oh        1 PAU     -0.600800
      8 C6          0.5460   -1.1870    0.1440 c         1 PAU      0.611100
      9 O6'         0.4970   -1.5620    1.3380 o         1 PAU     -0.638100
     10 N          -0.5540   -1.0500   -0.6600 n         1 PAU     -0.518900
     11 C8         -1.8990   -0.8980   -0.1390 c3        1 PAU      0.071000
     12 C9         -2.3930    0.5400   -0.0830 c3        1 PAU     -0.230400
     13 C          -3.9340    0.5940   -0.1730 c         1 PAU      0.914600
     14 OXT        -4.5190    1.4950    0.4890 o         1 PAU     -0.840300
     15 O          -4.5180   -0.2390   -0.9230 o         1 PAU     -0.840300
     16 HO          2.1310    2.7140    1.1280 ho        1 PAU      0.400000
     17 H21         3.4660    0.2680    1.5490 h1        1 PAU      0.060200
     18 H22         1.6600    0.5530    1.7230 h1        1 PAU      0.060200
     19 H31         1.7810    2.4660   -1.0480 hc        1 PAU      0.042367
     20 H32         1.0800    1.0850   -1.9820 hc        1 PAU      0.042367
     21 H33         0.4330    1.4860   -0.3310 hc        1 PAU      0.042367
     22 H41         4.4290   -0.1230   -0.7420 hc        1 PAU      0.042367
     23 H42         3.5700    0.5980   -2.1690 hc        1 PAU      0.042367
     24 H43         4.1530    1.6730   -0.8230 hc        1 PAU      0.042367
     25 H5          1.9490   -1.2480   -1.5730 h1        1 PAU      0.077700
     26 H5'         2.6620   -1.8830    1.0670 ho        1 PAU      0.425000
     27 H          -0.4030   -0.6250   -1.5490 hn        1 PAU      0.291500
     28 H81        -2.5860   -1.4860   -0.8190 h1        1 PAU      0.080200
     29 H82        -1.9380   -1.3550    0.8890 h1        1 PAU      0.080200
     30 H91        -2.0590    1.0340    0.8620 hc        1 PAU      0.025700
     31 H92        -2.0000    1.1400   -0.9430 hc        1 PAU      0.025700
@<TRIPOS>BOND
     1    1    3 1   
     2    1   16 1   
     3    2    3 1   
     4    2    4 1   
     5    2    5 1   
     6    2    6 1   
     7    3   17 1   
     8    3   18 1   
     9    4   19 1   
    10    4   20 1   
    11    4   21 1   
    12    5   22 1   
    13    5   23 1   
    14    5   24 1   
    15    6    7 1   
    16    6    8 1   
    17    6   25 1   
    18    7   26 1   
    19    8    9 2   
    20    8   10 1   
    21   10   11 1   
    22   10   27 1   
    23   11   12 1   
    24   11   28 1   
    25   11   29 1   
    26   12   13 1   
    27   12   30 1   
    28   12   31 1   
    29   13   14 1   
    30   13   15 1   
@<TRIPOS>SUBSTRUCTURE
     1 PAU         1 TEMP              0 ****  ****    0 ROOT
