@<TRIPOS>MOLECULE
PAV
   20    20     1     0     0
SMALL
bcc


@<TRIPOS>ATOM
      1 O3         -0.0330   -1.4360    1.1430 oh        1 PAV     -0.620800
      2 C4         -0.0730   -0.0350    0.9720 c3        1 PAV      0.293600
      3 C11         0.4090    0.7210    2.1930 c3        1 PAV     -0.105100
      4 O5         -1.4520    0.2530    0.7530 os        1 PAV     -0.440600
      5 C6         -1.7320    0.4310   -0.6390 c3        1 PAV      0.101400
      6 C7         -0.4090    0.4850   -1.4150 c3        1 PAV      0.079100
      7 O12        -0.3000   -0.5880   -2.3310 oh        1 PAV     -0.589800
      8 C8          0.7070    0.2730   -0.3510 c3        1 PAV      0.368600
      9 O1          1.4770    1.4410   -0.2520 oh        1 PAV     -0.598300
     10 O13         1.6430   -0.7120   -0.6770 oh        1 PAV     -0.598300
     11 HO3        -0.6970   -1.6640    1.8060 ho        1 PAV      0.426000
     12 H111       -0.2830    0.5470    3.0500 hc        1 PAV      0.059033
     13 H112        1.4310    0.3620    2.4600 hc        1 PAV      0.059033
     14 H113        0.4470    1.8130    1.9660 hc        1 PAV      0.059033
     15 H61        -2.3630   -0.4340   -0.9710 h1        1 PAV      0.059200
     16 H62        -2.3060    1.3890   -0.7200 h1        1 PAV      0.059200
     17 H7         -0.2680    1.4700   -1.9320 h1        1 PAV      0.078700
     18 H12        -0.8940   -0.3890   -3.0650 ho        1 PAV      0.412000
     19 HO1         2.4010    1.1810   -0.1150 ho        1 PAV      0.449000
     20 H13         1.1700   -1.5440   -0.8250 ho        1 PAV      0.449000
@<TRIPOS>BOND
     1    1    2 1   
     2    1   11 1   
     3    2    3 1   
     4    2    4 1   
     5    2    8 1   
     6    3   12 1   
     7    3   13 1   
     8    3   14 1   
     9    4    5 1   
    10    5    6 1   
    11    5   15 1   
    12    5   16 1   
    13    6    7 1   
    14    6    8 1   
    15    6   17 1   
    16    7   18 1   
    17    8    9 1   
    18    8   10 1   
    19    9   19 1   
    20   10   20 1   
@<TRIPOS>SUBSTRUCTURE
     1 PAV         1 TEMP              0 ****  ****    0 ROOT
