@<TRIPOS>MOLECULE
PAV
   20    20     1     0     0
SMALL
bcc


@<TRIPOS>ATOM
      1 O3          1.3360    0.3630   -0.1700 oh        1 PAV     -0.620800
      2 C4         -0.0490    0.1720    0.0290 c3        1 PAV      0.293600
      3 C11        -0.4190    0.0240    1.4910 c3        1 PAV     -0.105100
      4 O5         -0.3370   -1.0450   -0.6560 os        1 PAV     -0.440600
      5 C6         -0.9160   -0.7940   -1.9400 c3        1 PAV      0.101400
      6 C7         -1.2520    0.6980   -2.0580 c3        1 PAV      0.079100
      7 O12        -0.5090    1.3170   -3.0920 oh        1 PAV     -0.589800
      8 C8         -0.7710    1.3400   -0.7230 c3        1 PAV      0.368600
      9 O1         -1.8830    1.8190   -0.0160 oh        1 PAV     -0.598300
     10 O13         0.0340    2.4720   -0.8780 oh        1 PAV     -0.598300
     11 HO3         1.7780   -0.4590    0.0770 ho        1 PAV      0.426000
     12 H111       -0.0350    0.9080    2.0520 hc        1 PAV      0.059033
     13 H112        0.0320   -0.9070    1.9080 hc        1 PAV      0.059033
     14 H113       -1.5290   -0.0270    1.5920 hc        1 PAV      0.059033
     15 H61        -0.1690   -1.1050   -2.7150 h1        1 PAV      0.059200
     16 H62        -1.8310   -1.4360   -1.9980 h1        1 PAV      0.059200
     17 H7         -2.3510    0.8700   -2.1950 h1        1 PAV      0.078700
     18 H12        -0.8980    1.0260   -3.9260 ho        1 PAV      0.412000
     19 HO1        -1.6290    2.6490    0.4170 ho        1 PAV      0.449000
     20 H13         0.8000    2.2290   -1.4190 ho        1 PAV      0.449000
@<TRIPOS>BOND
     1    1    2 1   
     2    1   11 1   
     3    2    3 1   
     4    2    4 1   
     5    2    8 1   
     6    3   12 1   
     7    3   13 1   
     8    3   14 1   
     9    4    5 1   
    10    5    6 1   
    11    5   15 1   
    12    5   16 1   
    13    6    7 1   
    14    6    8 1   
    15    6   17 1   
    16    7   18 1   
    17    8    9 1   
    18    8   10 1   
    19    9   19 1   
    20   10   20 1   
@<TRIPOS>SUBSTRUCTURE
     1 PAV         1 TEMP              0 ****  ****    0 ROOT
