@<TRIPOS>MOLECULE
PAV
   20    20     1     0     0
SMALL
bcc


@<TRIPOS>ATOM
      1 O3          1.3190    0.3740   -0.1130 oh        1 PAV     -0.620800
      2 C4         -0.0690    0.1700    0.0410 c3        1 PAV      0.293600
      3 C11        -0.4840    0.0080    1.4900 c3        1 PAV     -0.105100
      4 O5         -0.3250   -1.0430   -0.6620 os        1 PAV     -0.440600
      5 C6         -0.8660   -0.7870   -1.9620 c3        1 PAV      0.101400
      6 C7         -1.2110    0.7030   -2.0790 c3        1 PAV      0.079100
      7 O12        -0.4420    1.3360   -3.0840 oh        1 PAV     -0.589800
      8 C8         -0.7770    1.3380   -0.7250 c3        1 PAV      0.368600
      9 O1         -1.9150    1.8020   -0.0490 oh        1 PAV     -0.598300
     10 O13         0.0220    2.4780   -0.8460 oh        1 PAV     -0.598300
     11 HO3         1.7610   -0.4460    0.1410 ho        1 PAV      0.426000
     12 H111       -1.5960   -0.0530    1.5550 hc        1 PAV      0.059033
     13 H112       -0.1250    0.8910    2.0690 hc        1 PAV      0.059033
     14 H113       -0.0380   -0.9230    1.9130 hc        1 PAV      0.059033
     15 H61        -0.0920   -1.0860   -2.7150 h1        1 PAV      0.059200
     16 H62        -1.7740   -1.4370   -2.0530 h1        1 PAV      0.059200
     17 H7         -2.3070    0.8660   -2.2480 h1        1 PAV      0.078700
     18 H12        -0.8030    1.0490   -3.9320 ho        1 PAV      0.412000
     19 HO1        -1.6820    2.6310    0.3980 ho        1 PAV      0.449000
     20 H13         0.8070    2.2450   -1.3650 ho        1 PAV      0.449000
@<TRIPOS>BOND
     1    1    2 1   
     2    1   11 1   
     3    2    3 1   
     4    2    4 1   
     5    2    8 1   
     6    3   12 1   
     7    3   13 1   
     8    3   14 1   
     9    4    5 1   
    10    5    6 1   
    11    5   15 1   
    12    5   16 1   
    13    6    7 1   
    14    6    8 1   
    15    6   17 1   
    16    7   18 1   
    17    8    9 1   
    18    8   10 1   
    19    9   19 1   
    20   10   20 1   
@<TRIPOS>SUBSTRUCTURE
     1 PAV         1 TEMP              0 ****  ****    0 ROOT
