@<TRIPOS>MOLECULE
PAV
   20    20     1     0     0
SMALL
bcc


@<TRIPOS>ATOM
      1 O3          2.1590   -0.3660    0.4340 oh        1 PAV     -0.620800
      2 C4          0.7520   -0.3660    0.4340 c3        1 PAV      0.293600
      3 C11         0.2220   -0.3660    1.8830 c3        1 PAV     -0.105100
      4 O5          0.2050   -1.6410   -0.3480 os        1 PAV     -0.440600
      5 C6         -0.9640   -1.3460   -0.7250 c3        1 PAV      0.101400
      6 C7         -0.9660    0.1730   -0.8550 c3        1 PAV      0.079100
      7 O12        -0.9710    0.5370   -2.1770 oh        1 PAV     -0.589800
      8 C8          0.3200    0.6420   -0.1840 c3        1 PAV      0.368600
      9 O1          1.2520    1.0590   -1.1520 oh        1 PAV     -0.598300
     10 O13         0.0470    1.6880    0.7170 oh        1 PAV     -0.598300
     11 HO3         2.4550   -1.1900    0.5810 ho        1 PAV      0.426000
     12 H111       -0.7180   -0.0990    1.8850 hc        1 PAV      0.059033
     13 H112        0.7400    0.2640    2.4200 hc        1 PAV      0.059033
     14 H113        0.3060   -1.2620    2.2610 hc        1 PAV      0.059033
     15 H61        -1.1570   -1.7610   -1.5870 h1        1 PAV      0.059200
     16 H62        -1.6170   -1.6300   -0.0570 h1        1 PAV      0.059200
     17 H7         -1.7420    0.5500   -0.3980 h1        1 PAV      0.078700
     18 H12        -1.7940    0.7670   -2.4170 ho        1 PAV      0.412000
     19 HO1         1.5000    1.8950   -0.9830 ho        1 PAV      0.449000
     20 H13        -0.0310    2.4510    0.2690 ho        1 PAV      0.449000
@<TRIPOS>BOND
     1    1    2 1   
     2    1   11 1   
     3    2    3 1   
     4    2    4 1   
     5    2    8 1   
     6    3   12 1   
     7    3   13 1   
     8    3   14 1   
     9    4    5 1   
    10    5    6 1   
    11    5   15 1   
    12    5   16 1   
    13    6    7 1   
    14    6    8 1   
    15    6   17 1   
    16    7   18 1   
    17    8    9 1   
    18    8   10 1   
    19    9   19 1   
    20   10   20 1   
@<TRIPOS>SUBSTRUCTURE
     1 PAV         1 TEMP              0 ****  ****    0 ROOT
