@<TRIPOS>MOLECULE
PAW
   36    35     1     0     0
SMALL
bcc


@<TRIPOS>ATOM
      1 N1         -6.0430   -0.5670   -3.7920 n3        1 PAW     -0.916800
      2 C2         -4.6180   -0.7250   -3.7750 c3        1 PAW      0.155300
      3 C3         -4.1190   -0.6800   -2.3460 c3        1 PAW      0.161300
      4 C5         -2.1920   -0.5850   -0.9900 c3        1 PAW      0.161300
      5 C6         -0.6540   -0.5160   -0.9970 c3        1 PAW      0.161800
      6 N4         -2.6680   -0.7610   -2.3320 n3        1 PAW     -0.824200
      7 N7         -0.1530   -0.4000    0.3870 n3        1 PAW     -0.823200
      8 C8          1.2720   -0.1350    0.3580 c3        1 PAW      0.161800
      9 C9          1.7350    0.2320    1.7420 c3        1 PAW      0.161300
     10 N10         3.1710    0.4100    1.7480 n3        1 PAW     -0.824200
     11 C11         3.5800    0.9190    3.0180 c3        1 PAW      0.161300
     12 C12         5.0580    1.3180    2.9510 c3        1 PAW      0.155300
     13 N13         5.4520    1.9280    4.1960 n3        1 PAW     -0.916800
     14 HN11       -6.4370   -1.3120   -4.2280 hn        1 PAW      0.350550
     15 HN12       -6.2650    0.2230   -4.2580 hn        1 PAW      0.350550
     16 H21        -4.3840   -1.5760   -4.1710 h1        1 PAW      0.031200
     17 H22        -4.2080   -0.0070   -4.2830 h1        1 PAW      0.031200
     18 H31        -4.4960   -1.4420   -1.8440 h1        1 PAW      0.036700
     19 H32        -4.4090    0.1830   -1.9170 h1        1 PAW      0.036700
     20 H51        -2.5660    0.2740   -0.6110 h1        1 PAW      0.036200
     21 H52        -2.4780   -1.3250   -0.4480 h1        1 PAW      0.036200
     22 H61        -0.2870   -1.3420   -1.4130 h1        1 PAW      0.035950
     23 H62        -0.3540    0.2940   -1.5330 h1        1 PAW      0.035950
     24 HN4        -2.3930   -1.6040   -2.6580 hn        1 PAW      0.353800
     25 HN7        -0.3070   -1.1810    0.8350 hn        1 PAW      0.353800
     26 H81         1.4540    0.6030   -0.2560 h1        1 PAW      0.035950
     27 H82         1.7460   -0.9330    0.0550 h1        1 PAW      0.035950
     28 H91         1.3120    1.0490    2.0130 h1        1 PAW      0.036200
     29 H92         1.4850   -0.5070    2.3850 h1        1 PAW      0.036200
     30 HN10        3.5880   -0.4090    1.5910 hn        1 PAW      0.353800
     31 H111        3.4650    0.2550    3.6720 h1        1 PAW      0.036700
     32 H112        3.0250    1.7200    3.2520 h1        1 PAW      0.036700
     33 H121        5.6130    0.5110    2.7880 h1        1 PAW      0.031200
     34 H122        5.1920    1.9640    2.2120 h1        1 PAW      0.031200
     35 H131        6.0680    1.3930    4.6170 hn        1 PAW      0.350550
     36 H132        5.8160    2.7290    4.0330 hn        1 PAW      0.350550
@<TRIPOS>BOND
     1    1    2 1   
     2    1   14 1   
     3    1   15 1   
     4    2    3 1   
     5    2   16 1   
     6    2   17 1   
     7    3    6 1   
     8    3   18 1   
     9    3   19 1   
    10    4    5 1   
    11    4    6 1   
    12    4   20 1   
    13    4   21 1   
    14    5    7 1   
    15    5   22 1   
    16    5   23 1   
    17    6   24 1   
    18    7    8 1   
    19    7   25 1   
    20    8    9 1   
    21    8   26 1   
    22    8   27 1   
    23    9   10 1   
    24    9   28 1   
    25    9   29 1   
    26   10   11 1   
    27   10   30 1   
    28   11   12 1   
    29   11   31 1   
    30   11   32 1   
    31   12   13 1   
    32   12   33 1   
    33   12   34 1   
    34   13   35 1   
    35   13   36 1   
@<TRIPOS>SUBSTRUCTURE
     1 PAW         1 TEMP              0 ****  ****    0 ROOT
