@<TRIPOS>MOLECULE
PAW
   41    40     1     0     0
SMALL
bcc


@<TRIPOS>ATOM
      1 N1         -0.2220    0.0610   -0.1690 n4        1 PAW     -0.836600
      2 C2          1.2640    0.0320   -0.1230 c3        1 PAW      0.078800
      3 C3          1.8450    0.0180    1.3170 c3        1 PAW      0.082800
      4 C5          3.9100   -0.0240    2.7110 c3        1 PAW      0.084800
      5 C6          5.4670   -0.0570    2.7490 c3        1 PAW      0.084800
      6 N4          3.3530   -0.0130    1.3170 n4        1 PAW     -0.760000
      7 N7          6.0220   -0.0660    4.1500 n4        1 PAW     -0.760000
      8 C8          7.5280   -0.1010    4.1540 c3        1 PAW      0.084800
      9 C9          8.1330   -0.1080    5.5890 c3        1 PAW      0.084800
     10 N10         9.6340   -0.1440    5.5970 n4        1 PAW     -0.760000
     11 C11        10.1870   -0.1480    7.0010 c3        1 PAW      0.082800
     12 C12        11.7390   -0.1870    7.0150 c3        1 PAW      0.078800
     13 N13        12.3250   -0.1910    8.3800 n4        1 PAW     -0.836600
     14 HN11       -0.6040    0.9070    0.2820 hn        1 PAW      0.504133
     15 HN12       -0.5250    0.0700   -1.1650 hn        1 PAW      0.504133
     16 H21         1.6350    0.9450   -0.6840 hx        1 PAW      0.148700
     17 H22         1.5980   -0.8940   -0.6880 hx        1 PAW      0.148700
     18 H31         1.4800   -0.8970    1.8750 hx        1 PAW      0.145700
     19 H32         1.5170    0.9450    1.8790 hx        1 PAW      0.145700
     20 H51         3.4900   -0.9350    3.2380 hx        1 PAW      0.147700
     21 H52         3.5290    0.9050    3.2370 hx        1 PAW      0.147700
     22 H61         5.8860    0.8540    2.2220 hx        1 PAW      0.147700
     23 H62         5.8470   -0.9870    2.2260 hx        1 PAW      0.147700
     24 HN4         3.7040    0.8170    0.8090 hn        1 PAW      0.483800
     25 HN7         5.6990    0.7790    4.6490 hn        1 PAW      0.483800
     26 H81         7.8490   -1.0320    3.5940 hx        1 PAW      0.147700
     27 H82         7.8910    0.8100    3.5860 hx        1 PAW      0.147700
     28 H91         7.7690   -1.0160    6.1590 hx        1 PAW      0.147700
     29 H92         7.8130    0.8230    6.1500 hx        1 PAW      0.147700
     30 HN10        9.9640   -0.9910    5.1060 hn        1 PAW      0.483800
     31 H111        9.8160    0.7870    7.5220 hx        1 PAW      0.145700
     32 H112        9.7690   -1.0550    7.5350 hx        1 PAW      0.145700
     33 H121       12.1100   -1.1210    6.4880 hx        1 PAW      0.148700
     34 H122       12.1570    0.7180    6.4730 hx        1 PAW      0.148700
     35 H131       12.0750    0.6590    8.9090 hn        1 PAW      0.504133
     36 H132       13.3630   -0.2180    8.2980 hn        1 PAW      0.504133
     37 H13        -0.6370   -0.7710    0.2790 hn        1 PAW      0.504133
     38 H42         3.6700   -0.8550    0.8090 hn        1 PAW      0.483800
     39 H72         5.6610   -0.8930    4.6540 hn        1 PAW      0.483800
     40 H102       10.0040    0.6800    5.0950 hn        1 PAW      0.483800
     41 H133       12.0320   -1.0180    8.9230 hn        1 PAW      0.504133
@<TRIPOS>BOND
     1    1    2 1   
     2    1   14 1   
     3    1   15 1   
     4    1   37 1   
     5    2    3 1   
     6    2   16 1   
     7    2   17 1   
     8    3    6 1   
     9    3   18 1   
    10    3   19 1   
    11    4    5 1   
    12    4    6 1   
    13    4   20 1   
    14    4   21 1   
    15    5    7 1   
    16    5   22 1   
    17    5   23 1   
    18    6   24 1   
    19    6   38 1   
    20    7    8 1   
    21    7   25 1   
    22    7   39 1   
    23    8    9 1   
    24    8   26 1   
    25    8   27 1   
    26    9   10 1   
    27    9   28 1   
    28    9   29 1   
    29   10   11 1   
    30   10   30 1   
    31   10   40 1   
    32   11   12 1   
    33   11   31 1   
    34   11   32 1   
    35   12   13 1   
    36   12   33 1   
    37   12   34 1   
    38   13   35 1   
    39   13   36 1   
    40   13   41 1   
@<TRIPOS>SUBSTRUCTURE
     1 PAW         1 TEMP              0 ****  ****    0 ROOT
