@<TRIPOS>MOLECULE
PAW
   41    40     1     0     0
SMALL
bcc


@<TRIPOS>ATOM
      1 N1         -0.2220    0.0610   -0.1690 n4        1 PAW     -0.836600
      2 C2          1.2630    0.0270   -0.1230 c3        1 PAW      0.078800
      3 C3          1.8450    0.0190    1.3170 c3        1 PAW      0.082800
      4 C5          3.9100   -0.0230    2.7110 c3        1 PAW      0.084800
      5 C6          5.4670   -0.0580    2.7490 c3        1 PAW      0.084800
      6 N4          3.3530   -0.0150    1.3170 n4        1 PAW     -0.760000
      7 N7          6.0220   -0.0660    4.1490 n4        1 PAW     -0.760000
      8 C8          7.5280   -0.0990    4.1530 c3        1 PAW      0.084800
      9 C9          8.1330   -0.1080    5.5890 c3        1 PAW      0.084800
     10 N10         9.6340   -0.1420    5.5970 n4        1 PAW     -0.760000
     11 C11        10.1870   -0.1500    7.0010 c3        1 PAW      0.082800
     12 C12        11.7390   -0.1840    7.0150 c3        1 PAW      0.078800
     13 N13        12.3250   -0.1930    8.3800 n4        1 PAW     -0.836600
     14 HN11       -0.5250    0.0640   -1.1650 hn        1 PAW      0.504133
     15 HN12       -0.6390   -0.7680    0.2830 hn        1 PAW      0.504133
     16 H21         1.6370    0.9370   -0.6900 hx        1 PAW      0.148700
     17 H22         1.5950   -0.9020   -0.6830 hx        1 PAW      0.148700
     18 H31         1.4780   -0.8920    1.8800 hx        1 PAW      0.145700
     19 H32         1.5190    0.9500    1.8740 hx        1 PAW      0.145700
     20 H51         3.5300    0.9080    3.2340 hx        1 PAW      0.147700
     21 H52         3.4890   -0.9320    3.2400 hx        1 PAW      0.147700
     22 H61         5.8870    0.8520    2.2210 hx        1 PAW      0.147700
     23 H62         5.8460   -0.9890    2.2270 hx        1 PAW      0.147700
     24 HN4         3.6680   -0.8600    0.8120 hn        1 PAW      0.483800
     25 HN7         5.6610   -0.8920    4.6540 hn        1 PAW      0.483800
     26 H81         7.8500   -1.0300    3.5920 hx        1 PAW      0.147700
     27 H82         7.8910    0.8120    3.5860 hx        1 PAW      0.147700
     28 H91         7.7700   -1.0180    6.1570 hx        1 PAW      0.147700
     29 H92         7.8110    0.8210    6.1510 hx        1 PAW      0.147700
     30 HN10        9.9660   -0.9870    5.1030 hn        1 PAW      0.483800
     31 H111        9.8130    0.7820    7.5250 hx        1 PAW      0.145700
     32 H112        9.7720   -1.0600    7.5310 hx        1 PAW      0.145700
     33 H121       12.1130   -1.1150    6.4830 hx        1 PAW      0.148700
     34 H122       12.1550    0.7250    6.4770 hx        1 PAW      0.148700
     35 H131       12.0720    0.6540    8.9130 hn        1 PAW      0.504133
     36 H132       13.3640   -0.2160    8.2980 hn        1 PAW      0.504133
     37 H13        -0.6010    0.9100    0.2770 hn        1 PAW      0.504133
     38 H42         3.7050    0.8110    0.8060 hn        1 PAW      0.483800
     39 H72         5.6990    0.7800    4.6490 hn        1 PAW      0.483800
     40 H102       10.0030    0.6840    5.0980 hn        1 PAW      0.483800
     41 H133       12.0350   -1.0240    8.9190 hn        1 PAW      0.504133
@<TRIPOS>BOND
     1    1    2 1   
     2    1   14 1   
     3    1   15 1   
     4    1   37 1   
     5    2    3 1   
     6    2   16 1   
     7    2   17 1   
     8    3    6 1   
     9    3   18 1   
    10    3   19 1   
    11    4    5 1   
    12    4    6 1   
    13    4   20 1   
    14    4   21 1   
    15    5    7 1   
    16    5   22 1   
    17    5   23 1   
    18    6   24 1   
    19    6   38 1   
    20    7    8 1   
    21    7   25 1   
    22    7   39 1   
    23    8    9 1   
    24    8   26 1   
    25    8   27 1   
    26    9   10 1   
    27    9   28 1   
    28    9   29 1   
    29   10   11 1   
    30   10   30 1   
    31   10   40 1   
    32   11   12 1   
    33   11   31 1   
    34   11   32 1   
    35   12   13 1   
    36   12   33 1   
    37   12   34 1   
    38   13   35 1   
    39   13   36 1   
    40   13   41 1   
@<TRIPOS>SUBSTRUCTURE
     1 PAW         1 TEMP              0 ****  ****    0 ROOT
