@<TRIPOS>MOLECULE
PAW
   41    40     1     0     0
SMALL
bcc


@<TRIPOS>ATOM
      1 N1         -0.2210    0.0600   -0.1690 nz        1 PAW     -0.836600
      2 C2          1.2640    0.0270   -0.1240 c3        1 PAW      0.078800
      3 C3          1.8450    0.0190    1.3170 c3        1 PAW      0.082800
      4 C5          3.9100   -0.0230    2.7110 c3        1 PAW      0.084800
      5 C6          5.4670   -0.0580    2.7490 c3        1 PAW      0.084800
      6 N4          3.3540   -0.0150    1.3170 ny        1 PAW     -0.760000
      7 N7          6.0220   -0.0650    4.1490 ny        1 PAW     -0.760000
      8 C8          7.5280   -0.1000    4.1530 c3        1 PAW      0.084800
      9 C9          8.1330   -0.1070    5.5890 c3        1 PAW      0.084800
     10 N10         9.6340   -0.1420    5.5970 ny        1 PAW     -0.760000
     11 C11        10.1860   -0.1480    7.0020 c3        1 PAW      0.082800
     12 C12        11.7390   -0.1850    7.0150 c3        1 PAW      0.078800
     13 N13        12.3250   -0.1920    8.3810 nz        1 PAW     -0.836600
     14 HN11       -0.5250    0.0630   -1.1660 hn        1 PAW      0.504133
     15 HN12       -0.6390   -0.7680    0.2830 hn        1 PAW      0.504133
     16 H21         1.6370    0.9360   -0.6900 hx        1 PAW      0.148700
     17 H22         1.5960   -0.9030   -0.6830 hx        1 PAW      0.148700
     18 H31         1.4780   -0.8920    1.8800 hx        1 PAW      0.145700
     19 H32         1.5200    0.9500    1.8730 hx        1 PAW      0.145700
     20 H51         3.5310    0.9080    3.2330 hx        1 PAW      0.147700
     21 H52         3.4880   -0.9310    3.2400 hx        1 PAW      0.147700
     22 H61         5.8880    0.8510    2.2200 hx        1 PAW      0.147700
     23 H62         5.8450   -0.9900    2.2280 hx        1 PAW      0.147700
     24 HN4         3.6680   -0.8610    0.8120 hn        1 PAW      0.483800
     25 HN7         5.6610   -0.8910    4.6550 hn        1 PAW      0.483800
     26 H81         7.8490   -1.0310    3.5940 hx        1 PAW      0.147700
     27 H82         7.8920    0.8100    3.5850 hx        1 PAW      0.147700
     28 H91         7.7690   -1.0160    6.1590 hx        1 PAW      0.147700
     29 H92         7.8120    0.8230    6.1500 hx        1 PAW      0.147700
     30 HN10        9.9650   -0.9890    5.1050 hn        1 PAW      0.483800
     31 H111        9.8140    0.7840    7.5240 hx        1 PAW      0.145700
     32 H112        9.7700   -1.0580    7.5330 hx        1 PAW      0.145700
     33 H121       12.1120   -1.1160    6.4860 hx        1 PAW      0.148700
     34 H122       12.1550    0.7230    6.4760 hx        1 PAW      0.148700
     35 H131       12.0730    0.6560    8.9120 hn        1 PAW      0.504133
     36 H132       13.3630   -0.2170    8.2990 hn        1 PAW      0.504133
     37 H13        -0.6010    0.9100    0.2770 hn        1 PAW      0.504133
     38 H42         3.7060    0.8110    0.8060 hn        1 PAW      0.483800
     39 H72         5.7000    0.7810    4.6480 hn        1 PAW      0.483800
     40 H102       10.0040    0.6830    5.0970 hn        1 PAW      0.483800
     41 H133       12.0330   -1.0220    8.9210 hn        1 PAW      0.504133
@<TRIPOS>BOND
     1    1    2 1   
     2    1   14 1   
     3    1   15 1   
     4    1   37 1   
     5    2    3 1   
     6    2   16 1   
     7    2   17 1   
     8    3    6 1   
     9    3   18 1   
    10    3   19 1   
    11    4    5 1   
    12    4    6 1   
    13    4   20 1   
    14    4   21 1   
    15    5    7 1   
    16    5   22 1   
    17    5   23 1   
    18    6   24 1   
    19    6   38 1   
    20    7    8 1   
    21    7   25 1   
    22    7   39 1   
    23    8    9 1   
    24    8   26 1   
    25    8   27 1   
    26    9   10 1   
    27    9   28 1   
    28    9   29 1   
    29   10   11 1   
    30   10   30 1   
    31   10   40 1   
    32   11   12 1   
    33   11   31 1   
    34   11   32 1   
    35   12   13 1   
    36   12   33 1   
    37   12   34 1   
    38   13   35 1   
    39   13   36 1   
    40   13   41 1   
@<TRIPOS>SUBSTRUCTURE
     1 PAW         1 TEMP              0 ****  ****    0 ROOT
