@<TRIPOS>MOLECULE
PAW
   36    35     1     0     0
SMALL
bcc


@<TRIPOS>ATOM
      1 N1         -1.6790    1.9770   -1.0240 n3        1 PAW     -0.910800
      2 C2         -0.3250    2.0550   -0.5480 c3        1 PAW      0.151300
      3 C3         -0.1680    2.1250    0.9890 c3        1 PAW      0.140800
      4 C5          1.3880    2.1610    2.8330 c3        1 PAW      0.159800
      5 C6          2.8800    2.1470    3.2280 c3        1 PAW      0.160300
      6 N4          1.2120    2.2750    1.3990 n3        1 PAW     -0.821700
      7 N7          3.0560    2.0380    4.6630 n3        1 PAW     -0.823200
      8 C8          4.4410    2.1700    5.0680 c3        1 PAW      0.160300
      9 C9          4.5920    2.1790    6.6040 c3        1 PAW      0.159800
     10 N10         5.9820    2.2410    7.0080 n3        1 PAW     -0.821700
     11 C11         6.1420    2.3640    8.4440 c3        1 PAW      0.140800
     12 C12         7.6150    2.5970    8.8430 c3        1 PAW      0.151300
     13 N13         7.7770    2.7200   10.2720 n3        1 PAW     -0.910800
     14 HN11       -2.1970    2.7970   -0.7760 hn        1 PAW      0.348800
     15 HN12       -2.1480    1.1750   -0.6530 hn        1 PAW      0.348800
     16 H21         0.2260    1.1490   -0.9300 h1        1 PAW      0.045200
     17 H22         0.1530    2.9660   -1.0070 h1        1 PAW      0.045200
     18 H31        -0.7310    3.0210    1.3790 h1        1 PAW      0.031950
     19 H32        -0.6520    1.2080    1.4420 h1        1 PAW      0.031950
     20 H51         0.8850    3.0540    3.3020 h1        1 PAW      0.036200
     21 H52         0.8920    1.2370    3.2530 h1        1 PAW      0.036200
     22 H61         3.3820    1.2520    2.7620 h1        1 PAW      0.036950
     23 H62         3.3780    3.0700    2.8060 h1        1 PAW      0.036950
     24 HN4         1.7970    1.6180    0.9160 hn        1 PAW      0.356800
     25 HN7         2.4820    2.7080    5.1420 hn        1 PAW      0.355800
     26 H81         4.9190    3.1050    4.6470 h1        1 PAW      0.036950
     27 H82         5.0020    1.2880    4.6460 h1        1 PAW      0.036950
     28 H91         4.1590    1.2280    7.0240 h1        1 PAW      0.036200
     29 H92         3.9890    3.0380    7.0260 h1        1 PAW      0.036200
     30 HN10        6.4560    2.9880    6.5350 hn        1 PAW      0.356800
     31 H111        5.7790    1.4000    8.9030 h1        1 PAW      0.031950
     32 H112        5.5130    3.1980    8.8740 h1        1 PAW      0.031950
     33 H121        7.9750    3.5610    8.3830 h1        1 PAW      0.045200
     34 H122        8.2400    1.7640    8.4050 h1        1 PAW      0.045200
     35 H131        8.7480    2.7770   10.5050 hn        1 PAW      0.348800
     36 H132        7.3700    1.9400   10.7490 hn        1 PAW      0.348800
@<TRIPOS>BOND
     1    1    2 1   
     2    1   14 1   
     3    1   15 1   
     4    2    3 1   
     5    2   16 1   
     6    2   17 1   
     7    3    6 1   
     8    3   18 1   
     9    3   19 1   
    10    4    5 1   
    11    4    6 1   
    12    4   20 1   
    13    4   21 1   
    14    5    7 1   
    15    5   22 1   
    16    5   23 1   
    17    6   24 1   
    18    7    8 1   
    19    7   25 1   
    20    8    9 1   
    21    8   26 1   
    22    8   27 1   
    23    9   10 1   
    24    9   28 1   
    25    9   29 1   
    26   10   11 1   
    27   10   30 1   
    28   11   12 1   
    29   11   31 1   
    30   11   32 1   
    31   12   13 1   
    32   12   33 1   
    33   12   34 1   
    34   13   35 1   
    35   13   36 1   
@<TRIPOS>SUBSTRUCTURE
     1 PAW         1 TEMP              0 ****  ****    0 ROOT
