@<TRIPOS>MOLECULE
PAY
   34    33     1     0     0
SMALL
bcc


@<TRIPOS>ATOM
      1 O42        -0.2370    0.7380    0.9000 o         1 PAY     -0.909300
      2 O41         1.1980    0.4220   -0.7430 o         1 PAY     -0.909300
      3 C4          0.9320    0.4040    0.5000 c         1 PAY      0.899600
      4 C41         1.9480   -0.0400    1.5490 c3        1 PAY     -0.163400
      5 C32         3.4070    0.0320    1.1470 c3        1 PAY     -0.039400
      6 C31         4.3620   -0.4330    2.2510 c3        1 PAY     -0.158700
      7 C3          4.1970   -1.9520    2.4640 c         1 PAY      0.914600
      8 O31         4.5530   -2.7750    1.5630 o         1 PAY     -0.896300
      9 O32         3.6770   -2.3700    3.5500 o         1 PAY     -0.896300
     10 C22         5.8070   -0.0570    1.9080 c3        1 PAY     -0.046400
     11 C21         6.6620    0.4270    3.0760 c3        1 PAY     -0.157700
     12 C2          6.4590    1.9300    3.3800 c         1 PAY      0.914600
     13 O21         6.6110    2.8010    2.4670 o         1 PAY     -0.896800
     14 O22         6.1980    2.2840    4.5750 o         1 PAY     -0.896800
     15 C12         8.1650    0.2500    2.8240 c3        1 PAY     -0.039400
     16 C11         8.7220   -1.1660    2.7910 c3        1 PAY     -0.157700
     17 C10         8.2900   -1.9730    3.9950 c3        1 PAY     -0.063100
     18 C1         10.2610   -1.1590    2.7080 c         1 PAY      0.905600
     19 O12        10.8250   -1.4300    1.5980 o         1 PAY     -0.901800
     20 O11        10.9690   -0.9350    3.7420 o         1 PAY     -0.901800
     21 H411        1.7860    0.5840    2.4670 hc        1 PAY      0.030200
     22 H412        1.7050   -1.1000    1.8260 hc        1 PAY      0.030200
     23 H321        3.6500    1.0910    0.8670 hc        1 PAY      0.026200
     24 H322        3.5670   -0.6010    0.2360 hc        1 PAY      0.026200
     25 H31         4.0740    0.0780    3.2090 hc        1 PAY      0.044700
     26 H221        5.8090    0.7570    1.1340 hc        1 PAY      0.030200
     27 H222        6.2970   -0.9580    1.4490 hc        1 PAY      0.030200
     28 H21         6.3740   -0.1450    3.9980 hc        1 PAY      0.043700
     29 H121        8.7100    0.8100    3.6320 hc        1 PAY      0.026200
     30 H122        8.4120    0.7470    1.8490 hc        1 PAY      0.026200
     31 H11         8.3390   -1.6770    1.8640 hc        1 PAY      0.043700
     32 H101        8.5750   -1.4400    4.9340 hc        1 PAY      0.014033
     33 H102        7.1840   -2.1330    3.9820 hc        1 PAY      0.014033
     34 H103        8.7960   -2.9700    3.9940 hc        1 PAY      0.014033
@<TRIPOS>BOND
     1    1    3 1   
     2    2    3 1   
     3    3    4 1   
     4    4    5 1   
     5    4   21 1   
     6    4   22 1   
     7    5    6 1   
     8    5   23 1   
     9    5   24 1   
    10    6    7 1   
    11    6   10 1   
    12    6   25 1   
    13    7    8 1   
    14    7    9 1   
    15   10   11 1   
    16   10   26 1   
    17   10   27 1   
    18   11   12 1   
    19   11   15 1   
    20   11   28 1   
    21   12   13 1   
    22   12   14 1   
    23   15   16 1   
    24   15   29 1   
    25   15   30 1   
    26   16   17 1   
    27   16   18 1   
    28   16   31 1   
    29   17   32 1   
    30   17   33 1   
    31   17   34 1   
    32   18   19 1   
    33   18   20 1   
@<TRIPOS>SUBSTRUCTURE
     1 PAY         1 TEMP              0 ****  ****    0 ROOT
