@<TRIPOS>MOLECULE
PAY
   34    33     1     0     0
SMALL
bcc


@<TRIPOS>ATOM
      1 O42        -4.2780    2.5580   -3.2870 o         1 PAY     -0.906800
      2 O41        -2.5710    2.2350   -4.6050 o         1 PAY     -0.906800
      3 C4         -3.0380    2.4080   -3.4490 c         1 PAY      0.900600
      4 C41        -2.1110    2.4360   -2.2540 c3        1 PAY     -0.166400
      5 C32        -2.0400    1.0560   -1.6380 c3        1 PAY     -0.041400
      6 C31        -1.1760    1.1010   -0.3970 c3        1 PAY     -0.158700
      7 C3         -1.9440    1.7580    0.7280 c         1 PAY      0.916600
      8 O31        -2.9910    1.2190    1.1750 o         1 PAY     -0.899300
      9 O32        -1.5370    2.8440    1.2190 o         1 PAY     -0.899300
     10 C22        -0.7980   -0.3070    0.0050 c3        1 PAY     -0.042400
     11 C21         0.5300   -0.2850    0.7310 c3        1 PAY     -0.164700
     12 C2          0.3240    0.2140    2.1440 c         1 PAY      0.919600
     13 O21        -0.5170   -0.3490    2.8940 o         1 PAY     -0.894800
     14 O22         0.9930    1.1910    2.5710 o         1 PAY     -0.894800
     15 C12         1.1080   -1.6830    0.7680 c3        1 PAY     -0.035400
     16 C11         2.5960   -1.6060    1.0310 c3        1 PAY     -0.158700
     17 C10         3.3200   -2.5610    0.1080 c3        1 PAY     -0.061100
     18 C1          2.8750   -1.9850    2.4690 c         1 PAY      0.906600
     19 O12         2.4450   -3.0760    2.9260 o         1 PAY     -0.900800
     20 O11         3.5360   -1.2090    3.2070 o         1 PAY     -0.900800
     21 H411       -2.4510    3.0710   -1.5920 hc        1 PAY      0.029700
     22 H412       -1.2170    2.7110   -2.5410 hc        1 PAY      0.029700
     23 H321       -2.9410    0.7590   -1.3980 hc        1 PAY      0.027700
     24 H322       -1.6520    0.4310   -2.2830 hc        1 PAY      0.027700
     25 H31        -0.3670    1.6150   -0.5820 hc        1 PAY      0.040700
     26 H221       -0.7230   -0.8660   -0.7940 hc        1 PAY      0.030200
     27 H222       -1.4860   -0.6740    0.5960 hc        1 PAY      0.030200
     28 H21         1.1470    0.3100    0.2630 hc        1 PAY      0.034700
     29 H121        0.9500   -2.1240   -0.0900 hc        1 PAY      0.027700
     30 H122        0.6770   -2.1940    1.4820 hc        1 PAY      0.027700
     31 H11         2.9090   -0.6960    0.8680 hc        1 PAY      0.059700
     32 H101        4.2600   -2.6260    0.3770 hc        1 PAY      0.008033
     33 H102        2.9030   -3.4470    0.1610 hc        1 PAY      0.008033
     34 H103        3.2660   -2.2300   -0.8130 hc        1 PAY      0.008033
@<TRIPOS>BOND
     1    1    3 1   
     2    2    3 1   
     3    3    4 1   
     4    4    5 1   
     5    4   21 1   
     6    4   22 1   
     7    5    6 1   
     8    5   23 1   
     9    5   24 1   
    10    6    7 1   
    11    6   10 1   
    12    6   25 1   
    13    7    8 1   
    14    7    9 1   
    15   10   11 1   
    16   10   26 1   
    17   10   27 1   
    18   11   12 1   
    19   11   15 1   
    20   11   28 1   
    21   12   13 1   
    22   12   14 1   
    23   15   16 1   
    24   15   29 1   
    25   15   30 1   
    26   16   17 1   
    27   16   18 1   
    28   16   31 1   
    29   17   32 1   
    30   17   33 1   
    31   17   34 1   
    32   18   19 1   
    33   18   20 1   
@<TRIPOS>SUBSTRUCTURE
     1 PAY         1 TEMP              0 ****  ****    0 ROOT
