@<TRIPOS>MOLECULE
PAY
   34    33     1     0     0
SMALL
bcc


@<TRIPOS>ATOM
      1 O42         6.0780   -0.5990   -0.3980 o         1 PAY     -0.909300
      2 O41         5.1450    1.1160   -1.4180 o         1 PAY     -0.909300
      3 C4          5.0510    0.1320   -0.6210 c         1 PAY      0.899600
      4 C41         3.7600   -0.2020    0.1220 c3        1 PAY     -0.163400
      5 C32         2.4780    0.3330   -0.4820 c3        1 PAY     -0.039400
      6 C31         1.2290   -0.0400    0.3230 c3        1 PAY     -0.158700
      7 C3          1.2460    0.7090    1.6710 c         1 PAY      0.914600
      8 O31         1.1120    1.9730    1.7120 o         1 PAY     -0.896300
      9 O32         1.4190    0.0440    2.7440 o         1 PAY     -0.896300
     10 C22        -0.0410    0.2580   -0.4810 c3        1 PAY     -0.046400
     11 C21        -1.1610   -0.7710   -0.3600 c3        1 PAY     -0.157700
     12 C2         -0.9700   -1.9740   -1.3150 c         1 PAY      0.914600
     13 O21        -0.8130   -1.7910   -2.5630 o         1 PAY     -0.896800
     14 O22        -1.0340   -3.1530   -0.8370 o         1 PAY     -0.896800
     15 C12        -2.5400   -0.1890   -0.6920 c3        1 PAY     -0.039400
     16 C11        -3.1420    0.8180    0.2790 c3        1 PAY     -0.157700
     17 C10        -3.1090    0.3200    1.7060 c3        1 PAY     -0.063100
     18 C1         -4.5940    1.1660   -0.1070 c         1 PAY      0.905600
     19 O12        -4.8380    2.2850   -0.6640 o         1 PAY     -0.901800
     20 O11        -5.5490    0.3720    0.1700 o         1 PAY     -0.901800
     21 H411        3.6930   -1.3180    0.2060 hc        1 PAY      0.030200
     22 H412        3.8590    0.2000    1.1660 hc        1 PAY      0.030200
     23 H321        2.5450    1.4500   -0.5540 hc        1 PAY      0.026200
     24 H322        2.3800   -0.0660   -1.5260 hc        1 PAY      0.026200
     25 H31         1.2640   -1.1410    0.5450 hc        1 PAY      0.044700
     26 H221       -0.4300    1.2580   -0.1500 hc        1 PAY      0.030200
     27 H222        0.2180    0.3430   -1.5710 hc        1 PAY      0.030200
     28 H21        -1.1730   -1.1730    0.6880 hc        1 PAY      0.043700
     29 H121       -2.4780    0.2920   -1.7030 hc        1 PAY      0.026200
     30 H122       -3.2580   -1.0500   -0.7750 hc        1 PAY      0.026200
     31 H11        -2.5430    1.7700    0.2200 hc        1 PAY      0.043700
     32 H101       -3.6160   -0.6730    1.7760 hc        1 PAY      0.014033
     33 H102       -2.0550    0.2210    2.0610 hc        1 PAY      0.014033
     34 H103       -3.6480    1.0330    2.3760 hc        1 PAY      0.014033
@<TRIPOS>BOND
     1    1    3 1   
     2    2    3 1   
     3    3    4 1   
     4    4    5 1   
     5    4   21 1   
     6    4   22 1   
     7    5    6 1   
     8    5   23 1   
     9    5   24 1   
    10    6    7 1   
    11    6   10 1   
    12    6   25 1   
    13    7    8 1   
    14    7    9 1   
    15   10   11 1   
    16   10   26 1   
    17   10   27 1   
    18   11   12 1   
    19   11   15 1   
    20   11   28 1   
    21   12   13 1   
    22   12   14 1   
    23   15   16 1   
    24   15   29 1   
    25   15   30 1   
    26   16   17 1   
    27   16   18 1   
    28   16   31 1   
    29   17   32 1   
    30   17   33 1   
    31   17   34 1   
    32   18   19 1   
    33   18   20 1   
@<TRIPOS>SUBSTRUCTURE
     1 PAY         1 TEMP              0 ****  ****    0 ROOT
