@<TRIPOS>MOLECULE
PAY
   34    33     1     0     0
SMALL
bcc


@<TRIPOS>ATOM
      1 O42        -0.2220    0.7680    0.8620 o         1 PAY     -0.909300
      2 O41         1.2270    0.4760   -0.7720 o         1 PAY     -0.909300
      3 C4          0.9510    0.4390    0.4670 c         1 PAY      0.899600
      4 C41         1.9560   -0.0220    1.5190 c3        1 PAY     -0.163400
      5 C32         3.4180    0.0540    1.1310 c3        1 PAY     -0.039400
      6 C31         4.3630   -0.4290    2.2360 c3        1 PAY     -0.158700
      7 C3          4.1940   -1.9510    2.4250 c         1 PAY      0.914600
      8 O31         4.5580   -2.7610    1.5140 o         1 PAY     -0.896300
      9 O32         3.6640   -2.3850    3.4990 o         1 PAY     -0.896300
     10 C22         5.8120   -0.0500    1.9120 c3        1 PAY     -0.046400
     11 C21         6.6570    0.4150    3.0950 c3        1 PAY     -0.157700
     12 C2          6.4520    1.9130    3.4200 c         1 PAY      0.914600
     13 O21         6.6130    2.7980    2.5220 o         1 PAY     -0.896800
     14 O22         6.1810    2.2500    4.6180 o         1 PAY     -0.896800
     15 C12         8.1610    0.2410    2.8540 c3        1 PAY     -0.039400
     16 C11         8.7170   -1.1760    2.8060 c3        1 PAY     -0.157700
     17 C10         8.2750   -1.9990    3.9950 c3        1 PAY     -0.063100
     18 C1         10.2580   -1.1690    2.7360 c         1 PAY      0.905600
     19 O12        10.8300   -1.4250    1.6270 o         1 PAY     -0.901800
     20 O11        10.9570   -0.9610    3.7790 o         1 PAY     -0.901800
     21 H411        1.7860    0.5880    2.4450 hc        1 PAY      0.030200
     22 H412        1.7090   -1.0860    1.7770 hc        1 PAY      0.030200
     23 H321        3.6660    1.1170    0.8700 hc        1 PAY      0.026200
     24 H322        3.5860   -0.5650    0.2120 hc        1 PAY      0.026200
     25 H31         4.0670    0.0680    3.2000 hc        1 PAY      0.044700
     26 H221        6.3040   -0.9450    1.4440 hc        1 PAY      0.030200
     27 H222        5.8210    0.7750    1.1510 hc        1 PAY      0.030200
     28 H21         6.3600   -0.1710    4.0060 hc        1 PAY      0.043700
     29 H121        8.7000    0.7880    3.6750 hc        1 PAY      0.026200
     30 H122        8.4180    0.7510    1.8890 hc        1 PAY      0.026200
     31 H11         8.3420   -1.6730    1.8690 hc        1 PAY      0.043700
     32 H101        7.1690   -2.1580    3.9710 hc        1 PAY      0.014033
     33 H102        8.5520   -1.4800    4.9440 hc        1 PAY      0.014033
     34 H103        8.7800   -2.9960    3.9840 hc        1 PAY      0.014033
@<TRIPOS>BOND
     1    1    3 1   
     2    2    3 1   
     3    3    4 1   
     4    4    5 1   
     5    4   21 1   
     6    4   22 1   
     7    5    6 1   
     8    5   23 1   
     9    5   24 1   
    10    6    7 1   
    11    6   10 1   
    12    6   25 1   
    13    7    8 1   
    14    7    9 1   
    15   10   11 1   
    16   10   26 1   
    17   10   27 1   
    18   11   12 1   
    19   11   15 1   
    20   11   28 1   
    21   12   13 1   
    22   12   14 1   
    23   15   16 1   
    24   15   29 1   
    25   15   30 1   
    26   16   17 1   
    27   16   18 1   
    28   16   31 1   
    29   17   32 1   
    30   17   33 1   
    31   17   34 1   
    32   18   19 1   
    33   18   20 1   
@<TRIPOS>SUBSTRUCTURE
     1 PAY         1 TEMP              0 ****  ****    0 ROOT
