@<TRIPOS>MOLECULE
PAZ
   35    34     1     0     0
SMALL
bcc


@<TRIPOS>ATOM
      1 O8         -0.3000   -1.6670   -0.0200 o         1 PAZ     -0.839000
      2 P1          0.9060   -0.9820    0.4850 p5        1 PAZ      1.425800
      3 O6          1.5080   -1.1370    1.8260 o         1 PAZ     -0.839000
      4 O7          0.7370    0.6350    0.3170 oh        1 PAZ     -0.778400
      5 O2          2.1370   -1.1790   -0.6020 os        1 PAZ     -0.579200
      6 C2          1.8040   -1.4290   -1.9300 c3        1 PAZ      0.184400
      7 C1          2.6840   -2.5590   -2.5090 c3        1 PAZ     -0.090000
      8 C4          4.1460   -2.2480   -2.2480 c3        1 PAZ     -0.081600
      9 C3          2.3210   -3.8800   -1.8460 c3        1 PAZ     -0.081600
     10 C5          2.4300   -2.7110   -4.0230 c3        1 PAZ      0.082100
     11 O5'         1.0490   -2.7780   -4.3280 oh        1 PAZ     -0.601800
     12 C6          3.0550   -1.5900   -4.8790 c         1 PAZ      0.627100
     13 O6'         2.3650   -0.5830   -5.1570 o         1 PAZ     -0.643100
     14 N           4.3110   -1.7970   -5.3800 n         1 PAZ     -0.556900
     15 C8          4.9810   -0.8940   -6.2890 c3        1 PAZ      0.093000
     16 C9          6.4980   -0.9000   -6.1570 c3        1 PAZ     -0.211400
     17 C           7.1730   -0.3810   -7.4410 c         1 PAZ      0.911600
     18 O           8.1680    0.3880   -7.3070 o         1 PAZ     -0.851300
     19 OXT         6.7360   -0.7730   -8.5610 o         1 PAZ     -0.851300
     20 H2          0.7180   -1.7220   -2.0060 h1        1 PAZ      0.043200
     21 H2A         1.9970   -0.5030   -2.5460 h1        1 PAZ      0.043200
     22 H4          4.3180   -2.2130   -1.1440 hc        1 PAZ      0.035033
     23 H4A         4.8050   -3.0290   -2.6980 hc        1 PAZ      0.035033
     24 H4B         4.4160   -1.2500   -2.6690 hc        1 PAZ      0.035033
     25 H3          1.2460   -4.1160   -2.0390 hc        1 PAZ      0.035033
     26 H3A         2.9520   -4.7080   -2.2480 hc        1 PAZ      0.035033
     27 H3B         2.4860   -3.8080   -0.7450 hc        1 PAZ      0.035033
     28 H5          2.8250   -3.7150   -4.3570 h1        1 PAZ      0.061700
     29 HO5'        0.6850   -1.8880   -4.2050 ho        1 PAZ      0.427000
     30 HN          1.3680    1.1100    0.8430 ho        1 PAZ      0.421000
     31 H8          4.7150   -1.1950   -7.3460 h1        1 PAZ      0.061700
     32 H8A         4.5880    0.1480   -6.1190 h1        1 PAZ      0.061700
     33 H9          6.8170   -0.2710   -5.2900 hc        1 PAZ      0.025700
     34 H9A         6.8840   -1.9390   -5.9890 hc        1 PAZ      0.025700
     35 HN3         4.8440   -2.5500   -5.0170 hn        1 PAZ      0.298500
@<TRIPOS>BOND
     1    1    2 1   
     2    2    3 1   
     3    2    4 1   
     4    2    5 1   
     5    4   30 1   
     6    5    6 1   
     7    6    7 1   
     8    6   20 1   
     9    6   21 1   
    10    7    8 1   
    11    7    9 1   
    12    7   10 1   
    13    8   22 1   
    14    8   23 1   
    15    8   24 1   
    16    9   25 1   
    17    9   26 1   
    18    9   27 1   
    19   10   11 1   
    20   10   12 1   
    21   10   28 1   
    22   11   29 1   
    23   12   13 2   
    24   12   14 1   
    25   14   15 1   
    26   14   35 1   
    27   15   16 1   
    28   15   31 1   
    29   15   32 1   
    30   16   17 1   
    31   16   33 1   
    32   16   34 1   
    33   17   18 1   
    34   17   19 1   
@<TRIPOS>SUBSTRUCTURE
     1 PAZ         1 TEMP              0 ****  ****    0 ROOT
