@<TRIPOS>MOLECULE
PAZ
   35    34     1     0     0
SMALL
bcc


@<TRIPOS>ATOM
      1 O8         -0.2530   -1.3010   -0.0810 o         1 PAZ     -0.841000
      2 P1          1.0350   -0.9810    0.5770 p5        1 PAZ      1.429800
      3 O6          1.4820   -1.4650    1.8950 o         1 PAZ     -0.841000
      4 O7          1.0570    0.6520    0.5210 oh        1 PAZ     -0.778400
      5 O2          2.2530   -1.2800   -0.5000 os        1 PAZ     -0.576200
      6 C2          1.9250   -1.4150   -1.8460 c3        1 PAZ      0.180400
      7 C1          2.7140   -2.5800   -2.4800 c3        1 PAZ     -0.088000
      8 C4          4.1980   -2.3800   -2.2340 c3        1 PAZ     -0.082100
      9 C3          2.2710   -3.8960   -1.8560 c3        1 PAZ     -0.082100
     10 C5          2.4290   -2.6620   -3.9940 c3        1 PAZ      0.081100
     11 O5'         1.0420   -2.6780   -4.2740 oh        1 PAZ     -0.602800
     12 C6          3.0700   -1.5250   -4.8150 c         1 PAZ      0.628100
     13 O6'         2.4050   -0.4870   -5.0360 o         1 PAZ     -0.644100
     14 N           4.3110   -1.7450   -5.3470 n         1 PAZ     -0.556900
     15 C8          4.9820   -0.8310   -6.2450 c3        1 PAZ      0.094000
     16 C9          6.5010   -0.9230   -6.1920 c3        1 PAZ     -0.210400
     17 C           7.1390   -0.3720   -7.4820 c         1 PAZ      0.911600
     18 O           8.1820    0.3330   -7.3610 o         1 PAZ     -0.851300
     19 OXT         6.6240   -0.6770   -8.5960 o         1 PAZ     -0.851300
     20 H2          0.8190   -1.6030   -1.9580 h1        1 PAZ      0.041700
     21 H2A         2.2120   -0.4740   -2.4020 h1        1 PAZ      0.041700
     22 H4          4.3890   -2.4020   -1.1330 hc        1 PAZ      0.035367
     23 H4A         4.5300   -1.3870   -2.6200 hc        1 PAZ      0.035367
     24 H4B         4.7950   -3.1840   -2.7270 hc        1 PAZ      0.035367
     25 H3          1.1840   -4.0590   -2.0520 hc        1 PAZ      0.035367
     26 H3A         2.8480   -4.7490   -2.2870 hc        1 PAZ      0.035367
     27 H3B         2.4440   -3.8680   -0.7540 hc        1 PAZ      0.035367
     28 H5          2.7890   -3.6630   -4.3740 h1        1 PAZ      0.061700
     29 HO5'        0.7060   -1.7830   -4.1120 ho        1 PAZ      0.427000
     30 HN          4.8260   -2.5320   -5.0320 hn        1 PAZ      0.299500
     31 H8          4.6470   -1.0610   -7.3000 h1        1 PAZ      0.061200
     32 H8A         4.6550    0.2190   -6.0020 h1        1 PAZ      0.061200
     33 H9          6.8960   -0.3590   -5.3130 hc        1 PAZ      0.026200
     34 H9A         6.8380   -1.9880   -6.0990 hc        1 PAZ      0.026200
     35 HN3         0.4310    0.9900   -0.1090 ho        1 PAZ      0.421000
@<TRIPOS>BOND
     1    1    2 1   
     2    2    3 1   
     3    2    4 1   
     4    2    5 1   
     5    4   35 1   
     6    5    6 1   
     7    6    7 1   
     8    6   20 1   
     9    6   21 1   
    10    7    8 1   
    11    7    9 1   
    12    7   10 1   
    13    8   22 1   
    14    8   23 1   
    15    8   24 1   
    16    9   25 1   
    17    9   26 1   
    18    9   27 1   
    19   10   11 1   
    20   10   12 1   
    21   10   28 1   
    22   11   29 1   
    23   12   13 2   
    24   12   14 1   
    25   14   15 1   
    26   14   30 1   
    27   15   16 1   
    28   15   31 1   
    29   15   32 1   
    30   16   17 1   
    31   16   33 1   
    32   16   34 1   
    33   17   18 1   
    34   17   19 1   
@<TRIPOS>SUBSTRUCTURE
     1 PAZ         1 TEMP              0 ****  ****    0 ROOT
