@<TRIPOS>MOLECULE
PAZ
   34    33     1     0     0
SMALL
bcc


@<TRIPOS>ATOM
      1 O8         -5.1960    3.3210    1.9030 o         1 PAZ     -0.933500
      2 P1         -3.7160    3.1910    2.2030 p5        1 PAZ      1.325900
      3 O6         -3.5220    2.9270    3.6820 o         1 PAZ     -0.933500
      4 O7         -3.0080    4.4750    1.8220 o         1 PAZ     -0.933500
      5 O2         -3.1130    1.9890    1.3700 os        1 PAZ     -0.564200
      6 C2         -1.6870    1.7560    1.4340 c3        1 PAZ      0.238400
      7 C1         -1.3370    0.4970    0.6420 c3        1 PAZ     -0.103000
      8 C4         -2.0450   -0.7370    1.2810 c3        1 PAZ     -0.076100
      9 C3         -1.8080    0.6610   -0.8180 c3        1 PAZ     -0.076100
     10 C5          0.2060    0.2850    0.6710 c3        1 PAZ      0.124100
     11 O5'         0.5950   -0.1100    1.9380 oh        1 PAZ     -0.673800
     12 C6          0.5920   -0.7820   -0.3340 c         1 PAZ      0.649100
     13 O6'        -0.1250   -1.7660   -0.4870 o         1 PAZ     -0.665100
     14 N           1.8860   -0.7000   -1.0330 n         1 PAZ     -0.568900
     15 C8          2.4650   -1.8920   -1.6170 c3        1 PAZ      0.098000
     16 C9          3.8440   -1.5620   -2.1830 c3        1 PAZ     -0.195400
     17 C           4.5040   -2.8400   -2.6930 c         1 PAZ      0.907600
     18 O           5.3410   -3.4440   -1.9760 o         1 PAZ     -0.868300
     19 OXT         4.2360   -3.2730   -3.8540 o         1 PAZ     -0.868300
     20 H2         -1.4190    1.6410    2.3610 h1        1 PAZ     -0.013800
     21 H2A        -1.2170    2.5180    1.0540 h1        1 PAZ     -0.013800
     22 H4         -3.0210   -0.6340    1.2010 hc        1 PAZ      0.028200
     23 H4A        -1.7630   -1.5570    0.8130 hc        1 PAZ      0.028200
     24 H4B        -1.7960   -0.8020    2.2440 hc        1 PAZ      0.028200
     25 H3         -1.2140    1.3050   -1.2870 hc        1 PAZ      0.028200
     26 H3A        -1.7740   -0.1960   -1.2670 hc        1 PAZ      0.028200
     27 H3B        -2.7410    1.0030   -0.8290 hc        1 PAZ      0.028200
     28 H5          0.6610    1.1390    0.4380 h1        1 PAZ      0.016700
     29 HO5'        1.3070    0.3430    2.1810 ho        1 PAZ      0.516000
     30 HN          2.2780    0.1390   -1.1950 hn        1 PAZ      0.306500
     31 H8          1.8860   -2.2180   -2.3360 h1        1 PAZ      0.046200
     32 H8A         2.5520   -2.5830   -0.9300 h1        1 PAZ      0.046200
     33 H9          4.3970   -1.1670   -1.4810 hc        1 PAZ      0.022200
     34 H9A         3.7500   -0.9290   -2.9180 hc        1 PAZ      0.022200
@<TRIPOS>BOND
     1    1    2 1   
     2    2    3 1   
     3    2    4 1   
     4    2    5 1   
     5    5    6 1   
     6    6    7 1   
     7    6   20 1   
     8    6   21 1   
     9    7    8 1   
    10    7    9 1   
    11    7   10 1   
    12    8   22 1   
    13    8   23 1   
    14    8   24 1   
    15    9   25 1   
    16    9   26 1   
    17    9   27 1   
    18   10   11 1   
    19   10   12 1   
    20   10   28 1   
    21   11   29 1   
    22   12   13 2   
    23   12   14 1   
    24   14   15 1   
    25   14   30 1   
    26   15   16 1   
    27   15   31 1   
    28   15   32 1   
    29   16   17 1   
    30   16   33 1   
    31   16   34 1   
    32   17   18 1   
    33   17   19 1   
@<TRIPOS>SUBSTRUCTURE
     1 PAZ         1 TEMP              0 ****  ****    0 ROOT
