@<TRIPOS>MOLECULE
PAZ
   35    34     1     0     0
SMALL
bcc


@<TRIPOS>ATOM
      1 O8         -0.4690   -2.7290    0.2610 o         1 PAZ     -0.839500
      2 P1          0.8390   -2.3100    0.8120 p5        1 PAZ      1.429800
      3 O6          1.3920   -2.6580    2.1330 o         1 PAZ     -0.839500
      4 O7          0.7870   -0.6870    0.6090 oh        1 PAZ     -0.785400
      5 O2          1.9870   -2.6680   -0.3240 os        1 PAZ     -0.573200
      6 C2          1.6270   -2.5020   -1.6580 c3        1 PAZ      0.209400
      7 C1          2.7180   -1.7280   -2.4380 c3        1 PAZ     -0.095000
      8 C4          2.9560   -0.3750   -1.7940 c3        1 PAZ     -0.088600
      9 C3          4.0000   -2.5410   -2.4220 c3        1 PAZ     -0.088600
     10 C5          2.2120   -1.5600   -3.8850 c3        1 PAZ      0.080100
     11 O5'         1.0530   -0.7490   -3.9450 oh        1 PAZ     -0.596800
     12 C6          3.2730   -0.9400   -4.8170 c         1 PAZ      0.625100
     13 O6'         3.2840    0.3040   -4.9720 o         1 PAZ     -0.655100
     14 N           4.1030   -1.7820   -5.5050 ns        1 PAZ     -0.550900
     15 C8          5.1080   -1.3330   -6.4430 c3        1 PAZ      0.091000
     16 C9          6.3950   -2.1440   -6.4100 c3        1 PAZ     -0.213400
     17 C           7.2290   -1.9000   -7.6830 c         1 PAZ      0.912600
     18 O           8.4740   -1.7320   -7.5430 o         1 PAZ     -0.850800
     19 OXT         6.6430   -1.9130   -8.8040 o         1 PAZ     -0.850800
     20 H2          0.6470   -1.9540   -1.7390 h1        1 PAZ      0.023700
     21 H2A         1.5210   -3.5180   -2.1380 h1        1 PAZ      0.023700
     22 H4          3.5700    0.2740   -2.4640 hc        1 PAZ      0.040033
     23 H4A         3.4830   -0.5110   -0.8190 hc        1 PAZ      0.040033
     24 H4B         1.9810    0.1310   -1.5850 hc        1 PAZ      0.040033
     25 H3          4.8560   -1.9440   -2.8170 hc        1 PAZ      0.040033
     26 H3A         4.2240   -2.8420   -1.3680 hc        1 PAZ      0.040033
     27 H3B         3.8870   -3.4660   -3.0370 hc        1 PAZ      0.040033
     28 H5          1.8670   -2.5580   -4.2790 h1        1 PAZ      0.073700
     29 HO5'        1.3320    0.1590   -3.7550 ho        1 PAZ      0.418000
     30 HN          0.0700   -0.4270    0.0410 ho        1 PAZ      0.423000
     31 H8          5.3380   -0.2500   -6.2380 h1        1 PAZ      0.063200
     32 H8A         4.6730   -1.4020   -7.4840 h1        1 PAZ      0.063200
     33 H9          7.0040   -1.8790   -5.5110 hc        1 PAZ      0.026200
     34 H9A         6.1760   -3.2420   -6.3680 hc        1 PAZ      0.026200
     35 HN3         4.1330   -2.7360   -5.2330 hn        1 PAZ      0.300500
@<TRIPOS>BOND
     1    1    2 1   
     2    2    3 1   
     3    2    4 1   
     4    2    5 1   
     5    4   30 1   
     6    5    6 1   
     7    6    7 1   
     8    6   20 1   
     9    6   21 1   
    10    7    8 1   
    11    7    9 1   
    12    7   10 1   
    13    8   22 1   
    14    8   23 1   
    15    8   24 1   
    16    9   25 1   
    17    9   26 1   
    18    9   27 1   
    19   10   11 1   
    20   10   12 1   
    21   10   28 1   
    22   11   29 1   
    23   12   13 2   
    24   12   14 1   
    25   14   15 1   
    26   14   35 1   
    27   15   16 1   
    28   15   31 1   
    29   15   32 1   
    30   16   17 1   
    31   16   33 1   
    32   16   34 1   
    33   17   18 1   
    34   17   19 1   
@<TRIPOS>SUBSTRUCTURE
     1 PAZ         1 TEMP              0 ****  ****    0 ROOT
