@<TRIPOS>MOLECULE
PAZ
   34    33     1     0     0
SMALL
bcc


@<TRIPOS>ATOM
      1 O8          4.7130    0.8080    1.5100 o         1 PAZ     -0.930500
      2 P1          4.6090   -0.2660    0.4530 p5        1 PAZ      1.317900
      3 O6          4.8030    0.2140   -0.9620 o         1 PAZ     -0.930500
      4 O7          5.2380   -1.5860    0.8000 o         1 PAZ     -0.930500
      5 O2          2.9130   -0.6460    0.4950 os        1 PAZ     -0.564200
      6 C2          2.0910    0.0910   -0.3120 c3        1 PAZ      0.226400
      7 C1          1.1100    0.9840    0.5160 c3        1 PAZ     -0.117000
      8 C4          0.4820    0.1400    1.6050 c3        1 PAZ     -0.100600
      9 C3          1.9270    2.1040    1.1450 c3        1 PAZ     -0.100600
     10 C5          0.0240    1.6280   -0.3660 c3        1 PAZ      0.097100
     11 O5'         0.5240    2.1240   -1.5950 oh        1 PAZ     -0.611800
     12 C6         -1.1890    0.7340   -0.7020 c         1 PAZ      0.635100
     13 O6'        -1.2490    0.1240   -1.7900 o         1 PAZ     -0.643100
     14 N          -2.2520    0.7520    0.1790 n         1 PAZ     -0.577900
     15 C8         -3.5020    0.0660   -0.0490 c3        1 PAZ      0.105000
     16 C9         -4.6510    0.6410    0.7730 c3        1 PAZ     -0.199400
     17 C          -5.9930   -0.0270    0.4450 c         1 PAZ      0.909600
     18 O          -6.3870   -0.0770   -0.7570 o         1 PAZ     -0.863800
     19 OXT        -6.6880   -0.4630    1.4130 o         1 PAZ     -0.863800
     20 H2          2.6930    0.7570   -0.9960 h1        1 PAZ      0.004700
     21 H2A         1.4420   -0.5980   -0.9310 h1        1 PAZ      0.004700
     22 H4          1.3070   -0.2890    2.2290 hc        1 PAZ      0.037700
     23 H4A        -0.1940    0.7480    2.2560 hc        1 PAZ      0.037700
     24 H4B        -0.0970   -0.7070    1.1650 hc        1 PAZ      0.037700
     25 H3          2.1380    2.8960    0.3880 hc        1 PAZ      0.037700
     26 H3A         1.3850    2.5650    2.0040 hc        1 PAZ      0.037700
     27 H3B         2.9210    1.6690    1.4900 hc        1 PAZ      0.037700
     28 H5         -0.3550    2.5580    0.1540 h1        1 PAZ      0.045700
     29 HO5'        0.9460    1.3810   -2.0500 ho        1 PAZ      0.429000
     30 HN         -2.0760    1.0630    1.1040 hn        1 PAZ      0.294500
     31 H8         -3.7570    0.1350   -1.1440 h1        1 PAZ      0.047700
     32 H8A        -3.3870   -1.0280    0.2030 h1        1 PAZ      0.047700
     33 H9         -4.4440    0.5180    1.8670 hc        1 PAZ      0.021200
     34 H9A        -4.7630    1.7360    0.5640 hc        1 PAZ      0.021200
@<TRIPOS>BOND
     1    1    2 1   
     2    2    3 1   
     3    2    4 1   
     4    2    5 1   
     5    5    6 1   
     6    6    7 1   
     7    6   20 1   
     8    6   21 1   
     9    7    8 1   
    10    7    9 1   
    11    7   10 1   
    12    8   22 1   
    13    8   23 1   
    14    8   24 1   
    15    9   25 1   
    16    9   26 1   
    17    9   27 1   
    18   10   11 1   
    19   10   12 1   
    20   10   28 1   
    21   11   29 1   
    22   12   13 2   
    23   12   14 1   
    24   14   15 1   
    25   14   30 1   
    26   15   16 1   
    27   15   31 1   
    28   15   32 1   
    29   16   17 1   
    30   16   33 1   
    31   16   34 1   
    32   17   18 1   
    33   17   19 1   
@<TRIPOS>SUBSTRUCTURE
     1 PAZ         1 TEMP              0 ****  ****    0 ROOT
