@<TRIPOS>MOLECULE
PB1
   34    33     1     0     0
SMALL
bcc


@<TRIPOS>ATOM
      1 O3         -0.2870   -0.2350   -5.0820 o         1 PB1     -0.866300
      2 C8          0.3080   -0.0190   -3.9830 c         1 PB1      0.904600
      3 O4          1.3340    0.7190   -3.8930 o         1 PB1     -0.866300
      4 C7         -0.2240   -0.7250   -2.7280 c3        1 PB1     -0.185400
      5 C6         -0.2720    0.1870   -1.5230 c3        1 PB1     -0.066400
      6 C3         -0.6390   -0.5530   -0.2390 c3        1 PB1     -0.097700
      7 C2         -2.1660   -0.7740   -0.1920 c3        1 PB1      0.162800
      8 N1         -2.9980    0.2770    0.3370 n3        1 PB1     -0.929800
      9 C4         -0.1180    0.1540    1.0140 c3        1 PB1     -0.044700
     10 C9         -0.5020   -0.5730    2.2990 c3        1 PB1     -0.196400
     11 C10        -1.0060    0.3920    3.3840 c         1 PB1      0.904600
     12 O1         -1.9540    1.1860    3.1000 o         1 PB1     -0.862300
     13 O2         -0.4740    0.3360    4.5320 o         1 PB1     -0.862300
     14 C5          1.3890    0.3870    0.9930 c3        1 PB1     -0.104400
     15 C11         2.2010   -0.8540    0.6240 c3        1 PB1      0.133800
     16 N12         3.6360   -0.7350    0.7740 n3        1 PB1     -0.908800
     17 H71         0.4580   -1.5900   -2.5170 hc        1 PB1      0.017700
     18 H72        -1.2400   -1.1390   -2.9500 hc        1 PB1      0.017700
     19 H61        -1.0140    1.0090   -1.7040 hc        1 PB1      0.042200
     20 H62         0.7340    0.6750   -1.4310 hc        1 PB1      0.042200
     21 H3         -0.1700   -1.5770   -0.2750 hc        1 PB1      0.028700
     22 H21        -2.3740   -1.7050    0.4100 h1        1 PB1      0.026700
     23 H22        -2.5110   -0.9810   -1.2460 h1        1 PB1      0.026700
     24 HN11       -2.8260    0.4040    1.3250 hn        1 PB1      0.363300
     25 HN12       -2.7810    1.1420   -0.1210 hn        1 PB1      0.363300
     26 H4         -0.5920    1.1800    1.0480 hc        1 PB1      0.065700
     27 H91         0.3720   -1.1430    2.7040 hc        1 PB1      0.024700
     28 H92        -1.3190   -1.3150    2.1140 hc        1 PB1      0.024700
     29 H51         1.6900    0.7450    2.0150 hc        1 PB1      0.035200
     30 H52         1.6320    1.2120    0.2730 hc        1 PB1      0.035200
     31 H111        1.8660   -1.7150    1.2690 h1        1 PB1      0.057700
     32 H112        1.9860   -1.1230   -0.4500 h1        1 PB1      0.057700
     33 H121        3.9920   -0.0740    0.1080 hn        1 PB1      0.327800
     34 H122        3.8560   -0.3910    1.6900 hn        1 PB1      0.327800
@<TRIPOS>BOND
     1    1    2 1   
     2    2    3 1   
     3    2    4 1   
     4    4    5 1   
     5    4   17 1   
     6    4   18 1   
     7    5    6 1   
     8    5   19 1   
     9    5   20 1   
    10    6    7 1   
    11    6    9 1   
    12    6   21 1   
    13    7    8 1   
    14    7   22 1   
    15    7   23 1   
    16    8   24 1   
    17    8   25 1   
    18    9   10 1   
    19    9   14 1   
    20    9   26 1   
    21   10   11 1   
    22   10   27 1   
    23   10   28 1   
    24   11   12 1   
    25   11   13 1   
    26   14   15 1   
    27   14   29 1   
    28   14   30 1   
    29   15   16 1   
    30   15   31 1   
    31   15   32 1   
    32   16   33 1   
    33   16   34 1   
@<TRIPOS>SUBSTRUCTURE
     1 PB1         1 TEMP              0 ****  ****    0 ROOT
