@<TRIPOS>MOLECULE
PB1
   34    33     1     0     0
SMALL
bcc


@<TRIPOS>ATOM
      1 O3         -3.0180    2.3190    2.7870 o         1 PB1     -0.866300
      2 C8         -1.7590    2.3190    2.7870 c         1 PB1      0.905600
      3 O4         -1.1290    2.3190    3.8770 o         1 PB1     -0.866300
      4 C7         -1.0020    2.3200    1.4770 c3        1 PB1     -0.186400
      5 C6         -0.8350    0.8970    0.9910 c3        1 PB1     -0.061400
      6 C3         -0.0350    0.8940   -0.2940 c3        1 PB1     -0.094700
      7 C2         -0.9730    1.0300   -1.4720 c3        1 PB1      0.140800
      8 N1         -0.6120    2.1780   -2.2370 n3        1 PB1     -0.914800
      9 C4          0.7320   -0.4050   -0.4070 c3        1 PB1     -0.050700
     10 C9          2.0090   -0.3090    0.3990 c3        1 PB1     -0.185400
     11 C10         3.1960   -0.2820   -0.5390 c         1 PB1      0.900600
     12 O1          3.8060   -1.3490   -0.8120 o         1 PB1     -0.866300
     13 O2          3.5730    0.8070   -1.0450 o         1 PB1     -0.866300
     14 C5         -0.1160   -1.5390    0.1250 c3        1 PB1     -0.063400
     15 C11         0.2380   -2.8180   -0.6020 c3        1 PB1      0.121800
     16 N12        -0.6010   -3.8750   -0.1410 n3        1 PB1     -0.907800
     17 H71        -0.1240    2.7250    1.6090 hc        1 PB1      0.017200
     18 H72        -1.5010    2.8340    0.8130 hc        1 PB1      0.017200
     19 H61        -0.3640    0.3750    1.6680 hc        1 PB1      0.046700
     20 H62        -1.7130    0.5030    0.8280 hc        1 PB1      0.046700
     21 H3          0.5920    1.6430   -0.2890 hc        1 PB1      0.037700
     22 H21        -1.8890    1.1290   -1.1500 h1        1 PB1      0.046200
     23 H22        -0.9100    0.2330   -2.0320 h1        1 PB1      0.046200
     24 HN11       -0.3640    1.9190   -3.0760 hn        1 PB1      0.335800
     25 HN12       -1.3260    2.7440   -2.2920 hn        1 PB1      0.335800
     26 H4          0.9500   -0.5730   -1.3440 hc        1 PB1      0.053700
     27 H91         1.9970    0.5090    0.9320 hc        1 PB1      0.029700
     28 H92         2.0790   -1.0820    0.9910 hc        1 PB1      0.029700
     29 H51        -1.0600   -1.3350   -0.0180 hc        1 PB1      0.033700
     30 H52         0.0520   -1.6510    1.0800 hc        1 PB1      0.033700
     31 H111        0.1070   -2.6930   -1.5620 h1        1 PB1      0.058200
     32 H112        1.1720   -3.0440   -0.4280 h1        1 PB1      0.058200
     33 H121       -0.0860   -4.5380    0.2150 hn        1 PB1      0.319800
     34 H122       -1.0830   -4.2070   -0.8400 hn        1 PB1      0.319800
@<TRIPOS>BOND
     1    1    2 1   
     2    2    3 1   
     3    2    4 1   
     4    4    5 1   
     5    4   17 1   
     6    4   18 1   
     7    5    6 1   
     8    5   19 1   
     9    5   20 1   
    10    6    7 1   
    11    6    9 1   
    12    6   21 1   
    13    7    8 1   
    14    7   22 1   
    15    7   23 1   
    16    8   24 1   
    17    8   25 1   
    18    9   10 1   
    19    9   14 1   
    20    9   26 1   
    21   10   11 1   
    22   10   27 1   
    23   10   28 1   
    24   11   12 1   
    25   11   13 1   
    26   14   15 1   
    27   14   29 1   
    28   14   30 1   
    29   15   16 1   
    30   15   31 1   
    31   15   32 1   
    32   16   33 1   
    33   16   34 1   
@<TRIPOS>SUBSTRUCTURE
     1 PB1         1 TEMP              0 ****  ****    0 ROOT
