@<TRIPOS>MOLECULE
PB2
   32    34     1     0     0
SMALL
bcc


@<TRIPOS>ATOM
      1 CDB        -3.5610   -1.1870   -0.0520 ca        1 PB2     -0.116500
      2 CDC        -4.9190   -1.2280    0.2570 ca        1 PB2     -0.130000
      3 CDD        -5.5880   -0.0630    0.6320 ca        1 PB2     -0.124000
      4 CDE        -4.8940    1.1450    0.6980 ca        1 PB2     -0.130000
      5 CDF        -3.5370    1.1910    0.3870 ca        1 PB2     -0.116500
      6 CDA        -2.8570    0.0240    0.0100 cp        1 PB2     -0.044000
      7 CCD        -1.4330    0.0700   -0.3150 cp        1 PB2     -0.025000
      8 CCE        -0.9060    1.1360   -1.0580 ca        1 PB2     -0.119000
      9 CCF         0.4510    1.1790   -1.3660 ca        1 PB2     -0.113500
     10 CCC        -0.5720   -0.9520    0.1130 ca        1 PB2     -0.119000
     11 CCB         0.7840   -0.9080   -0.1970 ca        1 PB2     -0.113500
     12 CCA         1.3040    0.1560   -0.9400 ca        1 PB2     -0.118300
     13 CAA         2.7560    0.1960   -1.3260 c3        1 PB2      0.088600
     14 NAB         3.6850   -0.0310   -0.2590 na        1 PB2     -0.207900
     15 CAF         4.2030   -1.2680    0.1430 cc        1 PB2     -0.261600
     16 CAE         5.0210   -1.0050    1.2570 cd        1 PB2      0.292200
     17 NAD         5.0030    0.3580    1.5530 nd        1 PB2     -0.668000
     18 CAC         4.1890    0.9240    0.6380 cc        1 PB2      0.394400
     19 HDB        -3.0380   -2.1080   -0.3520 ha        1 PB2      0.135000
     20 HDC        -5.4640   -2.1820    0.2030 ha        1 PB2      0.133000
     21 HDD        -6.6600   -0.0980    0.8770 ha        1 PB2      0.133000
     22 HDE        -5.4180    2.0640    0.9970 ha        1 PB2      0.133000
     23 HDF        -2.9920    2.1450    0.4470 ha        1 PB2      0.135000
     24 HCE        -1.5720    1.9410   -1.4040 ha        1 PB2      0.139500
     25 HCF         0.8490    2.0230   -1.9500 ha        1 PB2      0.136000
     26 HCC        -0.9710   -1.7880    0.7070 ha        1 PB2      0.139500
     27 HCB         1.4510   -1.7120    0.1510 ha        1 PB2      0.136000
     28 HAA         2.9290   -0.5950   -2.1150 h1        1 PB2      0.067200
     29 HAAA        2.9940    1.2020   -1.7810 h1        1 PB2      0.067200
     30 HAF         3.9730   -2.1940   -0.3780 h4        1 PB2      0.174000
     31 HAE         5.6090   -1.7070    1.8450 h4        1 PB2      0.041100
     32 HAC         3.9400    1.9880    0.5690 h5        1 PB2      0.060100
@<TRIPOS>BOND
     1    1    2 ar  
     2    1    6 ar  
     3    1   19 1   
     4    2    3 ar  
     5    2   20 1   
     6    3    4 ar  
     7    3   21 1   
     8    4    5 ar  
     9    4   22 1   
    10    5    6 ar  
    11    5   23 1   
    12    6    7 1   
    13    7    8 ar  
    14    7   10 ar  
    15    8    9 ar  
    16    8   24 1   
    17    9   12 ar  
    18    9   25 1   
    19   10   11 ar  
    20   10   26 1   
    21   11   12 ar  
    22   11   27 1   
    23   12   13 1   
    24   13   14 1   
    25   13   28 1   
    26   13   29 1   
    27   14   15 1   
    28   14   18 1   
    29   15   16 2   
    30   15   30 1   
    31   16   17 1   
    32   16   31 1   
    33   17   18 2   
    34   18   32 1   
@<TRIPOS>SUBSTRUCTURE
     1 PB2         1 TEMP              0 ****  ****    0 ROOT
