@<TRIPOS>MOLECULE
PB2
   32    34     1     0     0
SMALL
bcc


@<TRIPOS>ATOM
      1 CDB         0.0200   -0.2550    0.0200 ca        1 PB2     -0.116500
      2 CDC         1.4110   -0.3030   -0.0250 ca        1 PB2     -0.130000
      3 CDD         2.1580   -0.1160    1.1380 ca        1 PB2     -0.124000
      4 CDE         1.5080    0.1190    2.3490 ca        1 PB2     -0.130000
      5 CDF         0.1160    0.1650    2.4000 ca        1 PB2     -0.116500
      6 CDA        -0.6410   -0.0210    1.2340 cp        1 PB2     -0.044000
      7 CCD        -2.1010    0.0290    1.2840 cp        1 PB2     -0.025000
      8 CCE        -2.7970   -0.5600    2.3500 ca        1 PB2     -0.119000
      9 CCF        -4.1870   -0.5120    2.3980 ca        1 PB2     -0.113500
     10 CCC        -2.8270    0.6670    0.2680 ca        1 PB2     -0.119000
     11 CCB        -4.2180    0.7130    0.3160 ca        1 PB2     -0.113500
     12 CCA        -4.9070    0.1230    1.3800 ca        1 PB2     -0.118300
     13 CAA        -6.4090    0.1200    1.4240 c3        1 PB2      0.088600
     14 NAB        -7.0350    1.3900    1.2030 na        1 PB2     -0.207900
     15 CAF        -7.4370    1.9160   -0.0300 cc        1 PB2     -0.261600
     16 CAE        -7.9430    3.2000    0.2390 cd        1 PB2      0.292200
     17 NAD        -7.8460    3.4770    1.6040 nd        1 PB2     -0.668000
     18 CAC        -7.2910    2.3830    2.1640 cc        1 PB2      0.394400
     19 HDB        -0.5660   -0.4070   -0.9000 ha        1 PB2      0.135000
     20 HDC         1.9210   -0.4900   -0.9820 ha        1 PB2      0.133000
     21 HDD         3.2560   -0.1530    1.1000 ha        1 PB2      0.133000
     22 HDE         2.0930    0.2700    3.2680 ha        1 PB2      0.133000
     23 HDF        -0.3930    0.3570    3.3560 ha        1 PB2      0.135000
     24 HCE        -2.2390   -1.0680    3.1510 ha        1 PB2      0.139500
     25 HCF        -4.7180   -0.9780    3.2410 ha        1 PB2      0.136000
     26 HCC        -2.2920    1.1430   -0.5680 ha        1 PB2      0.139500
     27 HCB        -4.7760    1.2240   -0.4840 ha        1 PB2      0.136000
     28 HAA        -6.7810   -0.5960    0.6320 h1        1 PB2      0.067200
     29 HAAA       -6.7520   -0.2630    2.4300 h1        1 PB2      0.067200
     30 HAF        -7.3500    1.3570   -0.9580 h4        1 PB2      0.174000
     31 HAE        -8.3630    3.9220   -0.4590 h4        1 PB2      0.041100
     32 HAC        -7.0640    2.2480    3.2260 h5        1 PB2      0.060100
@<TRIPOS>BOND
     1    1    2 ar  
     2    1    6 ar  
     3    1   19 1   
     4    2    3 ar  
     5    2   20 1   
     6    3    4 ar  
     7    3   21 1   
     8    4    5 ar  
     9    4   22 1   
    10    5    6 ar  
    11    5   23 1   
    12    6    7 1   
    13    7    8 ar  
    14    7   10 ar  
    15    8    9 ar  
    16    8   24 1   
    17    9   12 ar  
    18    9   25 1   
    19   10   11 ar  
    20   10   26 1   
    21   11   12 ar  
    22   11   27 1   
    23   12   13 1   
    24   13   14 1   
    25   13   28 1   
    26   13   29 1   
    27   14   15 1   
    28   14   18 1   
    29   15   16 2   
    30   15   30 1   
    31   16   17 1   
    32   16   31 1   
    33   17   18 2   
    34   18   32 1   
@<TRIPOS>SUBSTRUCTURE
     1 PB2         1 TEMP              0 ****  ****    0 ROOT
