@<TRIPOS>MOLECULE
PB2
   32    34     1     0     0
SMALL
bcc


@<TRIPOS>ATOM
      1 CDB         0.0140   -0.3050    0.0390 ca        1 PB2     -0.116500
      2 CDC         1.4050   -0.3630   -0.0060 ca        1 PB2     -0.130000
      3 CDD         2.1530   -0.1520    1.1520 ca        1 PB2     -0.124000
      4 CDE         1.5050    0.1180    2.3570 ca        1 PB2     -0.130000
      5 CDF         0.1140    0.1740    2.4080 ca        1 PB2     -0.116500
      6 CDA        -0.6450   -0.0360    1.2470 cp        1 PB2     -0.044000
      7 CCD        -2.1050    0.0240    1.2970 cp        1 PB2     -0.025000
      8 CCE        -2.8040   -0.5340    2.3770 ca        1 PB2     -0.119000
      9 CCF        -4.1940   -0.4760    2.4240 ca        1 PB2     -0.113500
     10 CCC        -2.8270    0.6410    0.2660 ca        1 PB2     -0.119000
     11 CCB        -4.2170    0.6970    0.3130 ca        1 PB2     -0.113500
     12 CCA        -4.9100    0.1380    1.3910 ca        1 PB2     -0.118300
     13 CAA        -6.4120    0.1460    1.4360 c3        1 PB2      0.088600
     14 NAB        -7.0300    1.4140    1.1870 na        1 PB2     -0.207900
     15 CAF        -7.4290    1.9150   -0.0580 cc        1 PB2     -0.261600
     16 CAE        -7.9260    3.2080    0.1820 cd        1 PB2      0.292200
     17 NAD        -7.8280    3.5150    1.5390 nd        1 PB2     -0.668000
     18 CAC        -7.2790    2.4300    2.1240 cc        1 PB2      0.394400
     19 HDB        -0.5730   -0.4770   -0.8760 ha        1 PB2      0.135000
     20 HDC         1.9130   -0.5770   -0.9570 ha        1 PB2      0.133000
     21 HDD         3.2510   -0.1970    1.1150 ha        1 PB2      0.133000
     22 HDE         2.0920    0.2880    3.2720 ha        1 PB2      0.133000
     23 HDF        -0.3940    0.3930    3.3590 ha        1 PB2      0.135000
     24 HCE        -2.2480   -1.0260    3.1900 ha        1 PB2      0.139500
     25 HCF        -4.7280   -0.9180    3.2790 ha        1 PB2      0.136000
     26 HCC        -2.2900    1.0930   -0.5830 ha        1 PB2      0.139500
     27 HCB        -4.7730    1.1920   -0.4990 ha        1 PB2      0.136000
     28 HAA        -6.7880   -0.5850    0.6600 h1        1 PB2      0.067200
     29 HAAA       -6.7570   -0.2120    2.4500 h1        1 PB2      0.067200
     30 HAF        -7.3460    1.3340   -0.9740 h4        1 PB2      0.174000
     31 HAE        -8.3420    3.9170   -0.5320 h4        1 PB2      0.041100
     32 HAC        -7.0530    2.3180    3.1890 h5        1 PB2      0.060100
@<TRIPOS>BOND
     1    1    2 ar  
     2    1    6 ar  
     3    1   19 1   
     4    2    3 ar  
     5    2   20 1   
     6    3    4 ar  
     7    3   21 1   
     8    4    5 ar  
     9    4   22 1   
    10    5    6 ar  
    11    5   23 1   
    12    6    7 1   
    13    7    8 ar  
    14    7   10 ar  
    15    8    9 ar  
    16    8   24 1   
    17    9   12 ar  
    18    9   25 1   
    19   10   11 ar  
    20   10   26 1   
    21   11   12 ar  
    22   11   27 1   
    23   12   13 1   
    24   13   14 1   
    25   13   28 1   
    26   13   29 1   
    27   14   15 1   
    28   14   18 1   
    29   15   16 2   
    30   15   30 1   
    31   16   17 1   
    32   16   31 1   
    33   17   18 2   
    34   18   32 1   
@<TRIPOS>SUBSTRUCTURE
     1 PB2         1 TEMP              0 ****  ****    0 ROOT
