@<TRIPOS>MOLECULE
PB3
   50    45     1     0     0
SMALL
bcc


@<TRIPOS>ATOM
      1 C1         -0.8880   -0.0900   -0.9060 c1        1 PB3     -0.032000
      2 C2          0.4700   -0.0100   -0.8890 c1        1 PB3     -0.126000
      3 C3          1.1410   -0.0970    0.2940 c1        1 PB3     -0.033000
      4 N6         -1.5640   -0.2530    0.2430 n1        1 PB3     -0.148000
      5 C7          8.2960   -0.3620    5.3700 c3        1 PB3     -0.179000
      6 C8         -8.4250   -1.0040   -3.2960 c3        1 PB3     -0.180000
      7 C9          2.6680   -0.0120    0.3170 c1        1 PB3      0.345000
      8 C11         4.6710    0.5210    1.7270 c3        1 PB3      0.003000
      9 C12         5.1800    0.3520    3.1720 c2        1 PB3     -0.118000
     10 C15        -1.6270    0.0700   -2.1870 c2        1 PB3      0.346000
     11 C21        -6.0850   -0.1100   -3.1560 c1        1 PB3     -0.123000
     12 C24        -5.7490   -0.3680   -5.9130 c1        1 PB3     -0.127000
     13 C30         4.3090    0.7940    4.1540 c1        1 PB3     -0.115000
     14 C31         4.7180    0.8310    5.4810 c1        1 PB3     -0.125500
     15 C32         6.0050    0.4240    5.8250 c1        1 PB3     -0.125500
     16 C34         6.4640   -0.0550    3.5140 c2        1 PB3     -0.119000
     17 N4          0.4630   -0.2600    1.4360 n2        1 PB3     -0.148000
     18 C5         -0.8930   -0.3390    1.4190 c1        1 PB3     -0.034000
     19 N10         3.3900   -0.1050    1.5890 n3        1 PB3     -0.340000
     20 N16        -3.0320   -0.0120   -2.2000 n         1 PB3     -0.341000
     21 C17        -3.8030    0.9870   -2.9020 c3        1 PB3     -0.001000
     22 C18        -4.8930    0.2940   -3.7520 c1        1 PB3     -0.112000
     23 C4         -7.1070   -0.6410   -3.9330 c2        1 PB3     -0.069000
     24 C23        -6.9390   -0.7710   -5.3160 c2        1 PB3     -0.123000
     25 C25        -4.7250    0.1640   -5.1330 c1        1 PB3     -0.112000
     26 C6          6.8750   -0.0170    4.8460 c1        1 PB3     -0.073000
     27 O41        -1.0180    0.1860   -3.2260 o         1 PB3     -0.351000
     28 O42         3.2870    0.1220   -0.7260 o         1 PB3     -0.353000
     29 H2          0.9680    0.1090   -1.7300 ha        1 PB3      0.201000
     30 H71         8.6430    0.3930    5.8960 hc        1 PB3      0.083667
     31 H72         8.8920   -0.5320    4.6110 hc        1 PB3      0.083667
     32 H73         8.2520   -1.1640    5.9370 hc        1 PB3      0.083667
     33 H81        -8.2680   -1.3230   -2.3800 hc        1 PB3      0.084333
     34 H82        -8.8520   -1.7040   -3.8120 hc        1 PB3      0.084333
     35 H83        -9.0000   -0.2210   -3.2720 hc        1 PB3      0.084333
     36 H111        4.5910    1.4740    1.5180 h1        1 PB3      0.111000
     37 H112        5.3040    0.1050    1.1090 h1        1 PB3      0.111000
     38 H21        -6.2250    0.0310   -2.1830 ha        1 PB3      0.129000
     39 H24        -5.6290   -0.4620   -6.9050 ha        1 PB3      0.134000
     40 H30         3.4050    1.0800    3.9130 ha        1 PB3      0.152000
     41 H31         4.1090    1.1410    6.1660 ha        1 PB3      0.133000
     42 H32         6.2930    0.4510    6.7610 ha        1 PB3      0.133000
     43 H34         7.0950   -0.2860    2.8230 ha        1 PB3      0.130000
     44 H5         -1.3840   -0.4580    2.2530 ha        1 PB3      0.200000
     45 H10         3.0660   -0.6380    2.2630 hn        1 PB3      0.238000
     46 H16        -3.4620   -0.6360   -1.6660 hn        1 PB3      0.237000
     47 H171       -3.2090    1.5080   -3.4900 h1        1 PB3      0.112500
     48 H172       -4.2300    1.5890   -2.2500 h1        1 PB3      0.112500
     49 H23        -7.6540   -1.1440   -5.8610 ha        1 PB3      0.133000
     50 H25        -3.8950    0.4450   -5.5480 ha        1 PB3      0.141000
@<TRIPOS>BOND
     1    1    4 1   
     2    1   10 1   
     3    2    3 1   
     4    2   29 1   
     5    3   17 1   
     6    5   26 1   
     7    5   30 1   
     8    5   31 1   
     9    5   32 1   
    10    6   23 1   
    11    6   33 1   
    12    6   34 1   
    13    6   35 1   
    14    7   19 1   
    15    7   28 1   
    16    8    9 1   
    17    8   19 1   
    18    8   36 1   
    19    8   37 1   
    20    9   13 1   
    21    9   16 1   
    22   10   20 1   
    23   10   27 1   
    24   11   23 1   
    25   11   38 1   
    26   12   24 1   
    27   12   39 1   
    28   13   40 1   
    29   14   15 1   
    30   14   41 1   
    31   15   42 1   
    32   16   26 1   
    33   16   43 1   
    34   17   18 1   
    35   18   44 1   
    36   19   45 1   
    37   20   21 1   
    38   20   46 1   
    39   21   22 1   
    40   21   47 1   
    41   21   48 1   
    42   22   25 1   
    43   23   24 1   
    44   24   49 1   
    45   25   50 1   
@<TRIPOS>SUBSTRUCTURE
     1 PB3         1 TEMP              0 ****  ****    0 ROOT
