@<TRIPOS>MOLECULE
PB3
   52    54     1     0     0
SMALL
bcc


@<TRIPOS>ATOM
      1 C1         -0.1420   -0.0130    0.2320 ca        1 PB3      0.364800
      2 C2          1.2740   -0.0000    0.2060 ca        1 PB3     -0.213600
      3 C3          1.9180    0.0140    1.4670 ca        1 PB3      0.364800
      4 N6         -0.8480   -0.0120    1.3870 nb        1 PB3     -0.649000
      5 C7          7.5000    2.5160    6.6220 c3        1 PB3     -0.073800
      6 C8         -7.3190   -2.5170   -2.2600 c3        1 PB3     -0.073800
      7 C9          3.4170    0.0290    1.4780 c         1 PB3      0.438600
      8 C11         5.6030    0.0350    2.7210 c3        1 PB3      0.189100
      9 C12         6.1850    0.0300    4.0860 ca        1 PB3     -0.204300
     10 C15        -0.8580   -0.0290   -1.0850 c         1 PB3      0.438600
     11 C21        -5.1650   -1.2430   -2.2960 ca        1 PB3     -0.103000
     12 C24        -6.5450    1.1850   -2.1710 ca        1 PB3     -0.111000
     13 C30         6.4520   -1.1860    4.7260 ca        1 PB3     -0.104000
     14 C31         7.0510   -1.1850    5.9850 ca        1 PB3     -0.111000
     15 C32         7.3820    0.0210    6.6030 ca        1 PB3     -0.070000
     16 C34         6.5160    1.2420    4.7060 ca        1 PB3     -0.103000
     17 N4          1.2320    0.0150    2.6340 nb        1 PB3     -0.649000
     18 C5         -0.1260    0.0020    2.5400 ca        1 PB3      0.689900
     19 N10         4.0890    0.0360    2.8100 n4        1 PB3     -0.660800
     20 N16        -2.3490   -0.0350   -1.0500 n4        1 PB3     -0.660800
     21 C17        -2.9840   -0.0360   -2.4280 c3        1 PB3      0.189100
     22 C18        -4.4620   -0.0310   -2.2980 ca        1 PB3     -0.204300
     23 C4         -6.5620   -1.2440   -2.2350 ca        1 PB3     -0.051300
     24 C23        -7.2460   -0.0210   -2.1690 ca        1 PB3     -0.070000
     25 C25        -5.1520    1.1860   -2.2350 ca        1 PB3     -0.104000
     26 C6          7.1200    1.2440    5.9670 ca        1 PB3     -0.051300
     27 O41        -0.2880   -0.0360   -2.1660 o         1 PB3     -0.371100
     28 O42         4.1020    0.0350    0.4660 o         1 PB3     -0.371100
     29 H2          1.8420   -0.0010   -0.7420 ha        1 PB3      0.224000
     30 H71         7.0090    3.3930    6.1330 hc        1 PB3      0.067033
     31 H72         7.2120    2.5050    7.7030 hc        1 PB3      0.067033
     32 H73         8.6100    2.6580    6.5610 hc        1 PB3      0.067033
     33 H81        -6.6570   -3.3930   -2.0540 hc        1 PB3      0.067033
     34 H82        -7.7870   -2.6600   -3.2680 hc        1 PB3      0.067033
     35 H83        -8.1370   -2.5040   -1.4970 hc        1 PB3      0.067033
     36 H111        5.9060    0.9520    2.1390 hx        1 PB3      0.117700
     37 H112        5.9030   -0.8830    2.1360 hx        1 PB3      0.117700
     38 H21        -4.6250   -2.1990   -2.3700 ha        1 PB3      0.138000
     39 H24        -7.0930    2.1400   -2.1320 ha        1 PB3      0.166000
     40 H30         6.2170   -2.1420    4.2330 ha        1 PB3      0.137000
     41 H31         7.2740   -2.1400    6.4880 ha        1 PB3      0.166000
     42 H32         7.8630    0.0170    7.5960 ha        1 PB3      0.169000
     43 H34         6.3280    2.1980    4.1930 ha        1 PB3      0.138000
     44 H5         -0.7010    0.0030    3.4990 h5        1 PB3      0.118100
     45 H10         3.7890    0.8690    3.3370 hn        1 PB3      0.475800
     46 H16        -2.6730   -0.8670   -0.5360 hn        1 PB3      0.475800
     47 H171       -2.6130   -0.9550   -2.9680 hx        1 PB3      0.117700
     48 H172       -2.6090    0.8800   -2.9700 hx        1 PB3      0.117700
     49 H23        -8.3480   -0.0170   -2.1260 ha        1 PB3      0.169000
     50 H25        -4.6060    2.1410   -2.2620 ha        1 PB3      0.137000
     51 H102        3.7890   -0.7910    3.3470 hn        1 PB3      0.475800
     52 H162       -2.6820    0.7920   -0.5340 hn        1 PB3      0.475800
@<TRIPOS>BOND
     1    1    2 ar  
     2    1    4 ar  
     3    1   10 1   
     4    2    3 ar  
     5    2   29 1   
     6    3    7 1   
     7    3   17 ar  
     8    4   18 ar  
     9    5   26 1   
    10    5   30 1   
    11    5   31 1   
    12    5   32 1   
    13    6   23 1   
    14    6   33 1   
    15    6   34 1   
    16    6   35 1   
    17    7   19 1   
    18    7   28 2   
    19    8    9 1   
    20    8   19 1   
    21    8   36 1   
    22    8   37 1   
    23    9   13 ar  
    24    9   16 ar  
    25   10   20 1   
    26   10   27 2   
    27   11   22 ar  
    28   11   23 ar  
    29   11   38 1   
    30   12   24 ar  
    31   12   25 ar  
    32   12   39 1   
    33   13   14 ar  
    34   13   40 1   
    35   14   15 ar  
    36   14   41 1   
    37   15   26 ar  
    38   15   42 1   
    39   16   26 ar  
    40   16   43 1   
    41   17   18 ar  
    42   18   44 1   
    43   19   45 1   
    44   19   51 1   
    45   20   21 1   
    46   20   46 1   
    47   20   52 1   
    48   21   22 1   
    49   21   47 1   
    50   21   48 1   
    51   22   25 ar  
    52   23   24 ar  
    53   24   49 1   
    54   25   50 1   
@<TRIPOS>SUBSTRUCTURE
     1 PB3         1 TEMP              0 ****  ****    0 ROOT
