@<TRIPOS>MOLECULE
PB3
   52    54     1     0     0
SMALL
bcc


@<TRIPOS>ATOM
      1 C1         -0.1430   -0.0130    0.2340 ca        1 PB3      0.364800
      2 C2          1.2730   -0.0010    0.2080 ca        1 PB3     -0.213600
      3 C3          1.9170    0.0130    1.4680 ca        1 PB3      0.364800
      4 N6         -0.8490   -0.0130    1.3890 nb        1 PB3     -0.649000
      5 C7          7.5080    2.5180    6.6150 c3        1 PB3     -0.073800
      6 C8         -7.3190   -2.5170   -2.2680 c3        1 PB3     -0.073800
      7 C9          3.4160    0.0270    1.4790 c         1 PB3      0.438600
      8 C11         5.6030    0.0330    2.7210 c3        1 PB3      0.189100
      9 C12         6.1850    0.0300    4.0860 ca        1 PB3     -0.204300
     10 C15        -0.8590   -0.0280   -1.0830 c         1 PB3      0.438600
     11 C21        -5.1660   -1.2420   -2.3000 ca        1 PB3     -0.103000
     12 C24        -6.5460    1.1840   -2.1630 ca        1 PB3     -0.111000
     13 C30         6.4490   -1.1860    4.7290 ca        1 PB3     -0.105000
     14 C31         7.0490   -1.1830    5.9870 ca        1 PB3     -0.111000
     15 C32         7.3830    0.0230    6.6020 ca        1 PB3     -0.070000
     16 C34         6.5200    1.2420    4.7030 ca        1 PB3     -0.103000
     17 N4          1.2310    0.0140    2.6360 nb        1 PB3     -0.649000
     18 C5         -0.1260    0.0010    2.5410 ca        1 PB3      0.689900
     19 N10         4.0880    0.0350    2.8110 n4        1 PB3     -0.660800
     20 N16        -2.3500   -0.0360   -1.0480 n4        1 PB3     -0.660800
     21 C17        -2.9850   -0.0340   -2.4260 c3        1 PB3      0.189100
     22 C18        -4.4630   -0.0310   -2.2960 ca        1 PB3     -0.204300
     23 C4         -6.5630   -1.2450   -2.2380 ca        1 PB3     -0.051300
     24 C23        -7.2470   -0.0220   -2.1670 ca        1 PB3     -0.070000
     25 C25        -5.1540    1.1860   -2.2280 ca        1 PB3     -0.105000
     26 C6          7.1240    1.2460    5.9640 ca        1 PB3     -0.051300
     27 O41        -0.2890   -0.0350   -2.1650 o         1 PB3     -0.371100
     28 O42         4.1010    0.0320    0.4670 o         1 PB3     -0.371100
     29 H2          1.8410   -0.0020   -0.7400 ha        1 PB3      0.224000
     30 H71         7.0190    3.3950    6.1250 hc        1 PB3      0.067033
     31 H72         7.2210    2.5100    7.6970 hc        1 PB3      0.067033
     32 H73         8.6190    2.6560    6.5530 hc        1 PB3      0.067033
     33 H81        -8.1380   -2.5080   -1.5050 hc        1 PB3      0.067033
     34 H82        -7.7880   -2.6560   -3.2770 hc        1 PB3      0.067033
     35 H83        -6.6570   -3.3940   -2.0670 hc        1 PB3      0.067033
     36 H111        5.9020   -0.8850    2.1370 hx        1 PB3      0.117700
     37 H112        5.9060    0.9490    2.1370 hx        1 PB3      0.117700
     38 H21        -4.6250   -2.1980   -2.3770 ha        1 PB3      0.139000
     39 H24        -7.0950    2.1390   -2.1200 ha        1 PB3      0.166000
     40 H30         6.2120   -2.1420    4.2380 ha        1 PB3      0.137000
     41 H31         7.2690   -2.1380    6.4930 ha        1 PB3      0.166000
     42 H32         7.8640    0.0200    7.5950 ha        1 PB3      0.169000
     43 H34         6.3340    2.1980    4.1880 ha        1 PB3      0.139000
     44 H5         -0.7010    0.0020    3.5010 h5        1 PB3      0.118100
     45 H10         3.7890    0.8690    3.3370 hn        1 PB3      0.475800
     46 H16        -2.6740   -0.8680   -0.5350 hn        1 PB3      0.475800
     47 H171       -2.6140   -0.9520   -2.9680 hx        1 PB3      0.117700
     48 H172       -2.6110    0.8830   -2.9660 hx        1 PB3      0.117700
     49 H23        -8.3500   -0.0180   -2.1230 ha        1 PB3      0.169000
     50 H25        -4.6090    2.1410   -2.2510 ha        1 PB3      0.137000
     51 H102        3.7880   -0.7910    3.3490 hn        1 PB3      0.475800
     52 H162       -2.6830    0.7910   -0.5310 hn        1 PB3      0.475800
@<TRIPOS>BOND
     1    1    2 ar  
     2    1    4 ar  
     3    1   10 1   
     4    2    3 ar  
     5    2   29 1   
     6    3    7 1   
     7    3   17 ar  
     8    4   18 ar  
     9    5   26 1   
    10    5   30 1   
    11    5   31 1   
    12    5   32 1   
    13    6   23 1   
    14    6   33 1   
    15    6   34 1   
    16    6   35 1   
    17    7   19 1   
    18    7   28 2   
    19    8    9 1   
    20    8   19 1   
    21    8   36 1   
    22    8   37 1   
    23    9   13 ar  
    24    9   16 ar  
    25   10   20 1   
    26   10   27 2   
    27   11   22 ar  
    28   11   23 ar  
    29   11   38 1   
    30   12   24 ar  
    31   12   25 ar  
    32   12   39 1   
    33   13   14 ar  
    34   13   40 1   
    35   14   15 ar  
    36   14   41 1   
    37   15   26 ar  
    38   15   42 1   
    39   16   26 ar  
    40   16   43 1   
    41   17   18 ar  
    42   18   44 1   
    43   19   45 1   
    44   19   51 1   
    45   20   21 1   
    46   20   46 1   
    47   20   52 1   
    48   21   22 1   
    49   21   47 1   
    50   21   48 1   
    51   22   25 ar  
    52   23   24 ar  
    53   24   49 1   
    54   25   50 1   
@<TRIPOS>SUBSTRUCTURE
     1 PB3         1 TEMP              0 ****  ****    0 ROOT
