@<TRIPOS>MOLECULE
PB3
   52    54     1     0     0
SMALL
bcc


@<TRIPOS>ATOM
      1 C1         -0.1430   -0.0110    0.2330 ca        1 PB3      0.364800
      2 C2          1.2730    0.0000    0.2070 ca        1 PB3     -0.213600
      3 C3          1.9170    0.0130    1.4680 ca        1 PB3      0.364800
      4 N6         -0.8490   -0.0080    1.3880 nb        1 PB3     -0.649000
      5 C7          7.5090    2.5090    6.6180 c3        1 PB3     -0.073800
      6 C8         -7.3210   -2.5100   -2.2610 c3        1 PB3     -0.073800
      7 C9          3.4160    0.0250    1.4790 c         1 PB3      0.438600
      8 C11         5.6030    0.0290    2.7210 c3        1 PB3      0.189100
      9 C12         6.1840    0.0240    4.0850 ca        1 PB3     -0.204300
     10 C15        -0.8590   -0.0250   -1.0840 c         1 PB3      0.438600
     11 C21        -5.1670   -1.2370   -2.2970 ca        1 PB3     -0.103000
     12 C24        -6.5450    1.1900   -2.1680 ca        1 PB3     -0.111000
     13 C30         6.4490   -1.1930    4.7270 ca        1 PB3     -0.104500
     14 C31         7.0480   -1.1910    5.9850 ca        1 PB3     -0.111000
     15 C32         7.3830    0.0140    6.6020 ca        1 PB3     -0.070000
     16 C34         6.5200    1.2350    4.7040 ca        1 PB3     -0.103000
     17 N4          1.2310    0.0160    2.6350 nb        1 PB3     -0.649000
     18 C5         -0.1260    0.0050    2.5410 ca        1 PB3      0.689900
     19 N10         4.0880    0.0330    2.8100 ny        1 PB3     -0.660800
     20 N16        -2.3500   -0.0310   -1.0490 ny        1 PB3     -0.660800
     21 C17        -2.9850   -0.0310   -2.4270 c3        1 PB3      0.189100
     22 C18        -4.4630   -0.0260   -2.2970 ca        1 PB3     -0.204300
     23 C4         -6.5630   -1.2380   -2.2350 ca        1 PB3     -0.051300
     24 C23        -7.2470   -0.0140   -2.1680 ca        1 PB3     -0.070000
     25 C25        -5.1530    1.1910   -2.2330 ca        1 PB3     -0.104500
     26 C6          7.1240    1.2370    5.9650 ca        1 PB3     -0.051300
     27 O41        -0.2890   -0.0330   -2.1660 o         1 PB3     -0.371100
     28 O42         4.1010    0.0300    0.4660 o         1 PB3     -0.371100
     29 H2          1.8410   -0.0020   -0.7410 ha        1 PB3      0.224000
     30 H71         7.0210    3.3870    6.1280 hc        1 PB3      0.067033
     31 H72         7.2210    2.5000    7.6990 hc        1 PB3      0.067033
     32 H73         8.6200    2.6470    6.5560 hc        1 PB3      0.067033
     33 H81        -8.1370   -2.4990   -1.4960 hc        1 PB3      0.067033
     34 H82        -7.7930   -2.6510   -3.2680 hc        1 PB3      0.067033
     35 H83        -6.6580   -3.3870   -2.0610 hc        1 PB3      0.067033
     36 H111        5.9010   -0.8890    2.1360 hx        1 PB3      0.117700
     37 H112        5.9070    0.9450    2.1380 hx        1 PB3      0.117700
     38 H21        -4.6260   -2.1930   -2.3720 ha        1 PB3      0.138500
     39 H24        -7.0940    2.1460   -2.1280 ha        1 PB3      0.166000
     40 H30         6.2110   -2.1480    4.2350 ha        1 PB3      0.137000
     41 H31         7.2680   -2.1470    6.4900 ha        1 PB3      0.166000
     42 H32         7.8640    0.0090    7.5950 ha        1 PB3      0.169000
     43 H34         6.3350    2.1920    4.1900 ha        1 PB3      0.138500
     44 H5         -0.7010    0.0070    3.5000 h5        1 PB3      0.118100
     45 H10         3.7900    0.8660    3.3370 hn        1 PB3      0.475800
     46 H16        -2.6750   -0.8630   -0.5350 hn        1 PB3      0.475800
     47 H171       -2.6140   -0.9490   -2.9670 hx        1 PB3      0.117700
     48 H172       -2.6100    0.8850   -2.9690 hx        1 PB3      0.117700
     49 H23        -8.3500   -0.0100   -2.1250 ha        1 PB3      0.169000
     50 H25        -4.6070    2.1460   -2.2590 ha        1 PB3      0.137000
     51 H102        3.7870   -0.7930    3.3480 hn        1 PB3      0.475800
     52 H162       -2.6820    0.7970   -0.5330 hn        1 PB3      0.475800
@<TRIPOS>BOND
     1    1    2 ar  
     2    1    4 ar  
     3    1   10 1   
     4    2    3 ar  
     5    2   29 1   
     6    3    7 1   
     7    3   17 ar  
     8    4   18 ar  
     9    5   26 1   
    10    5   30 1   
    11    5   31 1   
    12    5   32 1   
    13    6   23 1   
    14    6   33 1   
    15    6   34 1   
    16    6   35 1   
    17    7   19 1   
    18    7   28 2   
    19    8    9 1   
    20    8   19 1   
    21    8   36 1   
    22    8   37 1   
    23    9   13 ar  
    24    9   16 ar  
    25   10   20 1   
    26   10   27 2   
    27   11   22 ar  
    28   11   23 ar  
    29   11   38 1   
    30   12   24 ar  
    31   12   25 ar  
    32   12   39 1   
    33   13   14 ar  
    34   13   40 1   
    35   14   15 ar  
    36   14   41 1   
    37   15   26 ar  
    38   15   42 1   
    39   16   26 ar  
    40   16   43 1   
    41   17   18 ar  
    42   18   44 1   
    43   19   45 1   
    44   19   51 1   
    45   20   21 1   
    46   20   46 1   
    47   20   52 1   
    48   21   22 1   
    49   21   47 1   
    50   21   48 1   
    51   22   25 ar  
    52   23   24 ar  
    53   24   49 1   
    54   25   50 1   
@<TRIPOS>SUBSTRUCTURE
     1 PB3         1 TEMP              0 ****  ****    0 ROOT
