@<TRIPOS>MOLECULE
PB3
   50    52     1     0     0
SMALL
bcc


@<TRIPOS>ATOM
      1 C1         -0.3980    0.1310   -1.1970 ca        1 PB3      0.384800
      2 C2         -1.1350   -0.0060    0.0000 ca        1 PB3     -0.256600
      3 C3         -0.3970   -0.1360    1.1970 ca        1 PB3      0.384800
      4 N6          0.9570    0.1400   -1.2090 nb        1 PB3     -0.674000
      5 C7          2.7380   -0.8140    7.8210 c3        1 PB3     -0.054800
      6 C8          2.7320    0.8350   -7.8210 c3        1 PB3     -0.054800
      7 C9         -1.1780   -0.2490    2.4880 c         1 PB3      0.562600
      8 C11        -1.2530   -1.0650    4.8060 c3        1 PB3      0.122300
      9 C12        -0.4770   -0.3540    5.8780 ca        1 PB3     -0.119300
     10 C15        -1.1800    0.2370   -2.4880 c         1 PB3      0.562600
     11 C21         0.7310    0.8870   -6.3240 ca        1 PB3     -0.123000
     12 C24        -0.2420   -1.4670   -7.4530 ca        1 PB3     -0.127000
     13 C30        -0.9720    0.8240    6.4420 ca        1 PB3     -0.112000
     14 C31        -0.2560    1.4640    7.4530 ca        1 PB3     -0.127000
     15 C32         0.9540    0.9350    7.8990 ca        1 PB3     -0.123000
     16 C34         0.7370   -0.8830    6.3240 ca        1 PB3     -0.123000
     17 N4          0.9580   -0.1340    1.2090 nb        1 PB3     -0.674000
     18 C5          1.5620    0.0060    0.0000 ca        1 PB3      0.627900
     19 N10        -0.6400   -1.0120    3.5010 n         1 PB3     -0.531900
     20 N16        -0.6480    1.0050   -3.5010 n         1 PB3     -0.531900
     21 C17        -1.2610    1.0530   -4.8060 c3        1 PB3      0.122300
     22 C18        -0.4790    0.3490   -5.8780 ca        1 PB3     -0.119300
     23 C4          1.4580    0.2540   -7.3370 ca        1 PB3     -0.076300
     24 C23         0.9630   -0.9290   -7.8990 ca        1 PB3     -0.123000
     25 C25        -0.9640   -0.8340   -6.4420 ca        1 PB3     -0.112000
     26 C6          1.4600   -0.2440    7.3370 ca        1 PB3     -0.076300
     27 O41        -2.3030   -0.2990   -2.5630 o         1 PB3     -0.590100
     28 O42        -2.3050    0.2780    2.5630 o         1 PB3     -0.590100
     29 H2         -2.2360   -0.0100   -0.0000 ha        1 PB3      0.202000
     30 H71         2.5490   -1.4760    8.7040 hc        1 PB3      0.045033
     31 H72         3.2330   -1.4240    7.0260 hc        1 PB3      0.045033
     32 H73         3.4420   -0.0050    8.1360 hc        1 PB3      0.045033
     33 H81         2.5380    1.4960   -8.7030 hc        1 PB3      0.045033
     34 H82         3.2220    1.4490   -7.0260 hc        1 PB3      0.045033
     35 H83         3.4430    0.0320   -8.1360 hc        1 PB3      0.045033
     36 H111       -1.3390   -2.1560    5.0890 h1        1 PB3      0.073200
     37 H112       -2.2960   -0.6380    4.7390 h1        1 PB3      0.073200
     38 H21         1.1120    1.8190   -5.8790 ha        1 PB3      0.129000
     39 H24        -0.6260   -2.3970   -7.8980 ha        1 PB3      0.134000
     40 H30        -1.9240    1.2480    6.0870 ha        1 PB3      0.141000
     41 H31        -0.6460    2.3910    7.8980 ha        1 PB3      0.134000
     42 H32         1.5170    1.4440    8.6950 ha        1 PB3      0.133000
     43 H34         1.1260   -1.8120    5.8800 ha        1 PB3      0.129000
     44 H5          2.6730    0.0100    0.0000 h5        1 PB3      0.063100
     45 H10         0.3280   -1.2400    3.4650 hn        1 PB3      0.323500
     46 H16         0.3180    1.2410   -3.4650 hn        1 PB3      0.323500
     47 H171       -1.3560    2.1430   -5.0890 h1        1 PB3      0.073200
     48 H172       -2.3010    0.6180   -4.7400 h1        1 PB3      0.073200
     49 H23         1.5300   -1.4330   -8.6950 ha        1 PB3      0.133000
     50 H25        -1.9130   -1.2650   -6.0870 ha        1 PB3      0.141000
@<TRIPOS>BOND
     1    1    2 ar  
     2    1    4 ar  
     3    1   10 1   
     4    2    3 ar  
     5    2   29 1   
     6    3    7 1   
     7    3   17 ar  
     8    4   18 ar  
     9    5   26 1   
    10    5   30 1   
    11    5   31 1   
    12    5   32 1   
    13    6   23 1   
    14    6   33 1   
    15    6   34 1   
    16    6   35 1   
    17    7   19 1   
    18    7   28 2   
    19    8    9 1   
    20    8   19 1   
    21    8   36 1   
    22    8   37 1   
    23    9   13 ar  
    24    9   16 ar  
    25   10   20 1   
    26   10   27 2   
    27   11   22 ar  
    28   11   23 ar  
    29   11   38 1   
    30   12   24 ar  
    31   12   25 ar  
    32   12   39 1   
    33   13   14 ar  
    34   13   40 1   
    35   14   15 ar  
    36   14   41 1   
    37   15   26 ar  
    38   15   42 1   
    39   16   26 ar  
    40   16   43 1   
    41   17   18 ar  
    42   18   44 1   
    43   19   45 1   
    44   20   21 1   
    45   20   46 1   
    46   21   22 1   
    47   21   47 1   
    48   21   48 1   
    49   22   25 ar  
    50   23   24 ar  
    51   24   49 1   
    52   25   50 1   
@<TRIPOS>SUBSTRUCTURE
     1 PB3         1 TEMP              0 ****  ****    0 ROOT
