@<TRIPOS>MOLECULE
PB4
   50    52     1     0     0
SMALL
bcc


@<TRIPOS>ATOM
      1 C1         -0.0200    0.4290   -1.2970 ca        1 PB4      0.385800
      2 C2          0.6370   -0.0720   -0.1510 ca        1 PB4     -0.256600
      3 C3         -0.1360   -0.2000    1.0250 ca        1 PB4      0.385800
      4 C7         -1.7840   -0.7060    8.7520 c3        1 PB4     -0.053800
      5 C8          0.1440   -2.6010   -7.0710 c3        1 PB4     -0.053800
      6 C9          0.5660   -0.7060    2.2660 c         1 PB4      0.561600
      7 C10         0.4080   -1.9090    4.4010 c3        1 PB4      0.129300
      8 C11         0.2290   -0.9610    5.5530 ca        1 PB4     -0.139300
      9 C12         0.7900    0.5420   -2.5690 c         1 PB4      0.561600
     10 C13         1.1590    1.6950   -4.7070 c3        1 PB4      0.129300
     11 C14         0.4950    0.9670   -5.8420 ca        1 PB4     -0.139300
     12 C15         0.6010   -0.4240   -5.9240 ca        1 PB4     -0.093500
     13 C16        -0.6820   -0.4050   -7.9700 ca        1 PB4      0.128400
     14 C19         0.9980    0.2070    5.6120 ca        1 PB4     -0.095500
     15 C20         0.8630    1.0820    6.6820 ca        1 PB4     -0.164500
     16 C21        -0.0510    0.7880    7.7120 ca        1 PB4      0.128400
     17 C22        -0.6780   -1.2480    6.5730 ca        1 PB4     -0.093500
     18 N1         -1.4470    0.1360    1.0640 nb        1 PB4     -0.673000
     19 C5         -1.9740    0.6080   -0.0970 ca        1 PB4      0.629900
     20 N2         -1.3300    0.7760   -1.2810 nb        1 PB4     -0.673000
     21 N3         -0.1640   -1.4650    3.1550 n         1 PB4     -0.531900
     22 N4          0.4910    1.5720   -3.4350 n         1 PB4     -0.531900
     23 C6          0.0210   -1.1290   -6.9800 ca        1 PB4     -0.109300
     24 C17        -0.7900    0.9950   -7.8900 ca        1 PB4     -0.164500
     25 C18        -0.2020    1.6720   -6.8260 ca        1 PB4     -0.095500
     26 C4         -0.8320   -0.3890    7.6640 ca        1 PB4     -0.109300
     27 O1          1.7390   -0.2450   -2.7590 o         1 PB4     -0.593100
     28 O2          1.7850   -0.4870    2.4080 o         1 PB4     -0.593100
     29 F1         -0.1770    1.6460    8.7520 f         1 PB4     -0.139900
     30 F2         -1.2600   -1.0560   -9.0080 f         1 PB4     -0.139900
     31 H2          1.7020   -0.3490   -0.1730 ha        1 PB4      0.201000
     32 H71        -1.2340   -1.1400    9.6250 hc        1 PB4      0.051367
     33 H72        -2.3050    0.2220    9.0980 hc        1 PB4      0.051367
     34 H73        -2.5510   -1.4440    8.4140 hc        1 PB4      0.051367
     35 H81         0.9120   -2.8730   -7.8380 hc        1 PB4      0.051367
     36 H82         0.4510   -3.0420   -6.0910 hc        1 PB4      0.051367
     37 H83        -0.8310   -3.0560   -7.3800 hc        1 PB4      0.051367
     38 H101        1.5140   -2.0800    4.2440 h1        1 PB4      0.072950
     39 H102       -0.0720   -2.9000    4.6510 h1        1 PB4      0.072950
     40 H131        2.2130    1.3030   -4.5940 h1        1 PB4      0.072950
     41 H132        1.2120    2.7960   -4.9470 h1        1 PB4      0.072950
     42 H15         1.1530   -0.9690   -5.1380 ha        1 PB4      0.147000
     43 H19         1.7130    0.4270    4.8000 ha        1 PB4      0.147000
     44 H20         1.4630    2.0020    6.7370 ha        1 PB4      0.150000
     45 H22        -1.2840   -2.1670    6.5270 ha        1 PB4      0.147000
     46 H5         -3.0480    0.8880   -0.0740 h5        1 PB4      0.065100
     47 HN3        -1.1580   -1.4220    3.1150 hn        1 PB4      0.325500
     48 HN4        -0.3940    2.0200   -3.3540 hn        1 PB4      0.325500
     49 H17        -1.3390    1.5420   -8.6700 ha        1 PB4      0.150000
     50 H18        -0.2870    2.7680   -6.7670 ha        1 PB4      0.147000
@<TRIPOS>BOND
     1    1    2 ar  
     2    1    9 1   
     3    1   20 ar  
     4    2    3 ar  
     5    2   31 1   
     6    3    6 1   
     7    3   18 ar  
     8    4   26 1   
     9    4   32 1   
    10    4   33 1   
    11    4   34 1   
    12    5   23 1   
    13    5   35 1   
    14    5   36 1   
    15    5   37 1   
    16    6   21 1   
    17    6   28 2   
    18    7    8 1   
    19    7   21 1   
    20    7   38 1   
    21    7   39 1   
    22    8   14 ar  
    23    8   17 ar  
    24    9   22 1   
    25    9   27 2   
    26   10   11 1   
    27   10   22 1   
    28   10   40 1   
    29   10   41 1   
    30   11   12 ar  
    31   11   25 ar  
    32   12   23 ar  
    33   12   42 1   
    34   13   23 ar  
    35   13   24 ar  
    36   13   30 1   
    37   14   15 ar  
    38   14   43 1   
    39   15   16 ar  
    40   15   44 1   
    41   16   26 ar  
    42   16   29 1   
    43   17   26 ar  
    44   17   45 1   
    45   18   19 ar  
    46   19   20 ar  
    47   19   46 1   
    48   21   47 1   
    49   22   48 1   
    50   24   25 ar  
    51   24   49 1   
    52   25   50 1   
@<TRIPOS>SUBSTRUCTURE
     1 PB4         1 TEMP              0 ****  ****    0 ROOT
