@<TRIPOS>MOLECULE
PB4
   50    45     1     0     0
SMALL
bcc


@<TRIPOS>ATOM
      1 C1          0.6480    0.6770   -1.5390 c1        1 PB4     -0.033000
      2 C2          2.0170    0.6040   -1.5570 c1        1 PB4     -0.125000
      3 C3          2.7190    0.6330   -0.3790 c1        1 PB4     -0.033000
      4 C7          1.6350   -3.0780    4.5490 c3        1 PB4     -0.180000
      5 C8         -7.0810    2.5770   -3.4360 c3        1 PB4     -0.178000
      6 C9          4.1270    0.3720    0.2290 c1        1 PB4      0.344000
      7 C10         5.2820   -0.2750    2.3510 c3        1 PB4      0.006000
      8 C11         4.5940   -0.8570    3.5980 c2        1 PB4     -0.132000
      9 C12        -0.1350    0.7450   -2.8630 c2        1 PB4      0.344000
     10 C13        -2.2930    1.0040   -4.0690 c3        1 PB4      0.006000
     11 C14        -3.7670    0.6810   -3.8430 c2        1 PB4     -0.132000
     12 C15        -4.6960    1.7160   -3.7210 c2        1 PB4     -0.097000
     13 C16        -6.4630    0.1040   -3.4770 c1        1 PB4      0.093500
     14 C19         5.0090   -0.4700    4.8680 c1        1 PB4     -0.100000
     15 C20         4.3560   -0.9620    5.9920 c1        1 PB4     -0.165000
     16 C21         3.2880   -1.8390    5.8470 c1        1 PB4      0.093500
     17 C22         3.5300   -1.7310    3.4530 c2        1 PB4     -0.091000
     18 N1          2.0660    0.7340    0.7860 n2        1 PB4     -0.147000
     19 C5          0.6990    0.8080    0.8020 c1        1 PB4     -0.033000
     20 N2         -0.0020    0.7780   -0.3720 n1        1 PB4     -0.147000
     21 N3          4.3510    0.5720    1.6390 n3        1 PB4     -0.341000
     22 N4         -1.5710    0.8220   -2.8460 n         1 PB4     -0.341000
     23 C6         -6.0430    1.4230   -3.5380 c1        1 PB4     -0.105000
     24 C17        -5.5340   -0.9280   -3.5990 c1        1 PB4     -0.165000
     25 C18        -4.1840   -0.6320   -3.7820 c1        1 PB4     -0.092000
     26 C4          2.8750   -2.2240    4.5810 c1        1 PB4     -0.100000
     27 O1          0.4600    0.7210   -3.9240 o         1 PB4     -0.353000
     28 O2          5.0590    0.0660   -0.5000 o         1 PB4     -0.353000
     29 F1          2.5870   -2.2230    6.9260 f         1 PB4     -0.105000
     30 F2         -7.7060   -0.3310   -3.2540 f         1 PB4     -0.105000
     31 H2          2.4890    0.4620   -2.4040 ha        1 PB4      0.205000
     32 H71         0.9160   -2.6300    5.0460 hc        1 PB4      0.091667
     33 H72         1.3550   -3.2140    3.6190 hc        1 PB4      0.091667
     34 H73         1.8270   -3.9520    4.9660 hc        1 PB4      0.091667
     35 H81        -7.5660    2.5080   -2.5830 hc        1 PB4      0.090000
     36 H82        -6.6160    3.4380   -3.4780 hc        1 PB4      0.090000
     37 H83        -7.7210    2.5130   -4.1850 hc        1 PB4      0.090000
     38 H101        6.0650    0.2550    2.6270 h1        1 PB4      0.112000
     39 H102        5.5710   -1.0070    1.7660 h1        1 PB4      0.112000
     40 H131       -1.9280    0.4060   -4.7580 h1        1 PB4      0.112000
     41 H132       -2.2050    1.9310   -4.3640 h1        1 PB4      0.112000
     42 H15        -4.4140    2.6390   -3.8560 ha        1 PB4      0.135000
     43 H19         5.7610    0.1470    4.9700 ha        1 PB4      0.135000
     44 H20         4.6490   -0.6890    6.8890 ha        1 PB4      0.150500
     45 H22         3.2330   -1.9920    2.5660 ha        1 PB4      0.160000
     46 H5          0.2210    0.8810    1.6550 ha        1 PB4      0.201000
     47 HN3         3.9110    1.2310    2.0780 hn        1 PB4      0.239000
     48 HN4        -2.0170    0.8020   -2.0540 hn        1 PB4      0.239000
     49 H17        -5.8290   -1.8590   -3.5560 ha        1 PB4      0.150500
     50 H18        -3.5310   -1.3570   -3.8680 ha        1 PB4      0.160000
@<TRIPOS>BOND
     1    1    9 1   
     2    1   20 1   
     3    2    3 1   
     4    2   31 1   
     5    3   18 1   
     6    4   26 1   
     7    4   32 1   
     8    4   33 1   
     9    4   34 1   
    10    5   23 1   
    11    5   35 1   
    12    5   36 1   
    13    5   37 1   
    14    6   21 1   
    15    6   28 1   
    16    7    8 1   
    17    7   21 1   
    18    7   38 1   
    19    7   39 1   
    20    8   14 1   
    21    8   17 1   
    22    9   22 1   
    23    9   27 1   
    24   10   11 1   
    25   10   22 1   
    26   10   40 1   
    27   10   41 1   
    28   11   12 1   
    29   11   25 1   
    30   12   23 1   
    31   12   42 1   
    32   13   24 1   
    33   13   30 1   
    34   14   43 1   
    35   15   16 1   
    36   15   44 1   
    37   16   29 1   
    38   17   26 1   
    39   17   45 1   
    40   18   19 1   
    41   19   46 1   
    42   21   47 1   
    43   22   48 1   
    44   24   49 1   
    45   25   50 1   
@<TRIPOS>SUBSTRUCTURE
     1 PB4         1 TEMP              0 ****  ****    0 ROOT
