@<TRIPOS>MOLECULE
PB4
   52    54     1     0     0
SMALL
bcc


@<TRIPOS>ATOM
      1 C1         -0.1420   -0.0520    0.2290 ca        1 PB4      0.364800
      2 C2          1.2730   -0.0770    0.2040 ca        1 PB4     -0.213600
      3 C3          1.9170   -0.0510    1.4650 ca        1 PB4      0.364800
      4 C7          7.4910   -2.4210    6.6970 c3        1 PB4     -0.071800
      5 C8         -7.3810   -2.4270   -2.2250 c3        1 PB4     -0.071800
      6 C9          3.4160   -0.0770    1.4770 c         1 PB4      0.438600
      7 C10         5.6030   -0.0520    2.7190 c3        1 PB4      0.193100
      8 C11         6.1870   -0.0030    4.0810 ca        1 PB4     -0.228300
      9 C12        -0.8590   -0.0790   -1.0880 c         1 PB4      0.438600
     10 C13        -2.9840   -0.0560   -2.4330 c3        1 PB4      0.193100
     11 C14        -4.4600   -0.0070   -2.3070 ca        1 PB4     -0.228300
     12 C15        -5.1990   -1.1970   -2.2840 ca        1 PB4     -0.076000
     13 C16        -7.2490    0.0820   -2.1880 ca        1 PB4      0.196900
     14 C19         6.4700    1.2340    4.6760 ca        1 PB4     -0.075000
     15 C20         7.0680    1.2860    5.9270 ca        1 PB4     -0.158000
     16 C21         7.3940    0.0880    6.5970 ca        1 PB4      0.196900
     17 C22         6.5150   -1.1930    4.7450 ca        1 PB4     -0.076000
     18 N1          1.2310   -0.0060    2.6310 nb        1 PB4     -0.649000
     19 C5         -0.1260    0.0140    2.5360 ca        1 PB4      0.690900
     20 N2         -0.8490   -0.0070    1.3830 nb        1 PB4     -0.649000
     21 N3          4.0880   -0.0410    2.8080 ny        1 PB4     -0.662800
     22 N4         -2.3500   -0.0430   -1.0540 ny        1 PB4     -0.662800
     23 C6         -6.5920   -1.1750   -2.2270 ca        1 PB4     -0.092300
     24 C17        -6.5050    1.2810   -2.2160 ca        1 PB4     -0.158000
     25 C18        -5.1190    1.2300   -2.2770 ca        1 PB4     -0.075000
     26 C4          7.1200   -1.1700    6.0000 ca        1 PB4     -0.092300
     27 O1         -0.2900   -0.1270   -2.1690 o         1 PB4     -0.370100
     28 O2          4.1020   -0.1250    0.4660 o         1 PB4     -0.370100
     29 F1          7.9730    0.1450    7.8110 f         1 PB4     -0.093900
     30 F2         -8.5920    0.1390   -2.1270 f         1 PB4     -0.093900
     31 H2          1.8420   -0.1150   -0.7440 ha        1 PB4      0.224000
     32 H71         7.1670   -2.3810    7.7690 hc        1 PB4      0.071700
     33 H72         8.6040   -2.5480    6.6810 hc        1 PB4      0.071700
     34 H73         7.0250   -3.3140    6.2130 hc        1 PB4      0.071700
     35 H81        -6.7350   -3.3190   -2.0420 hc        1 PB4      0.071700
     36 H82        -7.8910   -2.5540   -3.2150 hc        1 PB4      0.071700
     37 H83        -8.1740   -2.3860   -1.4350 hc        1 PB4      0.071700
     38 H101        5.8990   -0.9920    2.1690 hx        1 PB4      0.117700
     39 H102        5.9070    0.8410    2.1010 hx        1 PB4      0.117700
     40 H131       -2.5820    0.8380   -2.9930 hx        1 PB4      0.117700
     41 H132       -2.6370   -0.9950   -2.9520 hx        1 PB4      0.117700
     42 H15        -4.6840   -2.1700   -2.3360 ha        1 PB4      0.144000
     43 H19         6.2420    2.1740    4.1480 ha        1 PB4      0.143000
     44 H20         7.3040    2.2530    6.4020 ha        1 PB4      0.182000
     45 H22         6.3180   -2.1660    4.2650 ha        1 PB4      0.144000
     46 H5         -0.7010    0.0520    3.4940 h5        1 PB4      0.119100
     47 HN3         3.7820   -0.8520    3.3650 hn        1 PB4      0.475800
     48 HN4        -2.6590    0.8040   -0.5550 hn        1 PB4      0.475800
     49 H17        -7.0360    2.2470   -2.2010 ha        1 PB4      0.182000
     50 H18        -4.5460    2.1690   -2.3250 ha        1 PB4      0.143000
     51 H32         3.7930    0.8060    3.3160 hn        1 PB4      0.475800
     52 H42        -2.6960   -0.8550   -0.5220 hn        1 PB4      0.475800
@<TRIPOS>BOND
     1    1    2 ar  
     2    1    9 1   
     3    1   20 ar  
     4    2    3 ar  
     5    2   31 1   
     6    3    6 1   
     7    3   18 ar  
     8    4   26 1   
     9    4   32 1   
    10    4   33 1   
    11    4   34 1   
    12    5   23 1   
    13    5   35 1   
    14    5   36 1   
    15    5   37 1   
    16    6   21 1   
    17    6   28 2   
    18    7    8 1   
    19    7   21 1   
    20    7   38 1   
    21    7   39 1   
    22    8   14 ar  
    23    8   17 ar  
    24    9   22 1   
    25    9   27 2   
    26   10   11 1   
    27   10   22 1   
    28   10   40 1   
    29   10   41 1   
    30   11   12 ar  
    31   11   25 ar  
    32   12   23 ar  
    33   12   42 1   
    34   13   23 ar  
    35   13   24 ar  
    36   13   30 1   
    37   14   15 ar  
    38   14   43 1   
    39   15   16 ar  
    40   15   44 1   
    41   16   26 ar  
    42   16   29 1   
    43   17   26 ar  
    44   17   45 1   
    45   18   19 ar  
    46   19   20 ar  
    47   19   46 1   
    48   21   47 1   
    49   21   51 1   
    50   22   48 1   
    51   22   52 1   
    52   24   25 ar  
    53   24   49 1   
    54   25   50 1   
@<TRIPOS>SUBSTRUCTURE
     1 PB4         1 TEMP              0 ****  ****    0 ROOT
