@<TRIPOS>MOLECULE
PB4
   52    54     1     0     0
SMALL
bcc


@<TRIPOS>ATOM
      1 C1         -0.1420   -0.0490    0.2290 ca        1 PB4      0.364800
      2 C2          1.2740   -0.0720    0.2040 ca        1 PB4     -0.213600
      3 C3          1.9170   -0.0490    1.4650 ca        1 PB4      0.364800
      4 C7          7.4910   -2.4290    6.6920 c3        1 PB4     -0.071800
      5 C8         -7.3760   -2.4280   -2.2330 c3        1 PB4     -0.071800
      6 C9          3.4160   -0.0730    1.4780 c         1 PB4      0.438600
      7 C10         5.6030   -0.0500    2.7220 c3        1 PB4      0.193100
      8 C11         6.1860   -0.0040    4.0830 ca        1 PB4     -0.228300
      9 C12        -0.8580   -0.0730   -1.0880 c         1 PB4      0.438600
     10 C13        -2.9830   -0.0490   -2.4330 c3        1 PB4      0.193100
     11 C14        -4.4590   -0.0030   -2.3080 ca        1 PB4     -0.228300
     12 C15        -5.1970   -1.1950   -2.2880 ca        1 PB4     -0.076000
     13 C16        -7.2480    0.0810   -2.1900 ca        1 PB4      0.196900
     14 C19         6.4670    1.2320    4.6830 ca        1 PB4     -0.075000
     15 C20         7.0640    1.2800    5.9340 ca        1 PB4     -0.158000
     16 C21         7.3920    0.0800    6.6010 ca        1 PB4      0.196900
     17 C22         6.5150   -1.1960    4.7430 ca        1 PB4     -0.076000
     18 N1          1.2300   -0.0060    2.6310 nb        1 PB4     -0.649000
     19 C5         -0.1270    0.0130    2.5360 ca        1 PB4      0.690900
     20 N2         -0.8490   -0.0060    1.3830 nb        1 PB4     -0.649000
     21 N3          4.0870   -0.0390    2.8100 n4        1 PB4     -0.662800
     22 N4         -2.3490   -0.0390   -1.0540 n4        1 PB4     -0.662800
     23 C6         -6.5890   -1.1750   -2.2310 ca        1 PB4     -0.092300
     24 C17        -6.5060    1.2800   -2.2140 ca        1 PB4     -0.158000
     25 C18        -5.1200    1.2320   -2.2750 ca        1 PB4     -0.075000
     26 C4          7.1190   -1.1760    5.9990 ca        1 PB4     -0.092300
     27 O1         -0.2890   -0.1180   -2.1690 o         1 PB4     -0.370100
     28 O2          4.1020   -0.1190    0.4680 o         1 PB4     -0.370100
     29 F1          7.9700    0.1340    7.8150 f         1 PB4     -0.093900
     30 F2         -8.5920    0.1350   -2.1280 f         1 PB4     -0.093900
     31 H2          1.8420   -0.1080   -0.7430 ha        1 PB4      0.224000
     32 H71         8.6040   -2.5560    6.6760 hc        1 PB4      0.071700
     33 H72         7.1670   -2.3930    7.7640 hc        1 PB4      0.071700
     34 H73         7.0260   -3.3210    6.2060 hc        1 PB4      0.071700
     35 H81        -8.1700   -2.3910   -1.4440 hc        1 PB4      0.071700
     36 H82        -6.7280   -3.3200   -2.0510 hc        1 PB4      0.071700
     37 H83        -7.8850   -2.5550   -3.2240 hc        1 PB4      0.071700
     38 H101        5.9060    0.8460    2.1060 hx        1 PB4      0.117700
     39 H102        5.8990   -0.9870    2.1690 hx        1 PB4      0.117700
     40 H131       -2.6350   -0.9870   -2.9550 hx        1 PB4      0.117700
     41 H132       -2.5830    0.8460   -2.9910 hx        1 PB4      0.117700
     42 H15        -4.6790   -2.1670   -2.3420 ha        1 PB4      0.144000
     43 H19         6.2390    2.1720    4.1570 ha        1 PB4      0.143000
     44 H20         7.3000    2.2450    6.4130 ha        1 PB4      0.182000
     45 H22         6.3190   -2.1670    4.2610 ha        1 PB4      0.144000
     46 H5         -0.7020    0.0490    3.4940 h5        1 PB4      0.119100
     47 HN3         3.7910    0.8060    3.3190 hn        1 PB4      0.475800
     48 HN4        -2.6950   -0.8520   -0.5240 hn        1 PB4      0.475800
     49 H17        -7.0390    2.2460   -2.1970 ha        1 PB4      0.182000
     50 H18        -4.5490    2.1730   -2.3200 ha        1 PB4      0.143000
     51 H32         3.7820   -0.8520    3.3650 hn        1 PB4      0.475800
     52 H42        -2.6590    0.8060   -0.5540 hn        1 PB4      0.475800
@<TRIPOS>BOND
     1    1    2 ar  
     2    1    9 1   
     3    1   20 ar  
     4    2    3 ar  
     5    2   31 1   
     6    3    6 1   
     7    3   18 ar  
     8    4   26 1   
     9    4   32 1   
    10    4   33 1   
    11    4   34 1   
    12    5   23 1   
    13    5   35 1   
    14    5   36 1   
    15    5   37 1   
    16    6   21 1   
    17    6   28 2   
    18    7    8 1   
    19    7   21 1   
    20    7   38 1   
    21    7   39 1   
    22    8   14 ar  
    23    8   17 ar  
    24    9   22 1   
    25    9   27 2   
    26   10   11 1   
    27   10   22 1   
    28   10   40 1   
    29   10   41 1   
    30   11   12 ar  
    31   11   25 ar  
    32   12   23 ar  
    33   12   42 1   
    34   13   23 ar  
    35   13   24 ar  
    36   13   30 1   
    37   14   15 ar  
    38   14   43 1   
    39   15   16 ar  
    40   15   44 1   
    41   16   26 ar  
    42   16   29 1   
    43   17   26 ar  
    44   17   45 1   
    45   18   19 ar  
    46   19   20 ar  
    47   19   46 1   
    48   21   47 1   
    49   21   51 1   
    50   22   48 1   
    51   22   52 1   
    52   24   25 ar  
    53   24   49 1   
    54   25   50 1   
@<TRIPOS>SUBSTRUCTURE
     1 PB4         1 TEMP              0 ****  ****    0 ROOT
