@<TRIPOS>MOLECULE
PB5
   42    37     1     0     0
SMALL
bcc


@<TRIPOS>ATOM
      1 C1         -0.5350    0.8660   -0.6830 c1        1 PB5     -0.033000
      2 C2          0.8220    0.8060   -0.6510 c1        1 PB5     -0.124000
      3 C3          1.4790    0.7570    0.5550 c1        1 PB5     -0.033000
      4 N6         -1.2290    0.8770    0.4550 n1        1 PB5     -0.147000
      5 C9          2.9910    0.7160    0.5870 c1        1 PB5      0.344000
      6 C11         4.9140   -0.1020    1.9770 c3        1 PB5      0.010000
      7 C12         4.7500   -1.1370    3.0700 c2        1 PB5     -0.174000
      8 C15        -1.2670    0.9280   -2.0250 c2        1 PB5      0.344000
      9 C21        -5.7550    1.0520   -2.4860 c1        1 PB5     -0.061000
     10 C24        -6.0980   -0.4710   -4.7320 c1        1 PB5     -0.181000
     11 C30         5.3290   -0.9490    4.3070 c1        1 PB5     -0.082000
     12 C31         5.1430   -1.8730    5.2950 c1        1 PB5     -0.125000
     13 C32         4.3680   -3.0050    5.0520 c1        1 PB5     -0.125000
     14 C34         3.9830   -2.2590    2.8310 c2        1 PB5     -0.051000
     15 N4          0.7770    0.7670    1.7050 n2        1 PB5     -0.147000
     16 C5         -0.5690    0.8270    1.6710 c1        1 PB5     -0.032000
     17 N10         3.6880    0.6640    1.8520 n3        1 PB5     -0.343000
     18 N16        -2.6900    0.9880   -2.0530 n         1 PB5     -0.343000
     19 C17        -3.3580    1.6010   -3.1470 c3        1 PB5      0.010000
     20 C18        -4.7120    0.8900   -3.3880 c2        1 PB5     -0.173000
     21 N22        -6.9640    0.4460   -2.7210 n1        1 PB5     -0.141000
     22 C23        -7.1400   -0.3080   -3.8310 c1        1 PB5     -0.066000
     23 C25        -4.8890    0.1340   -4.5010 c2        1 PB5     -0.074000
     24 N33         3.7950   -3.1890    3.8260 n1        1 PB5     -0.136000
     25 O41        -0.6240    0.8920   -3.0860 o         1 PB5     -0.354000
     26 O42         3.6150    0.7210   -0.4470 o         1 PB5     -0.350000
     27 H2          1.3390    0.7990   -1.5000 ha        1 PB5      0.205000
     28 H111        5.6500    0.4990    2.2060 h1        1 PB5      0.113000
     29 H112        5.1140   -0.5590    1.1110 h1        1 PB5      0.113000
     30 H21        -5.6340    1.5750   -1.7170 ha        1 PB5      0.157000
     31 H24        -6.2270   -1.0160   -5.5330 ha        1 PB5      0.147000
     32 H30         5.8940   -0.1240    4.4820 ha        1 PB5      0.136000
     33 H31         5.5410   -1.7450    6.1470 ha        1 PB5      0.152000
     34 H32         4.2300   -3.6880    5.7810 ha        1 PB5      0.152000
     35 H34         3.5610   -2.3950    1.9300 h4        1 PB5      0.181000
     36 H5         -1.0840    0.8350    2.5130 ha        1 PB5      0.202000
     37 H10         3.3930    1.1660    2.5550 hn        1 PB5      0.240000
     38 H16        -3.1590    0.6810   -1.3640 hn        1 PB5      0.241000
     39 H171       -2.8070    1.5280   -3.9480 h1        1 PB5      0.113000
     40 H172       -3.5120    2.5160   -2.9520 h1        1 PB5      0.113000
     41 H23        -7.9840   -0.7310   -3.9930 ha        1 PB5      0.160000
     42 H25        -4.1420    0.0170   -5.1480 ha        1 PB5      0.162000
@<TRIPOS>BOND
     1    1    4 1   
     2    1    8 1   
     3    2    3 1   
     4    2   27 1   
     5    3   15 1   
     6    5   17 1   
     7    5   26 1   
     8    6    7 1   
     9    6   17 1   
    10    6   28 1   
    11    6   29 1   
    12    7   11 1   
    13    7   14 1   
    14    8   18 1   
    15    8   25 1   
    16    9   20 1   
    17    9   30 1   
    18   10   23 1   
    19   10   31 1   
    20   11   32 1   
    21   12   13 1   
    22   12   33 1   
    23   13   34 1   
    24   14   24 1   
    25   14   35 1   
    26   15   16 1   
    27   16   36 1   
    28   17   37 1   
    29   18   19 1   
    30   18   38 1   
    31   19   20 1   
    32   19   39 1   
    33   19   40 1   
    34   20   23 1   
    35   21   22 1   
    36   22   41 1   
    37   23   42 1   
@<TRIPOS>SUBSTRUCTURE
     1 PB5         1 TEMP              0 ****  ****    0 ROOT
