@<TRIPOS>MOLECULE
PB5
   44    46     1     0     0
SMALL
bcc


@<TRIPOS>ATOM
      1 C1         -0.1120    0.0570    0.1840 ca        1 PB5      0.364800
      2 C2          1.3030    0.0050    0.1570 ca        1 PB5     -0.212600
      3 C3          1.9460   -0.0530    1.4170 ca        1 PB5      0.364800
      4 N6         -0.8180    0.0530    1.3390 nb        1 PB5     -0.649000
      5 C9          3.4440   -0.1120    1.4270 c         1 PB5      0.440600
      6 C11         5.6290   -0.1140    2.6710 c3        1 PB5      0.196100
      7 C12         6.2180   -0.0770    4.0270 ca        1 PB5     -0.337600
      8 C15        -0.8280    0.1220   -1.1310 c         1 PB5      0.440600
      9 C21        -5.0910   -1.1490   -2.1270 ca        1 PB5      0.434200
     10 C24        -6.5960    1.1210   -2.4760 ca        1 PB5     -0.230300
     11 C30         6.7490   -1.2330    4.6240 ca        1 PB5     -0.049000
     12 C31         7.3530   -1.1270    5.8730 ca        1 PB5     -0.230300
     13 C32         7.4050    0.1400    6.4950 ca        1 PB5      0.464200
     14 C34         6.3290    1.1480    4.7250 ca        1 PB5      0.434200
     15 N4          1.2600   -0.0580    2.5840 nb        1 PB5     -0.649000
     16 C5         -0.0960   -0.0040    2.4910 ca        1 PB5      0.691900
     17 N10         4.1150   -0.1370    2.7610 ny        1 PB5     -0.662800
     18 N16        -2.3210    0.1410   -1.0940 ny        1 PB5     -0.662800
     19 C17        -2.9550    0.1220   -2.4720 c3        1 PB5      0.196100
     20 C18        -4.4290    0.0790   -2.3520 ca        1 PB5     -0.337600
     21 N22        -6.4270   -1.2650   -2.0610 nb        1 PB5     -0.635000
     22 C23        -7.1630   -0.1490   -2.2360 ca        1 PB5      0.464200
     23 C25        -5.2100    1.2340   -2.5320 ca        1 PB5     -0.049000
     24 N33         6.9000    1.2580    5.9350 nb        1 PB5     -0.635000
     25 O41        -0.2610    0.1590   -2.2130 o         1 PB5     -0.368100
     26 O42         4.1310   -0.1410    0.4170 o         1 PB5     -0.368100
     27 H2          1.8710    0.0090   -0.7920 ha        1 PB5      0.225000
     28 H111        5.9470   -1.0320    2.0990 hx        1 PB5      0.120200
     29 H112        5.9120    0.8020    2.0730 hx        1 PB5      0.120200
     30 H21        -4.5260   -2.0930   -2.0130 h4        1 PB5      0.026100
     31 H24        -7.2450    1.9990   -2.6250 ha        1 PB5      0.182000
     32 H30         6.7090   -2.2040    4.1060 ha        1 PB5      0.152000
     33 H31         7.7930   -2.0060    6.3700 ha        1 PB5      0.182000
     34 H32         7.8800    0.2710    7.4890 h4        1 PB5      0.065100
     35 H34         5.9580    2.0930    4.2860 h4        1 PB5      0.026100
     36 H5         -0.6710   -0.0080    3.4510 h5        1 PB5      0.120100
     37 H10         3.8210   -0.9840    3.2690 hn        1 PB5      0.476300
     38 H16        -2.6590   -0.6760   -0.5640 hn        1 PB5      0.476300
     39 H171       -2.6040    1.0460   -3.0170 hx        1 PB5      0.120200
     40 H172       -2.5580   -0.7880   -3.0080 hx        1 PB5      0.120200
     41 H23        -8.2630   -0.2850   -2.1860 h4        1 PB5      0.065100
     42 H25        -4.7380    2.2080   -2.7350 ha        1 PB5      0.152000
     43 H102        3.8050    0.6750    3.3150 hn        1 PB5      0.476300
     44 H162       -2.6340    0.9830   -0.5910 hn        1 PB5      0.476300
@<TRIPOS>BOND
     1    1    2 ar  
     2    1    4 ar  
     3    1    8 1   
     4    2    3 ar  
     5    2   27 1   
     6    3    5 1   
     7    3   15 ar  
     8    4   16 ar  
     9    5   17 1   
    10    5   26 2   
    11    6    7 1   
    12    6   17 1   
    13    6   28 1   
    14    6   29 1   
    15    7   11 ar  
    16    7   14 ar  
    17    8   18 1   
    18    8   25 2   
    19    9   20 ar  
    20    9   21 ar  
    21    9   30 1   
    22   10   22 ar  
    23   10   23 ar  
    24   10   31 1   
    25   11   12 ar  
    26   11   32 1   
    27   12   13 ar  
    28   12   33 1   
    29   13   24 ar  
    30   13   34 1   
    31   14   24 ar  
    32   14   35 1   
    33   15   16 ar  
    34   16   36 1   
    35   17   37 1   
    36   17   43 1   
    37   18   19 1   
    38   18   38 1   
    39   18   44 1   
    40   19   20 1   
    41   19   39 1   
    42   19   40 1   
    43   20   23 ar  
    44   21   22 ar  
    45   22   41 1   
    46   23   42 1   
@<TRIPOS>SUBSTRUCTURE
     1 PB5         1 TEMP              0 ****  ****    0 ROOT
