@<TRIPOS>MOLECULE
PB5
   44    46     1     0     0
SMALL
bcc


@<TRIPOS>ATOM
      1 C1         -0.1120    0.0530    0.1830 ca        1 PB5      0.364800
      2 C2          1.3030   -0.0040    0.1570 ca        1 PB5     -0.212600
      3 C3          1.9460   -0.0540    1.4170 ca        1 PB5      0.364800
      4 N6         -0.8180    0.0590    1.3390 nb        1 PB5     -0.649000
      5 C9          3.4440   -0.1170    1.4280 c         1 PB5      0.440600
      6 C11         5.6290   -0.1160    2.6720 c3        1 PB5      0.196100
      7 C12         6.2180   -0.0710    4.0280 ca        1 PB5     -0.337600
      8 C15        -0.8280    0.1110   -1.1320 c         1 PB5      0.440600
      9 C21        -5.0950   -1.1540   -2.1210 ca        1 PB5      0.434200
     10 C24        -6.5930    1.1190   -2.4840 ca        1 PB5     -0.230300
     11 C30         6.7450   -1.2250    4.6330 ca        1 PB5     -0.049000
     12 C31         7.3500   -1.1110    5.8820 ca        1 PB5     -0.230300
     13 C32         7.4050    0.1600    6.4940 ca        1 PB5      0.464200
     14 C34         6.3320    1.1580    4.7170 ca        1 PB5      0.434200
     15 N4          1.2600   -0.0500    2.5840 nb        1 PB5     -0.649000
     16 C5         -0.0960    0.0070    2.4910 ca        1 PB5      0.691900
     17 N10         4.1140   -0.1350    2.7620 n4        1 PB5     -0.662800
     18 N16        -2.3200    0.1340   -1.0950 n4        1 PB5     -0.662800
     19 C17        -2.9550    0.1090   -2.4730 c3        1 PB5      0.196100
     20 C18        -4.4280    0.0710   -2.3530 ca        1 PB5     -0.337600
     21 N22        -6.4310   -1.2650   -2.0540 nb        1 PB5     -0.635000
     22 C23        -7.1640   -0.1480   -2.2360 ca        1 PB5      0.464200
     23 C25        -5.2060    1.2270   -2.5400 ca        1 PB5     -0.049000
     24 N33         6.9030    1.2750    5.9260 nb        1 PB5     -0.635000
     25 O41        -0.2610    0.1390   -2.2150 o         1 PB5     -0.368100
     26 O42         4.1310   -0.1550    0.4180 o         1 PB5     -0.368100
     27 H2          1.8710   -0.0080   -0.7920 ha        1 PB5      0.225000
     28 H111        5.9450   -1.0400    2.1070 hx        1 PB5      0.120200
     29 H112        5.9140    0.7940    2.0680 hx        1 PB5      0.120200
     30 H21        -4.5320   -2.0990   -2.0010 h4        1 PB5      0.026100
     31 H24        -7.2390    1.9980   -2.6380 ha        1 PB5      0.182000
     32 H30         6.7020   -2.2000    4.1220 ha        1 PB5      0.152000
     33 H31         7.7870   -1.9880    6.3850 ha        1 PB5      0.182000
     34 H32         7.8800    0.2970    7.4870 h4        1 PB5      0.065100
     35 H34         5.9640    2.1010    4.2720 h4        1 PB5      0.026100
     36 H5         -0.6710    0.0110    3.4510 h5        1 PB5      0.120100
     37 H10         3.8190   -0.9770    3.2760 hn        1 PB5      0.476300
     38 H16        -2.6610   -0.6780   -0.5600 hn        1 PB5      0.476300
     39 H171       -2.6010    1.0280   -3.0240 hx        1 PB5      0.120200
     40 H172       -2.5600   -0.8060   -3.0030 hx        1 PB5      0.120200
     41 H23        -8.2640   -0.2800   -2.1860 h4        1 PB5      0.065100
     42 H25        -4.7310    2.1980   -2.7490 ha        1 PB5      0.152000
     43 H102        3.8060    0.6820    3.3100 hn        1 PB5      0.476300
     44 H162       -2.6300    0.9810   -0.5980 hn        1 PB5      0.476300
@<TRIPOS>BOND
     1    1    2 ar  
     2    1    4 ar  
     3    1    8 1   
     4    2    3 ar  
     5    2   27 1   
     6    3    5 1   
     7    3   15 ar  
     8    4   16 ar  
     9    5   17 1   
    10    5   26 2   
    11    6    7 1   
    12    6   17 1   
    13    6   28 1   
    14    6   29 1   
    15    7   11 ar  
    16    7   14 ar  
    17    8   18 1   
    18    8   25 2   
    19    9   20 ar  
    20    9   21 ar  
    21    9   30 1   
    22   10   22 ar  
    23   10   23 ar  
    24   10   31 1   
    25   11   12 ar  
    26   11   32 1   
    27   12   13 ar  
    28   12   33 1   
    29   13   24 ar  
    30   13   34 1   
    31   14   24 ar  
    32   14   35 1   
    33   15   16 ar  
    34   16   36 1   
    35   17   37 1   
    36   17   43 1   
    37   18   19 1   
    38   18   38 1   
    39   18   44 1   
    40   19   20 1   
    41   19   39 1   
    42   19   40 1   
    43   20   23 ar  
    44   21   22 ar  
    45   22   41 1   
    46   23   42 1   
@<TRIPOS>SUBSTRUCTURE
     1 PB5         1 TEMP              0 ****  ****    0 ROOT
