@<TRIPOS>MOLECULE
PB5
   42    44     1     0     0
SMALL
bcc


@<TRIPOS>ATOM
      1 C1         -1.1800    0.3320    0.2400 ca        1 PB5      0.384800
      2 C2          0.0000   -0.4060   -0.0010 ca        1 PB5     -0.256600
      3 C3          1.1800    0.3340   -0.2410 ca        1 PB5      0.384800
      4 N6         -1.1920    1.6870    0.2460 nb        1 PB5     -0.673000
      5 C9          2.4550   -0.4470   -0.4700 c         1 PB5      0.562600
      6 C11         4.6650   -0.5580   -1.5370 c3        1 PB5      0.133300
      7 C12         5.7400   -0.1650   -0.5710 ca        1 PB5     -0.244600
      8 C15        -2.4540   -0.4490    0.4680 c         1 PB5      0.562600
      9 C21        -6.8080    0.6570    0.9710 ca        1 PB5      0.404200
     10 C24        -6.7590   -0.2700   -1.6100 ca        1 PB5     -0.247300
     11 C30         5.7240   -0.6370    0.7480 ca        1 PB5     -0.074000
     12 C31         6.7600   -0.2710    1.6080 ca        1 PB5     -0.247300
     13 C32         7.7820    0.5600    1.1120 ca        1 PB5      0.400200
     14 C34         6.8080    0.6630   -0.9700 ca        1 PB5      0.404200
     15 N4          1.1920    1.6880   -0.2430 nb        1 PB5     -0.673000
     16 C5         -0.0000    2.2930    0.0020 ca        1 PB5      0.630900
     17 N10         3.3930    0.0880   -1.3270 n         1 PB5     -0.532900
     18 N16        -3.3920    0.0830    1.3260 n         1 PB5     -0.532900
     19 C17        -4.6640   -0.5630    1.5350 c3        1 PB5      0.133300
     20 C18        -5.7400   -0.1690    0.5690 ca        1 PB5     -0.244600
     21 N22        -7.8150    1.0200    0.1530 nb        1 PB5     -0.666000
     22 C23        -7.7810    0.5590   -1.1120 ca        1 PB5      0.400200
     23 C25        -5.7230   -0.6380   -0.7510 ca        1 PB5     -0.074000
     24 N33         7.8150    1.0240   -0.1520 nb        1 PB5     -0.666000
     25 O41        -2.5860   -1.5690   -0.0640 o         1 PB5     -0.594100
     26 O42         2.5870   -1.5680    0.0590 o         1 PB5     -0.594100
     27 H2          0.0010   -1.5070   -0.0020 ha        1 PB5      0.201000
     28 H111        4.5100   -1.6750   -1.4690 h1        1 PB5      0.073700
     29 H112        4.9940   -0.3070   -2.5870 h1        1 PB5      0.073700
     30 H21        -6.8650    1.0480    2.0030 h4        1 PB5      0.020100
     31 H24        -6.7820   -0.6190   -2.6500 ha        1 PB5      0.147000
     32 H30         4.9000   -1.2860    1.0880 ha        1 PB5      0.161000
     33 H31         6.7820   -0.6210    2.6480 ha        1 PB5      0.147000
     34 H32         8.6200    0.8740    1.7600 h4        1 PB5      0.023100
     35 H34         6.8650    1.0560   -2.0020 h4        1 PB5      0.020100
     36 H5         -0.0010    3.4040    0.0030 h5        1 PB5      0.066100
     37 H10         3.3450    1.0580   -1.5430 hn        1 PB5      0.326500
     38 H16        -3.3450    1.0530    1.5440 hn        1 PB5      0.326500
     39 H171       -4.5090   -1.6810    1.4640 h1        1 PB5      0.073700
     40 H172       -4.9930   -0.3150    2.5860 h1        1 PB5      0.073700
     41 H23        -8.6200    0.8740   -1.7590 h4        1 PB5      0.023100
     42 H25        -4.8990   -1.2860   -1.0920 ha        1 PB5      0.161000
@<TRIPOS>BOND
     1    1    2 ar  
     2    1    4 ar  
     3    1    8 1   
     4    2    3 ar  
     5    2   27 1   
     6    3    5 1   
     7    3   15 ar  
     8    4   16 ar  
     9    5   17 1   
    10    5   26 2   
    11    6    7 1   
    12    6   17 1   
    13    6   28 1   
    14    6   29 1   
    15    7   11 ar  
    16    7   14 ar  
    17    8   18 1   
    18    8   25 2   
    19    9   20 ar  
    20    9   21 ar  
    21    9   30 1   
    22   10   22 ar  
    23   10   23 ar  
    24   10   31 1   
    25   11   12 ar  
    26   11   32 1   
    27   12   13 ar  
    28   12   33 1   
    29   13   24 ar  
    30   13   34 1   
    31   14   24 ar  
    32   14   35 1   
    33   15   16 ar  
    34   16   36 1   
    35   17   37 1   
    36   18   19 1   
    37   18   38 1   
    38   19   20 1   
    39   19   39 1   
    40   19   40 1   
    41   20   23 ar  
    42   21   22 ar  
    43   22   41 1   
    44   23   42 1   
@<TRIPOS>SUBSTRUCTURE
     1 PB5         1 TEMP              0 ****  ****    0 ROOT
