@<TRIPOS>MOLECULE
PB5
   44    46     1     0     0
SMALL
bcc


@<TRIPOS>ATOM
      1 C1         -0.1120    0.0670    0.1840 ca        1 PB5      0.364800
      2 C2          1.3030    0.0130    0.1570 ca        1 PB5     -0.212600
      3 C3          1.9460   -0.0420    1.4170 ca        1 PB5      0.364800
      4 N6         -0.8180    0.0650    1.3390 nb        1 PB5     -0.649000
      5 C9          3.4430   -0.1020    1.4290 c         1 PB5      0.440600
      6 C11         5.6280   -0.1020    2.6720 c3        1 PB5      0.196100
      7 C12         6.2180   -0.0590    4.0280 ca        1 PB5     -0.337600
      8 C15        -0.8280    0.1290   -1.1320 c         1 PB5      0.440600
      9 C21        -5.0900   -1.1440   -2.1290 ca        1 PB5      0.434200
     10 C24        -6.5960    1.1260   -2.4790 ca        1 PB5     -0.230300
     11 C30         6.7470   -1.2140    4.6300 ca        1 PB5     -0.049000
     12 C31         7.3520   -1.1030    5.8790 ca        1 PB5     -0.230300
     13 C32         7.4060    0.1670    6.4940 ca        1 PB5      0.464200
     14 C34         6.3300    1.1680    4.7200 ca        1 PB5      0.434200
     15 N4          1.2600   -0.0440    2.5850 nb        1 PB5     -0.649000
     16 C5         -0.0970    0.0090    2.4910 ca        1 PB5      0.691900
     17 N10         4.1140   -0.1230    2.7620 n4        1 PB5     -0.662800
     18 N16        -2.3200    0.1470   -1.0950 n4        1 PB5     -0.662800
     19 C17        -2.9550    0.1280   -2.4720 c3        1 PB5      0.196100
     20 C18        -4.4280    0.0840   -2.3530 ca        1 PB5     -0.337600
     21 N22        -6.4260   -1.2610   -2.0630 nb        1 PB5     -0.635000
     22 C23        -7.1630   -0.1450   -2.2390 ca        1 PB5      0.464200
     23 C25        -5.2100    1.2380   -2.5340 ca        1 PB5     -0.049000
     24 N33         6.9020    1.2830    5.9300 nb        1 PB5     -0.635000
     25 O41        -0.2610    0.1650   -2.2130 o         1 PB5     -0.368100
     26 O42         4.1310   -0.1350    0.4180 o         1 PB5     -0.368100
     27 H2          1.8710    0.0150   -0.7910 ha        1 PB5      0.225000
     28 H111        5.9120    0.8110    2.0700 hx        1 PB5      0.120200
     29 H112        5.9460   -1.0230    2.1040 hx        1 PB5      0.120200
     30 H21        -4.5250   -2.0880   -2.0140 h4        1 PB5      0.026100
     31 H24        -7.2450    2.0030   -2.6280 ha        1 PB5      0.182000
     32 H30         6.7050   -2.1870    4.1170 ha        1 PB5      0.152000
     33 H31         7.7910   -1.9800    6.3790 ha        1 PB5      0.182000
     34 H32         7.8810    0.3020    7.4870 h4        1 PB5      0.065100
     35 H34         5.9610    2.1120    4.2770 h4        1 PB5      0.026100
     36 H5         -0.6720    0.0080    3.4510 h5        1 PB5      0.120100
     37 H10         3.8050    0.6910    3.3130 hn        1 PB5      0.476300
     38 H16        -2.6340    0.9900   -0.5920 hn        1 PB5      0.476300
     39 H171       -2.5560   -0.7830   -3.0080 hx        1 PB5      0.120200
     40 H172       -2.6040    1.0510   -3.0180 hx        1 PB5      0.120200
     41 H23        -8.2630   -0.2810   -2.1900 h4        1 PB5      0.065100
     42 H25        -4.7380    2.2130   -2.7370 ha        1 PB5      0.152000
     43 H102        3.8200   -0.9680    3.2730 hn        1 PB5      0.476300
     44 H162       -2.6590   -0.6690   -0.5640 hn        1 PB5      0.476300
@<TRIPOS>BOND
     1    1    2 ar  
     2    1    4 ar  
     3    1    8 1   
     4    2    3 ar  
     5    2   27 1   
     6    3    5 1   
     7    3   15 ar  
     8    4   16 ar  
     9    5   17 1   
    10    5   26 2   
    11    6    7 1   
    12    6   17 1   
    13    6   28 1   
    14    6   29 1   
    15    7   11 ar  
    16    7   14 ar  
    17    8   18 1   
    18    8   25 2   
    19    9   20 ar  
    20    9   21 ar  
    21    9   30 1   
    22   10   22 ar  
    23   10   23 ar  
    24   10   31 1   
    25   11   12 ar  
    26   11   32 1   
    27   12   13 ar  
    28   12   33 1   
    29   13   24 ar  
    30   13   34 1   
    31   14   24 ar  
    32   14   35 1   
    33   15   16 ar  
    34   16   36 1   
    35   17   37 1   
    36   17   43 1   
    37   18   19 1   
    38   18   38 1   
    39   18   44 1   
    40   19   20 1   
    41   19   39 1   
    42   19   40 1   
    43   20   23 ar  
    44   21   22 ar  
    45   22   41 1   
    46   23   42 1   
@<TRIPOS>SUBSTRUCTURE
     1 PB5         1 TEMP              0 ****  ****    0 ROOT
