@<TRIPOS>MOLECULE
PB6
   34    31     1     0     0
SMALL
bcc


@<TRIPOS>ATOM
      1 C7          1.4290   -0.5910    1.7300 c3        1 PB6     -0.073000
      2 C8          2.8750   -0.8690    1.2940 c3        1 PB6     -0.678000
      3 P9          3.0410   -2.6260    0.8250 p5        1 PB6      1.539000
      4 O10         4.4790   -2.9140    0.4480 o         1 PB6     -0.755833
      5 O11         2.1460   -2.9200   -0.3510 o         1 PB6     -0.755833
      6 N12         0.8340    0.3860    0.8410 n3        1 PB6     -0.105000
      7 O12         2.6420   -3.4990    1.9930 o         1 PB6     -0.755833
      8 C13         0.7560    1.6740    1.2990 c1        1 PB6     -0.323000
      9 C14        -0.3030    2.4940    0.9000 c1        1 PB6     -0.268500
     10 P14         4.0020   -0.5030    2.6670 p5        1 PB6      1.539000
     11 C15        -1.2650    2.0090    0.0480 c1        1 PB6     -0.268500
     12 O15         3.7080    0.8730    3.2060 o         1 PB6     -0.755833
     13 C16        -1.1850    0.7170   -0.4110 c1        1 PB6     -0.020000
     14 O16         5.4290   -0.5570    2.1750 o         1 PB6     -0.755833
     15 C17        -0.1270   -0.1010   -0.0110 c2        1 PB6     -0.213000
     16 O17         3.8080   -1.5250    3.7640 o         1 PB6     -0.755833
     17 C18        -2.6280    0.1790   -0.3380 c2        1 PB6     -0.034000
     18 C19        -3.3950    0.0960   -1.4870 c1        1 PB6     -0.269000
     19 C20        -2.8130    0.5370   -2.8260 c2        1 PB6     -0.121000
     20 C21        -3.8310    0.2750   -3.9370 c3        1 PB6     -0.196000
     21 H7          0.9130   -1.4210    1.6940 h1        1 PB6      0.055500
     22 H7A         1.4260   -0.2440    2.6470 h1        1 PB6      0.055500
     23 H8          3.0980   -0.3070    0.5320 hc        1 PB6      0.105000
     24 H13         1.4400    2.0190    1.9060 ha        1 PB6      0.095000
     25 H14        -0.3590    3.4140    1.2270 ha        1 PB6      0.058500
     26 H15        -1.9880    2.5900   -0.2540 ha        1 PB6      0.058500
     27 H17        -0.0710   -1.0160   -0.3360 h4        1 PB6      0.104000
     28 H18        -3.0010   -0.1040    0.5200 ha        1 PB6      0.082000
     29 H19        -4.3130   -0.2460   -1.4400 ha        1 PB6      0.071000
     30 H20        -1.9960    0.0330   -3.0080 ha        1 PB6      0.097500
     31 H20A       -2.6060    1.4920   -2.7930 ha        1 PB6      0.097500
     32 H21        -4.2800   -0.5810   -3.7740 hc        1 PB6      0.049000
     33 H21A       -3.3700    0.2420   -4.8030 hc        1 PB6      0.049000
     34 H21B       -4.4960    0.9950   -3.9480 hc        1 PB6      0.049000
@<TRIPOS>BOND
     1    1    2 1   
     2    1    6 1   
     3    1   21 1   
     4    1   22 1   
     5    2    3 1   
     6    2   10 1   
     7    2   23 1   
     8    3    4 1   
     9    3    5 1   
    10    3    7 1   
    11    6    8 1   
    12    6   15 1   
    13    8   24 1   
    14    9   11 1   
    15    9   25 1   
    16   10   12 1   
    17   10   14 1   
    18   10   16 1   
    19   11   26 1   
    20   13   15 1   
    21   13   17 1   
    22   15   27 1   
    23   17   18 1   
    24   17   28 1   
    25   18   29 1   
    26   19   20 1   
    27   19   30 1   
    28   19   31 1   
    29   20   32 1   
    30   20   33 1   
    31   20   34 1   
@<TRIPOS>SUBSTRUCTURE
     1 PB6         1 TEMP              0 ****  ****    0 ROOT
