@<TRIPOS>MOLECULE
PB6
   34    36     1     0     0
SMALL
bcc


@<TRIPOS>ATOM
      1 C7          0.0000    0.0000    0.0000 c3        1 PB6     -0.197000
      2 C8          1.5310    0.0000    0.0000 c3        1 PB6     -0.574000
      3 P9          2.1370    0.0000    1.7190 p5        1 PB6      0.877000
      4 O10         1.6000    1.3140    2.4780 o         1 PB6     -0.581500
      5 O11         1.6440   -1.2090    2.4160 o         1 PB6     -0.581500
      6 N12        -0.4900    1.2620    0.5590 n3        1 PB6      0.705000
      7 O12         3.7470    0.0010    1.7190 o         1 PB6     -0.581500
      8 C13        -0.5530    2.3250   -0.2190 c2        1 PB6     -0.571000
      9 C14        -1.0090    3.5380    0.2670 c2        1 PB6     -0.071000
     10 P14         2.1380   -1.4870   -0.8590 p5        1 PB6      0.877000
     11 C15        -1.4030    3.6340    1.5900 c2        1 PB6     -0.226000
     12 O15         1.6100   -1.4820   -2.3810 o         1 PB6     -0.581500
     13 C16        -1.3220    2.4890    2.3900 c3        1 PB6      0.043000
     14 O16         3.7490   -1.4910   -0.8520 o         1 PB6     -0.581500
     15 C17        -0.8570    1.3020    1.8240 c2        1 PB6     -0.278000
     16 O17         1.6390   -2.6970   -0.1680 o         1 PB6     -0.581500
     17 C18        -1.7290    2.5340    3.8100 c2        1 PB6     -0.289000
     18 C19        -2.1740    3.6680    4.3360 c2        1 PB6     -0.716000
     19 C20        -2.5890    3.7130    5.7840 DU        1 PB6      0.034000
     20 C21        -1.8160    4.8230    6.5010 c3        1 PB6     -0.149000
     21 H7         -0.3610   -0.8250    0.6020 h1        1 PB6      0.102000
     22 H7A        -0.3610   -0.1090   -1.0160 h1        1 PB6      0.102000
     23 H8          1.8920    0.8850   -0.5100 hc        1 PB6      0.063000
     24 H13        -0.2450    2.2480   -1.2540 h4        1 PB6      0.129000
     25 H14        -1.0570    4.4040   -0.3830 ha        1 PB6      0.060000
     26 H15        -1.9780    4.4890    1.9240 ha        1 PB6      0.127000
     27 H17        -0.7900    0.4070    2.4310 h4        1 PB6      0.180000
     28 H18        -0.7850    2.9080    3.4320 DU        1 PB6      0.140000
     29 H19        -1.4830    3.7260    5.1680 DU        1 PB6      0.100000
     30 H20        -2.3720    2.7610    6.2520 ha        1 PB6     -0.012500
     31 H20A       -3.6520    3.9140    5.8490 ha        1 PB6     -0.012500
     32 H21        -1.6990    5.6700    5.8360 hc        1 PB6      0.015667
     33 H21A       -2.3610    5.1300    7.3850 hc        1 PB6      0.015667
     34 H21B       -0.8390    4.4530    6.7900 hc        1 PB6      0.015667
@<TRIPOS>BOND
     1    1    2 1   
     2    1    6 1   
     3    1   21 1   
     4    1   22 1   
     5    2    3 1   
     6    2   10 1   
     7    2   23 1   
     8    3    4 1   
     9    3    5 1   
    10    3    7 1   
    11    6    8 1   
    12    6   15 1   
    13    8    9 1   
    14    8   24 1   
    15    9   11 1   
    16    9   25 1   
    17   10   12 1   
    18   10   14 1   
    19   10   16 1   
    20   11   13 1   
    21   11   26 1   
    22   13   15 1   
    23   13   17 1   
    24   13   28 1   
    25   15   27 1   
    26   17   18 1   
    27   17   28 1   
    28   18   19 1   
    29   18   29 1   
    30   19   20 1   
    31   19   29 1   
    32   19   30 1   
    33   19   31 1   
    34   20   32 1   
    35   20   33 1   
    36   20   34 1   
@<TRIPOS>SUBSTRUCTURE
     1 PB6         1 TEMP              0 ****  ****    0 ROOT
