@<TRIPOS>MOLECULE
PB6
   34    34     1     0     0
SMALL
bcc


@<TRIPOS>ATOM
      1 C7         -1.2460   -1.1050   -0.2710 c3        1 PB6      0.030000
      2 C8         -1.6670    0.2090    0.2220 c2        1 PB6     -1.436000
      3 P9         -0.7360    1.4560   -0.2000 p5        1 PB6      2.104000
      4 O10         0.8140    0.8030    0.3110 os        1 PB6     -0.723000
      5 O11        -0.4220    1.6410   -1.6470 o         1 PB6     -0.916500
      6 N12         0.1810   -1.4520   -0.0540 n3        1 PB6     -0.203000
      7 O12        -0.8100    2.6770    0.6480 o         1 PB6     -0.916500
      8 C13         0.5700   -2.6010    0.4820 c2        1 PB6      0.084000
      9 C14         1.9130   -2.9500    0.6920 c2        1 PB6     -0.465000
     10 P14        -3.7680   -0.4060   -0.2010 p3        1 PB6      2.557000
     11 C15         2.9040   -1.9910    0.4100 c2        1 PB6     -0.003000
     12 O15        -3.9480   -1.2390    1.0310 o         1 PB6     -1.221000
     13 C16         2.5940   -0.7490   -0.0770 c2        1 PB6     -0.258000
     14 O16        -4.5520    0.8580   -0.2660 o         1 PB6     -1.221000
     15 C17         1.1470   -0.3470   -0.3610 c3        1 PB6      0.246000
     16 O17        -3.6600   -1.1980   -1.4660 o         1 PB6     -1.221000
     17 C18         3.5590    0.2800   -0.3200 c2        1 PB6      0.027000
     18 C19         4.9030    0.1410   -0.3140 c2        1 PB6     -0.367000
     19 C20         5.8310    1.2570   -0.5930 c3        1 PB6     -0.084000
     20 C21         6.8800    1.4060    0.4850 c3        1 PB6     -0.199000
     21 H7         -1.8630   -1.9350    0.1900 h1        1 PB6      0.106500
     22 H7A        -1.3940   -1.1380   -1.3940 h1        1 PB6      0.106500
     23 H8         -1.9890    0.2260    1.2750 ha        1 PB6      0.133000
     24 H13        -0.2240   -3.3320    0.7380 h4        1 PB6      0.113000
     25 H14         2.1690   -3.9320    1.0900 ha        1 PB6      0.084000
     26 H15         3.9550   -2.2620    0.6070 ha        1 PB6      0.065000
     27 H17         1.0170   -0.1710   -1.4810 h2        1 PB6      0.093000
     28 H18         3.1070    1.2720   -0.5290 ha        1 PB6      0.147000
     29 H19         5.3830   -0.8240   -0.1060 ha        1 PB6      0.087000
     30 H20         6.3510    1.0810   -1.5770 hc        1 PB6      0.053000
     31 H20A        5.2650    2.2230   -0.6930 hc        1 PB6      0.053000
     32 H21         7.5800    2.2440    0.2450 hc        1 PB6      0.047667
     33 H21A        6.3960    1.6190    1.4680 hc        1 PB6      0.047667
     34 H21B        7.4770    0.4680    0.5850 hc        1 PB6      0.047667
@<TRIPOS>BOND
     1    1    2 1   
     2    1    6 1   
     3    1   21 1   
     4    1   22 1   
     5    2    3 1   
     6    2   23 1   
     7    3    4 1   
     8    3    5 1   
     9    3    7 1   
    10    4   15 1   
    11    6    8 1   
    12    6   15 1   
    13    8    9 1   
    14    8   24 1   
    15    9   11 1   
    16    9   25 1   
    17   10   12 1   
    18   10   14 1   
    19   10   16 1   
    20   11   13 1   
    21   11   26 1   
    22   13   15 1   
    23   13   17 1   
    24   15   27 1   
    25   17   18 1   
    26   17   28 1   
    27   18   19 1   
    28   18   29 1   
    29   19   20 1   
    30   19   30 1   
    31   19   31 1   
    32   20   32 1   
    33   20   33 1   
    34   20   34 1   
@<TRIPOS>SUBSTRUCTURE
     1 PB6         1 TEMP              0 ****  ****    0 ROOT
