@<TRIPOS>MOLECULE
PB7
   97   100     1     0     0
SMALL
bcc


@<TRIPOS>ATOM
      1 C1          1.2760   -6.8290    0.5390 ca        1 PB7     -0.133000
      2 C2          2.2530    4.8900   -2.8550 ca        1 PB7     -0.137000
      3 C3          1.0700   -6.5560   -0.8120 ca        1 PB7     -0.131000
      4 C4          1.8130   -5.8470    1.3730 ca        1 PB7     -0.131000
      5 C5          1.3140    4.7080   -3.8700 ca        1 PB7     -0.129000
      6 C6          2.0050    4.3770   -1.5830 ca        1 PB7     -0.129000
      7 C7         -7.3860   -2.4990    1.6430 ca        1 PB7     -0.098000
      8 C8          1.3990   -5.3030   -1.3310 ca        1 PB7     -0.126500
      9 C9          2.1430   -4.5960    0.8580 ca        1 PB7     -0.126500
     10 C10         0.1340    4.0130   -3.6160 ca        1 PB7     -0.132000
     11 C11         0.8180    3.6900   -1.3240 ca        1 PB7     -0.132000
     12 C12        -6.2860   -1.6580    1.5120 ca        1 PB7     -0.157000
     13 C13        -8.6580   -2.0750    1.2570 ca        1 PB7     -0.201000
     14 C14        -7.7080    0.0770    0.6020 ca        1 PB7     -0.136000
     15 C15         1.9370   -4.3160   -0.5000 ca        1 PB7     -0.082300
     16 C16        -0.1250    3.4970   -2.3390 ca        1 PB7     -0.084300
     17 C17        -6.4470   -0.3660    0.9920 ca        1 PB7     -0.066300
     18 C18        -8.8120   -0.7850    0.7360 ca        1 PB7      0.119100
     19 C19         3.6910   -0.3050    0.8500 c         1 PB7      0.674500
     20 C21         0.7700    0.4970   -0.4540 c         1 PB7      0.633100
     21 C22         5.0840    1.3700   -0.2550 c3        1 PB7     -0.090400
     22 C23         3.8040    1.0750   -1.0510 c3        1 PB7      0.068000
     23 C24         4.8950    0.6800    1.1250 c3        1 PB7      0.063400
     24 C25         3.3220    3.3070    3.4480 c3        1 PB7     -0.178100
     25 C26         7.0020   -2.0990    2.7940 c3        1 PB7     -0.090100
     26 C29         2.3110   -2.9810   -1.0420 c3        1 PB7     -0.030100
     27 C30        -1.4110    2.7910   -2.0940 c3        1 PB7     -0.049100
     28 C31        -5.2590    0.5460    0.8920 c3        1 PB7      0.202100
     29 C33         1.4240   -1.8910   -0.4720 c3        1 PB7     -0.085400
     30 C34        -3.8430    1.8100   -0.6300 c3        1 PB7      0.132800
     31 C35         1.8850   -0.4910   -0.9030 c3        1 PB7      0.060700
     32 C36         6.1730   -0.1420    1.4580 c3        1 PB7     -0.055700
     33 C37        -1.3380    1.6310   -1.0850 c3        1 PB7      0.078700
     34 C38        -2.6920    0.8710   -1.0380 c3        1 PB7      0.075100
     35 N39         3.1920   -0.1010   -0.4400 n         1 PB7     -0.445800
     36 N41        -0.2490    0.7240   -1.3530 n         1 PB7     -0.559900
     37 N42        -5.1220    1.1780   -0.4090 n3        1 PB7     -0.815200
     38 O43         3.2760   -1.1450    1.6600 o         1 PB7     -0.620500
     39 O44         3.7010    3.3930    1.0790 o         1 PB7     -0.619100
     40 O45         0.7940    1.0580    0.6590 o         1 PB7     -0.611100
     41 O46        -2.9760    0.2110   -2.2590 oh        1 PB7     -0.597800
     42 O47       -10.0170   -0.2490    0.3180 os        1 PB7     -0.326900
     43 H1          1.0160   -7.8160    0.9480 ha        1 PB7      0.129000
     44 H2          3.1850    5.4370   -3.0570 ha        1 PB7      0.130000
     45 H3          0.6470   -7.3270   -1.4720 ha        1 PB7      0.129500
     46 H4          1.9760   -6.0610    2.4400 ha        1 PB7      0.129500
     47 H5          1.5040    5.1130   -4.8750 ha        1 PB7      0.145000
     48 H6          2.7440    4.5000   -0.7730 ha        1 PB7      0.145000
     49 H8          1.2350   -5.0930   -2.3980 ha        1 PB7      0.139500
     50 H9          2.5670   -3.8160    1.5120 ha        1 PB7      0.139500
     51 H10        -0.6000    3.8700   -4.4230 ha        1 PB7      0.139000
     52 H11         0.6410    3.2870   -0.3120 ha        1 PB7      0.139000
     53 H12        -5.2890   -2.0070    1.8170 ha        1 PB7      0.134000
     54 H13        -9.5160   -2.7510    1.3660 ha        1 PB7      0.137000
     55 H14        -7.8560    1.0880    0.1920 ha        1 PB7      0.162000
     56 H22         5.9590    0.9150   -0.7840 hc        1 PB7      0.077200
     57 H22A        5.2570    2.4700   -0.1740 hc        1 PB7      0.077200
     58 H23         3.1050    1.9620   -1.0060 h1        1 PB7      0.063200
     59 H23A        4.0380    0.8500   -2.1260 h1        1 PB7      0.063200
     60 H25         4.1210    3.3400    4.2260 hc        1 PB7      0.068700
     61 H25A        2.9430    4.3430    3.2710 hc        1 PB7      0.068700
     62 H25B        2.4790    2.6700    3.8110 hc        1 PB7      0.068700
     63 H26         8.0650   -1.7850    2.6610 hc        1 PB7      0.034033
     64 H26A        6.9130   -2.6330    3.7710 hc        1 PB7      0.034033
     65 H26B        6.7420   -2.8160    1.9770 hc        1 PB7      0.034033
     66 H28       -11.9920   -0.4590    0.0550 h1        1 PB7      0.043700
     67 H28A      -11.0360   -2.0130   -0.1770 h1        1 PB7      0.043700
     68 H28B      -11.3300   -1.3630    1.5140 h1        1 PB7      0.043700
     69 H29         3.3830   -2.7740   -0.7730 hc        1 PB7      0.051700
     70 H29A        2.2390   -2.9790   -2.1620 hc        1 PB7      0.051700
     71 H30        -2.1500    3.5400   -1.6930 hc        1 PB7      0.050700
     72 H30A       -1.8140    2.4080   -3.0700 hc        1 PB7      0.050700
     73 H31        -5.3850    1.3750    1.6490 h1        1 PB7      0.041700
     74 H31A       -4.3300   -0.0300    1.1830 h1        1 PB7      0.041700
     75 H33         0.3740   -2.0330   -0.8400 hc        1 PB7      0.073700
     76 H33A        1.4090   -1.9580    0.6490 hc        1 PB7      0.073700
     77 H34        -3.5350    2.3700    0.2960 h1        1 PB7      0.060200
     78 H34A       -4.0050    2.5590   -1.4580 h1        1 PB7      0.060200
     79 H35         1.9520   -0.4750   -2.0350 h1        1 PB7      0.065700
     80 H36         6.2800   -0.8890    0.6200 hc        1 PB7      0.060700
     81 H37        -1.1760    2.0720   -0.0530 h1        1 PB7      0.095700
     82 H38        -2.6060    0.0230   -0.2950 h1        1 PB7      0.086700
     83 HN41       -0.2970    0.2060   -2.1970 hn        1 PB7      0.319500
     84 HN42       -5.3180    0.5230   -1.1450 hn        1 PB7      0.373800
     85 HO46       -3.2090    0.8850   -2.9090 ho        1 PB7      0.400000
     86 N40         4.5370    1.5540    2.2200 n         1 PB7     -0.549900
     87 C27         7.3970    0.7530    1.4830 c3        1 PB7     -0.092100
     88 C20         3.8490    2.7560    2.1410 c         1 PB7      0.674100
     89 C32         6.0760   -0.9080    2.7720 c3        1 PB7     -0.097400
     90 H7         -7.2560   -3.5120    2.0540 ha        1 PB7      0.132000
     91 C28       -11.1550   -1.0920    0.4440 c3        1 PB7      0.113700
     92 H27         7.3170    1.5120    2.2980 hc        1 PB7      0.039700
     93 H27A        8.3100    0.1350    1.6680 hc        1 PB7      0.039700
     94 H27B        7.5320    1.2920    0.5160 hc        1 PB7      0.039700
     95 H32         5.0240   -1.2680    2.9340 hc        1 PB7      0.056200
     96 H32A        6.3330   -0.2260    3.6250 hc        1 PB7      0.056200
     97 HN40        4.4920    1.0770    3.0960 hn        1 PB7      0.314500
@<TRIPOS>BOND
     1    1    3 ar  
     2    1    4 ar  
     3    1   43 1   
     4    2    5 ar  
     5    2    6 ar  
     6    2   44 1   
     7    3    8 ar  
     8    3   45 1   
     9    4    9 ar  
    10    4   46 1   
    11    5   10 ar  
    12    5   47 1   
    13    6   11 ar  
    14    6   48 1   
    15    7   12 ar  
    16    7   13 ar  
    17    7   90 1   
    18    8   15 ar  
    19    8   49 1   
    20    9   15 ar  
    21    9   50 1   
    22   10   16 ar  
    23   10   51 1   
    24   11   16 ar  
    25   11   52 1   
    26   12   17 ar  
    27   12   53 1   
    28   13   18 ar  
    29   13   54 1   
    30   14   17 ar  
    31   14   18 ar  
    32   14   55 1   
    33   15   26 1   
    34   16   27 1   
    35   17   28 1   
    36   18   42 1   
    37   19   23 1   
    38   19   35 1   
    39   19   38 2   
    40   20   31 1   
    41   20   36 1   
    42   20   40 2   
    43   21   22 1   
    44   21   23 1   
    45   21   56 1   
    46   21   57 1   
    47   22   35 1   
    48   22   58 1   
    49   22   59 1   
    50   23   32 1   
    51   23   86 1   
    52   24   60 1   
    53   24   61 1   
    54   24   62 1   
    55   24   88 1   
    56   25   63 1   
    57   25   64 1   
    58   25   65 1   
    59   25   89 1   
    60   26   29 1   
    61   26   69 1   
    62   26   70 1   
    63   27   33 1   
    64   27   71 1   
    65   27   72 1   
    66   28   37 1   
    67   28   73 1   
    68   28   74 1   
    69   29   31 1   
    70   29   75 1   
    71   29   76 1   
    72   30   34 1   
    73   30   37 1   
    74   30   77 1   
    75   30   78 1   
    76   31   35 1   
    77   31   79 1   
    78   32   80 1   
    79   32   87 1   
    80   32   89 1   
    81   33   34 1   
    82   33   36 1   
    83   33   81 1   
    84   34   41 1   
    85   34   82 1   
    86   36   83 1   
    87   37   84 1   
    88   39   88 2   
    89   41   85 1   
    90   42   91 1   
    91   66   91 1   
    92   67   91 1   
    93   68   91 1   
    94   86   88 1   
    95   86   97 1   
    96   87   92 1   
    97   87   93 1   
    98   87   94 1   
    99   89   95 1   
   100   89   96 1   
@<TRIPOS>SUBSTRUCTURE
     1 PB7         1 TEMP              0 ****  ****    0 ROOT
