@<TRIPOS>MOLECULE
PB9
   74    78     1     0     0
SMALL
bcc


@<TRIPOS>ATOM
      1 C1          0.6960   -0.6570   -1.0300 ca        1 PB9     -0.044000
      2 C2          1.9730   -0.2720   -0.6470 ca        1 PB9     -0.180000
      3 C3          2.2990   -0.0740    0.7170 ca        1 PB9      0.177600
      4 C4          1.2910   -0.3300    1.6840 ca        1 PB9     -0.162300
      5 C5          0.0120   -0.7230    1.2870 ca        1 PB9     -0.046000
      6 C6         -0.2990   -0.8770   -0.0670 ca        1 PB9     -0.028000
      7 N10         3.6100    0.2620    1.1070 nh        1 PB9     -0.658000
      8 C11         3.8640    0.4840    2.5160 c3        1 PB9      0.196800
      9 C12         3.0470   -0.4800    3.4070 c3        1 PB9      0.101500
     10 C13         1.5630   -0.1940    3.1410 c3        1 PB9     -0.037100
     11 C18        -1.6070   -1.2630   -0.4610 cg        1 PB9      0.215800
     12 N19        -2.6800   -1.5790   -0.7830 n1        1 PB9     -0.321800
     13 N20         3.4110   -0.4080    4.8550 n4        1 PB9     -0.600300
     14 S22         4.8520   -1.6240    5.3400 sy        1 PB9      1.381800
     15 C23         6.2190   -0.7640    5.0340 ca        1 PB9     -0.012800
     16 O24         4.5350   -1.8380    6.6620 o         1 PB9     -0.559800
     17 O25         4.6680   -2.6390    4.4200 o         1 PB9     -0.559800
     18 N26         6.6120    0.1720    5.9610 nb        1 PB9     -0.590000
     19 C27         7.7910    0.7640    5.8010 ca        1 PB9      0.391200
     20 C28         8.6670    0.4860    4.7150 ca        1 PB9     -0.119300
     21 C29         8.2650   -0.4420    3.7640 ca        1 PB9     -0.104000
     22 C30         7.0230   -1.0760    3.9200 ca        1 PB9     -0.079300
     23 C35         3.5410    0.9860    5.3430 c3        1 PB9      0.108800
     24 C36         3.4180    1.1370    6.8660 c3        1 PB9     -0.090700
     25 C39         3.8280    2.5610    7.2230 c3        1 PB9     -0.111400
     26 C40         3.6230    2.8300    8.7150 c3        1 PB9      0.075500
     27 N41         2.2980    2.4940    9.2010 n         1 PB9     -0.405800
     28 C42         1.8500    1.1690    8.8320 c3        1 PB9      0.075500
     29 C43         2.0010    0.8480    7.3400 c3        1 PB9     -0.111400
     30 C53         1.3720    3.5440    9.2830 c         1 PB9      0.716100
     31 O54         0.0580    3.1510    9.4180 os        1 PB9     -0.440900
     32 O55         1.6330    4.7570    9.3100 o         1 PB9     -0.564000
     33 C56        -0.8580    4.2000    9.7580 c3        1 PB9      0.134700
     34 C60         4.4140    1.1320    0.2550 c3        1 PB9      0.276100
     35 C61         5.8190    0.6580    0.1420 cc        1 PB9     -0.244900
     36 C64         6.9640    1.1430    0.8120 cd        1 PB9      0.290200
     37 N65         8.0810    0.4030    0.4460 nd        1 PB9     -0.683000
     38 C66         7.6390   -0.5190   -0.4420 cc        1 PB9      0.405400
     39 N67         6.2590   -0.4090   -0.6540 na        1 PB9     -0.176900
     40 C68         5.4690   -1.1830   -1.5550 c3        1 PB9      0.011600
     41 H1          0.4650   -0.7950   -2.0990 ha        1 PB9      0.162000
     42 H2          2.7320   -0.1430   -1.4340 ha        1 PB9      0.145000
     43 H5         -0.7620   -0.9110    2.0490 ha        1 PB9      0.153000
     44 H111        3.6220    1.5490    2.8080 h1        1 PB9      0.052700
     45 H112        4.9700    0.3190    2.6780 h1        1 PB9      0.052700
     46 H12         3.2540   -1.5510    3.0810 hx        1 PB9      0.133700
     47 H131        1.2950    0.8450    3.4750 hc        1 PB9      0.068700
     48 H132        0.9200   -0.9130    3.7180 hc        1 PB9      0.068700
     49 H27         8.0730    1.5020    6.5790 h4        1 PB9      0.061100
     50 H28         9.6370    1.0060    4.6410 ha        1 PB9      0.185000
     51 H29         8.9020   -0.6770    2.8930 ha        1 PB9      0.198000
     52 H30         6.6890   -1.8270    3.1800 ha        1 PB9      0.185000
     53 H351        4.5320    1.3890    4.9930 hx        1 PB9      0.091700
     54 H352        2.7340    1.6180    4.8660 hx        1 PB9      0.091700
     55 H36         4.1220    0.4260    7.3880 hc        1 PB9      0.089700
     56 H391        4.9110    2.7160    6.9820 hc        1 PB9      0.054700
     57 H392        3.2310    3.2930    6.6190 hc        1 PB9      0.054700
     58 H401        3.8320    3.9180    8.9260 h1        1 PB9      0.084700
     59 H402        4.3510    2.2040    9.3060 h1        1 PB9      0.084700
     60 H421        2.4770    0.4390    9.4220 h1        1 PB9      0.084700
     61 H422        0.7730    1.0320    9.1310 h1        1 PB9      0.084700
     62 H431        1.7520   -0.2370    7.2050 hc        1 PB9      0.054700
     63 H432        1.2660    1.4510    6.7450 hc        1 PB9      0.054700
     64 H561       -0.5530    4.6770   10.7200 h1        1 PB9      0.060033
     65 H562       -1.8330    3.6620    9.8530 h1        1 PB9      0.060033
     66 H563       -0.8820    4.9610    8.9410 h1        1 PB9      0.060033
     67 H601        3.9540    1.2090   -0.7700 h1        1 PB9      0.072700
     68 H602        4.4450    2.1790    0.6850 h1        1 PB9      0.072700
     69 H64         7.0350    1.9930    1.4890 h4        1 PB9      0.038100
     70 H66         8.2590   -1.2620   -0.9570 h5        1 PB9      0.075100
     71 H681        4.5770   -1.6050   -1.0160 h1        1 PB9      0.065700
     72 H682        5.1080   -0.5380   -2.4030 h1        1 PB9      0.065700
     73 H683        6.0850   -2.0230   -1.9700 h1        1 PB9      0.065700
     74 H201        2.6050   -0.8010    5.3580 hn        1 PB9      0.440800
@<TRIPOS>BOND
     1    1    2 ar  
     2    1    6 ar  
     3    1   41 1   
     4    2    3 ar  
     5    2   42 1   
     6    3    4 ar  
     7    3    7 1   
     8    4    5 ar  
     9    4   10 1   
    10    5    6 ar  
    11    5   43 1   
    12    6   11 1   
    13    7    8 1   
    14    7   34 1   
    15    8    9 1   
    16    8   44 1   
    17    8   45 1   
    18    9   10 1   
    19    9   13 1   
    20    9   46 1   
    21   10   47 1   
    22   10   48 1   
    23   11   12 3   
    24   13   14 1   
    25   13   23 1   
    26   13   74 1   
    27   14   15 1   
    28   14   16 2   
    29   14   17 2   
    30   15   18 ar  
    31   15   22 ar  
    32   18   19 ar  
    33   19   20 ar  
    34   19   49 1   
    35   20   21 ar  
    36   20   50 1   
    37   21   22 ar  
    38   21   51 1   
    39   22   52 1   
    40   23   24 1   
    41   23   53 1   
    42   23   54 1   
    43   24   25 1   
    44   24   29 1   
    45   24   55 1   
    46   25   26 1   
    47   25   56 1   
    48   25   57 1   
    49   26   27 1   
    50   26   58 1   
    51   26   59 1   
    52   27   28 1   
    53   27   30 1   
    54   28   29 1   
    55   28   60 1   
    56   28   61 1   
    57   29   62 1   
    58   29   63 1   
    59   30   31 1   
    60   30   32 2   
    61   31   33 1   
    62   33   64 1   
    63   33   65 1   
    64   33   66 1   
    65   34   35 1   
    66   34   67 1   
    67   34   68 1   
    68   35   36 2   
    69   35   39 1   
    70   36   37 1   
    71   36   69 1   
    72   37   38 2   
    73   38   39 1   
    74   38   70 1   
    75   39   40 1   
    76   40   71 1   
    77   40   72 1   
    78   40   73 1   
@<TRIPOS>SUBSTRUCTURE
     1 PB9         1 TEMP              0 ****  ****    0 ROOT
