@<TRIPOS>MOLECULE
PB9
   73    66     1     0     0
SMALL
bcc


@<TRIPOS>ATOM
      1 C1         -4.1810   -1.6590   -4.0510 c1        1 PB9     -0.051000
      2 C2         -2.7750   -1.5120   -4.0780 c1        1 PB9     -0.128000
      3 C3         -2.0720   -1.3800   -2.8980 c1        1 PB9     -0.009500
      4 C4         -2.7950   -1.3940   -1.5990 c1        1 PB9     -0.009500
      5 C5         -4.1660   -1.5370   -1.5790 c1        1 PB9     -0.128000
      6 C6         -4.8830   -1.6720   -2.7930 c1        1 PB9     -0.062000
      7 N10        -0.5570   -1.0900   -2.8710 n2        1 PB9     -0.277000
      8 C11        -0.0180   -0.7100   -1.6890 c3        1 PB9     -0.050000
      9 C12        -0.5720   -1.3530   -0.4540 c3        1 PB9      0.028000
     10 C13        -1.9380   -1.3030   -0.2900 c2        1 PB9     -0.123000
     11 C18        -6.3930   -1.7610   -2.7730 c1        1 PB9     -0.090000
     12 N19        -7.5310   -1.8280   -2.7580 n1        1 PB9     -0.044000
     13 N20         0.0890   -0.6520    0.7900 n3        1 PB9     -0.806000
     14 S22         0.4960   -1.5530    2.1240 s4        1 PB9      2.052800
     15 C23         2.1920   -2.1120    2.0020 c1        1 PB9     -0.719000
     16 O24         0.2770   -0.8160    3.3360 o         1 PB9     -0.528400
     17 O25        -0.4050   -2.6570    2.3020 o         1 PB9     -0.528400
     18 N26         2.9510   -1.1620    2.6150 n2        1 PB9     -0.080000
     19 C27         4.2310   -1.4480    2.9900 c1        1 PB9     -0.087000
     20 C28         4.7620   -2.7070    2.7460 c1        1 PB9     -0.112000
     21 C29         4.0030   -3.6590    2.1320 c1        1 PB9     -0.112000
     22 C30         2.7210   -3.3730    1.7570 c1        1 PB9     -0.074000
     23 C35         0.5050    0.7390    0.7010 c3        1 PB9     -0.015000
     24 C36         0.2700    1.3810    1.9330 c3        1 PB9     -0.139000
     25 C39         1.3550    2.4650    2.2430 c3        1 PB9     -0.173500
     26 C40         1.1060    3.1930    3.5500 c3        1 PB9     -0.029000
     27 N41        -0.1360    3.0650    3.9420 n3        1 PB9     -0.282000
     28 C42        -1.1900    3.0890    3.1680 c3        1 PB9     -0.029000
     29 C43        -0.9370    2.3560    1.8580 c3        1 PB9     -0.173500
     30 C53        -0.3620    2.9090    5.3420 c1        1 PB9      0.382000
     31 O54         0.4830    3.5650    6.2740 o         1 PB9     -0.277000
     32 O55        -1.2740    2.2100    5.7360 o         1 PB9     -0.398000
     33 C56         0.1920    4.9440    6.4410 c3        1 PB9     -0.052000
     34 C60        -0.2340   -0.1090   -3.8870 c3        1 PB9      0.047000
     35 C61         1.0070   -0.5640   -4.6610 c2        1 PB9     -0.143000
     36 C64         2.3030   -0.2690   -4.3410 c1        1 PB9     -0.163000
     37 N65         3.0870   -0.7370   -5.3190 n2        1 PB9     -0.144000
     38 C66         2.2920   -1.3240   -6.2490 c1        1 PB9     -0.098000
     39 N67         1.0090   -1.2120   -5.8350 n2        1 PB9     -0.137000
     40 C68        -0.1390   -1.7120   -6.5190 c2        1 PB9     -0.083000
     41 H1         -4.6770   -1.7520   -4.8860 ha        1 PB9      0.144000
     42 H2         -2.3030   -1.5030   -4.9280 ha        1 PB9      0.142000
     43 H5         -4.6410   -1.5460   -0.7300 ha        1 PB9      0.142000
     44 H111       -0.1360    0.2590   -1.6030 h1        1 PB9      0.092500
     45 H112        0.9390   -0.8970   -1.7220 h1        1 PB9      0.092500
     46 H12        -0.3010   -2.2920   -0.4550 h1        1 PB9      0.130000
     47 H131       -2.1940   -2.0590    0.2840 ha        1 PB9      0.103000
     48 H132       -2.1510   -0.4520    0.1430 ha        1 PB9      0.103000
     49 H27         4.7720   -0.7690    3.4280 ha        1 PB9      0.167000
     50 H28         5.6770   -2.9100    3.0140 ha        1 PB9      0.152000
     51 H29         4.3760   -4.5460    1.9590 ha        1 PB9      0.152000
     52 H30         2.1800   -4.0500    1.3200 ha        1 PB9      0.173000
     53 H351       -0.0070    1.1880   -0.0050 h1        1 PB9      0.094500
     54 H352        1.4600    0.7800    0.4890 h1        1 PB9      0.094500
     55 H36         0.1750    0.7450    2.6680 hc        1 PB9      0.137000
     56 H391        2.2310    2.0300    2.2870 hc        1 PB9      0.092000
     57 H392        1.3640    3.1170    1.5160 hc        1 PB9      0.092000
     58 H401        1.6990    2.8250    4.2410 h1        1 PB9      0.102000
     59 H402        1.3070    4.1470    3.4290 h1        1 PB9      0.102000
     60 H421       -1.9380    2.6610    3.6340 h1        1 PB9      0.102000
     61 H422       -1.4230    4.0190    2.9740 h1        1 PB9      0.102000
     62 H431       -0.7650    3.0170    1.1570 hc        1 PB9      0.092000
     63 H432       -1.7370    1.8480    1.6230 hc        1 PB9      0.092000
     64 H561        0.7150    5.4690    5.7980 h1        1 PB9      0.091667
     65 H562        0.4250    5.2190    7.3560 h1        1 PB9      0.091667
     66 H563       -0.7660    5.0970    6.2870 h1        1 PB9      0.091667
     67 H601       -0.0550    0.7530   -3.4630 h1        1 PB9      0.102500
     68 H602       -0.9890   -0.0190   -4.5060 h1        1 PB9      0.102500
     69 H64         2.6020    0.1980   -3.5460 DU        1 PB9      0.188500
     70 H66         2.5930   -1.7500   -7.0720 DU        1 PB9      0.188500
     71 H681       -0.5200   -2.4620   -6.0140 ha        1 PB9      0.099000
     72 H682       -0.8080   -0.9990   -6.5990 ha        1 PB9      0.099000
     73 H683        0.1220   -2.0200   -7.4170 ha        1 PB9      0.099000
@<TRIPOS>BOND
     1    1    6 1   
     2    1   41 1   
     3    2    3 1   
     4    2   42 1   
     5    3    4 1   
     6    4    5 1   
     7    5   43 1   
     8    6   11 1   
     9    7    8 1   
    10    7   34 1   
    11    8    9 1   
    12    8   44 1   
    13    8   45 1   
    14    9   10 1   
    15    9   13 1   
    16    9   46 1   
    17   10   47 1   
    18   10   48 1   
    19   11   12 1   
    20   13   14 1   
    21   13   23 1   
    22   14   16 1   
    23   14   17 1   
    24   15   18 1   
    25   15   22 1   
    26   18   19 1   
    27   19   49 1   
    28   20   21 1   
    29   20   50 1   
    30   21   51 1   
    31   22   52 1   
    32   23   24 1   
    33   23   53 1   
    34   23   54 1   
    35   24   25 1   
    36   24   29 1   
    37   24   55 1   
    38   25   26 1   
    39   25   56 1   
    40   25   57 1   
    41   26   27 1   
    42   26   58 1   
    43   26   59 1   
    44   27   28 1   
    45   27   30 1   
    46   28   29 1   
    47   28   60 1   
    48   28   61 1   
    49   29   62 1   
    50   29   63 1   
    51   30   32 1   
    52   31   33 1   
    53   33   64 1   
    54   33   65 1   
    55   33   66 1   
    56   34   35 1   
    57   34   67 1   
    58   34   68 1   
    59   35   36 1   
    60   35   39 1   
    61   36   37 1   
    62   37   38 1   
    63   38   39 1   
    64   40   71 1   
    65   40   72 1   
    66   40   73 1   
@<TRIPOS>SUBSTRUCTURE
     1 PB9         1 TEMP              0 ****  ****    0 ROOT
