@<TRIPOS>MOLECULE
PB9
   74    78     1     0     0
SMALL
bcc


@<TRIPOS>ATOM
      1 C1          0.7100   -0.6860   -1.0310 ca        1 PB9     -0.044000
      2 C2          1.9840   -0.2920   -0.6470 ca        1 PB9     -0.180000
      3 C3          2.3060   -0.0900    0.7170 ca        1 PB9      0.177600
      4 C4          1.2990   -0.3510    1.6830 ca        1 PB9     -0.162300
      5 C5          0.0230   -0.7520    1.2850 ca        1 PB9     -0.046000
      6 C6         -0.2850   -0.9110   -0.0690 ca        1 PB9     -0.028000
      7 N10         3.6150    0.2560    1.1090 nh        1 PB9     -0.658000
      8 C11         3.8660    0.4810    2.5170 c3        1 PB9      0.196800
      9 C12         3.0540   -0.4870    3.4090 c3        1 PB9      0.101500
     10 C13         1.5680   -0.2110    3.1400 c3        1 PB9     -0.037100
     11 C18        -1.5900   -1.3060   -0.4640 cg        1 PB9      0.215800
     12 N19        -2.6600   -1.6300   -0.7870 n1        1 PB9     -0.321800
     13 N20         3.4150   -0.4110    4.8570 nx        1 PB9     -0.600300
     14 S22         4.8620   -1.6170    5.3460 sy        1 PB9      1.381800
     15 C23         6.2250   -0.7500    5.0410 ca        1 PB9     -0.012800
     16 O24         4.5450   -1.8320    6.6670 o         1 PB9     -0.559800
     17 O25         4.6860   -2.6350    4.4270 o         1 PB9     -0.559800
     18 N26         6.6120    0.1900    5.9670 nb        1 PB9     -0.590000
     19 C27         7.7870    0.7880    5.8080 ca        1 PB9      0.391200
     20 C28         8.6660    0.5150    4.7230 ca        1 PB9     -0.119300
     21 C29         8.2710   -0.4170    3.7730 ca        1 PB9     -0.104000
     22 C30         7.0320   -1.0580    3.9270 ca        1 PB9     -0.079300
     23 C35         3.5360    0.9850    5.3430 c3        1 PB9      0.108800
     24 C36         3.4100    1.1370    6.8660 c3        1 PB9     -0.090700
     25 C39         3.8140    2.5640    7.2210 c3        1 PB9     -0.111400
     26 C40         3.6060    2.8340    8.7130 c3        1 PB9      0.075500
     27 N41         2.2820    2.4930    9.1970 n         1 PB9     -0.405800
     28 C42         1.8400    1.1660    8.8290 c3        1 PB9      0.075500
     29 C43         1.9940    0.8430    7.3370 c3        1 PB9     -0.111400
     30 C53         1.3520    3.5390    9.2780 c         1 PB9      0.716100
     31 O54         0.0390    3.1410    9.4120 os        1 PB9     -0.440900
     32 O55         1.6070    4.7530    9.3040 o         1 PB9     -0.564000
     33 C56        -0.8810    4.1870    9.7490 c3        1 PB9      0.134700
     34 C60         4.4140    1.1300    0.2570 c3        1 PB9      0.276100
     35 C61         5.8220    0.6650    0.1460 cc        1 PB9     -0.244900
     36 C64         6.9630    1.1590    0.8170 cd        1 PB9      0.290200
     37 N65         8.0860    0.4260    0.4540 nd        1 PB9     -0.683000
     38 C66         7.6510   -0.4990   -0.4340 cc        1 PB9      0.405400
     39 N67         6.2710   -0.3990   -0.6480 na        1 PB9     -0.176900
     40 C68         5.4870   -1.1790   -1.5490 c3        1 PB9      0.011600
     41 H1          0.4810   -0.8270   -2.1010 ha        1 PB9      0.162000
     42 H2          2.7430   -0.1590   -1.4340 ha        1 PB9      0.145000
     43 H5         -0.7510   -0.9450    2.0460 ha        1 PB9      0.153000
     44 H111        3.6160    1.5450    2.8070 h1        1 PB9      0.052700
     45 H112        4.9720    0.3240    2.6800 h1        1 PB9      0.052700
     46 H12         3.2680   -1.5560    3.0840 hx        1 PB9      0.133700
     47 H131        1.2930    0.8270    3.4720 hc        1 PB9      0.068700
     48 H132        0.9290   -0.9330    3.7180 hc        1 PB9      0.068700
     49 H27         8.0640    1.5280    6.5850 h4        1 PB9      0.061100
     50 H28         9.6330    1.0400    4.6500 ha        1 PB9      0.185000
     51 H29         8.9100   -0.6490    2.9020 ha        1 PB9      0.198000
     52 H30         6.7030   -1.8120    3.1880 ha        1 PB9      0.185000
     53 H351        4.5260    1.3930    4.9940 hx        1 PB9      0.091700
     54 H352        2.7260    1.6120    4.8640 hx        1 PB9      0.091700
     55 H36         4.1170    0.4300    7.3890 hc        1 PB9      0.089700
     56 H391        3.2150    3.2930    6.6150 hc        1 PB9      0.054700
     57 H392        4.8970    2.7230    6.9820 hc        1 PB9      0.054700
     58 H401        4.3360    2.2110    9.3050 h1        1 PB9      0.084700
     59 H402        3.8100    3.9230    8.9230 h1        1 PB9      0.084700
     60 H421        0.7630    1.0240    9.1270 h1        1 PB9      0.084700
     61 H422        2.4690    0.4390    9.4210 h1        1 PB9      0.084700
     62 H431        1.7500   -0.2420    7.2030 hc        1 PB9      0.054700
     63 H432        1.2580    1.4430    6.7420 hc        1 PB9      0.054700
     64 H561       -0.9080    4.9460    8.9310 h1        1 PB9      0.060033
     65 H562       -1.8550    3.6450    9.8450 h1        1 PB9      0.060033
     66 H563       -0.5790    4.6660   10.7110 h1        1 PB9      0.060033
     67 H601        3.9550    1.2020   -0.7700 h1        1 PB9      0.072700
     68 H602        4.4380    2.1780    0.6850 h1        1 PB9      0.072700
     69 H64         7.0270    2.0100    1.4940 h4        1 PB9      0.038100
     70 H66         8.2780   -1.2390   -0.9470 h5        1 PB9      0.075100
     71 H681        6.1100   -2.0170   -1.9620 h1        1 PB9      0.066033
     72 H682        5.1250   -0.5380   -2.3990 h1        1 PB9      0.066033
     73 H683        4.5970   -1.6060   -1.0120 h1        1 PB9      0.066033
     74 H201        2.6110   -0.8070    5.3600 hn        1 PB9      0.440800
@<TRIPOS>BOND
     1    1    2 ar  
     2    1    6 ar  
     3    1   41 1   
     4    2    3 ar  
     5    2   42 1   
     6    3    4 ar  
     7    3    7 1   
     8    4    5 ar  
     9    4   10 1   
    10    5    6 ar  
    11    5   43 1   
    12    6   11 1   
    13    7    8 1   
    14    7   34 1   
    15    8    9 1   
    16    8   44 1   
    17    8   45 1   
    18    9   10 1   
    19    9   13 1   
    20    9   46 1   
    21   10   47 1   
    22   10   48 1   
    23   11   12 3   
    24   13   14 1   
    25   13   23 1   
    26   13   74 1   
    27   14   15 1   
    28   14   16 2   
    29   14   17 2   
    30   15   18 ar  
    31   15   22 ar  
    32   18   19 ar  
    33   19   20 ar  
    34   19   49 1   
    35   20   21 ar  
    36   20   50 1   
    37   21   22 ar  
    38   21   51 1   
    39   22   52 1   
    40   23   24 1   
    41   23   53 1   
    42   23   54 1   
    43   24   25 1   
    44   24   29 1   
    45   24   55 1   
    46   25   26 1   
    47   25   56 1   
    48   25   57 1   
    49   26   27 1   
    50   26   58 1   
    51   26   59 1   
    52   27   28 1   
    53   27   30 1   
    54   28   29 1   
    55   28   60 1   
    56   28   61 1   
    57   29   62 1   
    58   29   63 1   
    59   30   31 1   
    60   30   32 2   
    61   31   33 1   
    62   33   64 1   
    63   33   65 1   
    64   33   66 1   
    65   34   35 1   
    66   34   67 1   
    67   34   68 1   
    68   35   36 2   
    69   35   39 1   
    70   36   37 1   
    71   36   69 1   
    72   37   38 2   
    73   38   39 1   
    74   38   70 1   
    75   39   40 1   
    76   40   71 1   
    77   40   72 1   
    78   40   73 1   
@<TRIPOS>SUBSTRUCTURE
     1 PB9         1 TEMP              0 ****  ****    0 ROOT
