@<TRIPOS>MOLECULE
PB9
   73    77     1     0     0
SMALL
bcc


@<TRIPOS>ATOM
      1 C1          0.8610   -5.2830    0.3270 ca        1 PB9     -0.052000
      2 C2          1.5630   -4.2620   -0.2950 ca        1 PB9     -0.208000
      3 C3          1.0940   -2.9240   -0.2680 ca        1 PB9      0.201600
      4 C4         -0.1110   -2.6590    0.4450 ca        1 PB9     -0.148300
      5 C5         -0.8000   -3.6960    1.0700 ca        1 PB9     -0.047000
      6 C6         -0.3310   -5.0130    1.0110 ca        1 PB9     -0.064000
      7 N10         1.8270   -1.8760   -0.8370 nh        1 PB9     -0.668000
      8 C11         1.2510   -0.5460   -0.8460 c3        1 PB9      0.181800
      9 C12         0.4410   -0.2350    0.4420 c3        1 PB9      0.228500
     10 C13        -0.6740   -1.2850    0.5410 c3        1 PB9     -0.038100
     11 C18        -1.0500   -6.0590    1.6430 cg        1 PB9      0.239800
     12 N19        -1.6400   -6.9190    2.1600 n1        1 PB9     -0.369800
     13 N20        -0.0120    1.1370    0.4990 n3        1 PB9     -0.789500
     14 S22         0.6680    2.1720    1.5590 sy        1 PB9      1.424800
     15 C23         2.1560    2.6340    0.8050 ca        1 PB9      0.127200
     16 O24        -0.1200    3.3200    1.7330 o         1 PB9     -0.642300
     17 O25         1.0300    1.4880    2.7410 o         1 PB9     -0.642300
     18 N26         2.1120    3.0970   -0.4710 nb        1 PB9     -0.605000
     19 C27         3.2560    3.5080   -1.0320 ca        1 PB9      0.380200
     20 C28         4.5030    3.4830   -0.3670 ca        1 PB9     -0.178300
     21 C29         4.5440    3.0050    0.9390 ca        1 PB9     -0.113000
     22 C30         3.3540    2.5720    1.5370 ca        1 PB9     -0.141300
     23 C35        -0.9390    1.5970   -0.5070 c3        1 PB9      0.219800
     24 C36        -2.3070    2.0810    0.0050 c3        1 PB9     -0.098700
     25 C39        -3.0320    2.7630   -1.1490 c3        1 PB9     -0.103900
     26 C40        -4.4320    3.2100   -0.7280 c3        1 PB9      0.070000
     27 N41        -5.2340    2.1680   -0.1050 n         1 PB9     -0.397800
     28 C42        -4.5440    1.4410    0.9450 c3        1 PB9      0.070000
     29 C43        -3.1500    0.9440    0.5550 c3        1 PB9     -0.103900
     30 C53        -6.1300    1.4900   -0.9360 c         1 PB9      0.715100
     31 O54        -6.5970    0.2860   -0.4400 os        1 PB9     -0.442900
     32 O55        -6.6080    1.8920   -2.0110 o         1 PB9     -0.583000
     33 C56        -7.6720   -0.2990   -1.1780 c3        1 PB9      0.136700
     34 C60         2.7270   -2.1140   -1.9500 c3        1 PB9      0.285100
     35 C61         4.0730   -1.5040   -1.7700 cc        1 PB9     -0.239900
     36 C64         4.7740   -0.6790   -2.6790 cd        1 PB9      0.299200
     37 N65         6.0200   -0.3470   -2.1620 nd        1 PB9     -0.668000
     38 C66         6.0900   -0.9510   -0.9540 cc        1 PB9      0.385400
     39 N67         4.9240   -1.6770   -0.6700 na        1 PB9     -0.180900
     40 C68         4.6520   -2.3860    0.5360 c3        1 PB9      0.022600
     41 H1          1.2470   -6.3140    0.2830 ha        1 PB9      0.145000
     42 H2          2.5050   -4.5250   -0.8010 ha        1 PB9      0.138000
     43 H5         -1.7310   -3.4730    1.6170 ha        1 PB9      0.147000
     44 H111        2.1060    0.1830   -0.9420 h1        1 PB9      0.054700
     45 H112        0.5810   -0.4150   -1.7460 h1        1 PB9      0.054700
     46 H12         1.1260   -0.3920    1.3360 h1        1 PB9      0.088700
     47 H131       -1.4250   -1.1370   -0.2820 hc        1 PB9      0.064200
     48 H132       -1.2180   -1.1610    1.5160 hc        1 PB9      0.064200
     49 H27         3.1790    3.8790   -2.0700 h4        1 PB9      0.031100
     50 H28         5.4110    3.8290   -0.8800 ha        1 PB9      0.154000
     51 H29         5.4910    2.9650    1.4960 ha        1 PB9      0.149000
     52 H30         3.3490    2.1850    2.5700 ha        1 PB9      0.172000
     53 H351       -0.4620    2.4600   -1.0620 h1        1 PB9      0.059200
     54 H352       -1.1190    0.7760   -1.2590 h1        1 PB9      0.059200
     55 H36        -2.1540    2.8450    0.8210 hc        1 PB9      0.091700
     56 H391       -2.4590    3.6680   -1.4770 hc        1 PB9      0.052200
     57 H392       -3.1000    2.0650   -2.0240 hc        1 PB9      0.052200
     58 H401       -4.3390    4.0330    0.0370 h1        1 PB9      0.073450
     59 H402       -4.9810    3.6130   -1.6250 h1        1 PB9      0.073450
     60 H421       -4.4440    2.1590    1.8100 h1        1 PB9      0.073450
     61 H422       -5.1710    0.5700    1.2810 h1        1 PB9      0.073450
     62 H431       -3.2370    0.1270   -0.2090 hc        1 PB9      0.052200
     63 H432       -2.6640    0.5090    1.4660 hc        1 PB9      0.052200
     64 H561       -7.3380   -0.5320   -2.2180 h1        1 PB9      0.052033
     65 H562       -7.9010   -1.2290   -0.6010 h1        1 PB9      0.052033
     66 H563       -8.5440    0.3970   -1.2030 h1        1 PB9      0.052033
     67 H601        2.8520   -3.2190   -2.1360 h1        1 PB9      0.063200
     68 H602        2.2900   -1.6680   -2.8960 h1        1 PB9      0.063200
     69 H64         4.4460   -0.3290   -3.6560 h4        1 PB9      0.042100
     70 H66         6.9390   -0.9080   -0.2650 h5        1 PB9      0.062100
     71 H681        4.0390   -3.3000    0.3110 h1        1 PB9      0.058367
     72 H682        5.6190   -2.6930    1.0160 h1        1 PB9      0.058367
     73 H683        4.0760   -1.7360    1.2500 h1        1 PB9      0.058367
@<TRIPOS>BOND
     1    1    2 ar  
     2    1    6 ar  
     3    1   41 1   
     4    2    3 ar  
     5    2   42 1   
     6    3    4 ar  
     7    3    7 1   
     8    4    5 ar  
     9    4   10 1   
    10    5    6 ar  
    11    5   43 1   
    12    6   11 1   
    13    7    8 1   
    14    7   34 1   
    15    8    9 1   
    16    8   44 1   
    17    8   45 1   
    18    9   10 1   
    19    9   13 1   
    20    9   46 1   
    21   10   47 1   
    22   10   48 1   
    23   11   12 3   
    24   13   14 1   
    25   13   23 1   
    26   14   15 1   
    27   14   16 2   
    28   14   17 2   
    29   15   18 ar  
    30   15   22 ar  
    31   18   19 ar  
    32   19   20 ar  
    33   19   49 1   
    34   20   21 ar  
    35   20   50 1   
    36   21   22 ar  
    37   21   51 1   
    38   22   52 1   
    39   23   24 1   
    40   23   53 1   
    41   23   54 1   
    42   24   25 1   
    43   24   29 1   
    44   24   55 1   
    45   25   26 1   
    46   25   56 1   
    47   25   57 1   
    48   26   27 1   
    49   26   58 1   
    50   26   59 1   
    51   27   28 1   
    52   27   30 1   
    53   28   29 1   
    54   28   60 1   
    55   28   61 1   
    56   29   62 1   
    57   29   63 1   
    58   30   31 1   
    59   30   32 2   
    60   31   33 1   
    61   33   64 1   
    62   33   65 1   
    63   33   66 1   
    64   34   35 1   
    65   34   67 1   
    66   34   68 1   
    67   35   36 2   
    68   35   39 1   
    69   36   37 1   
    70   36   69 1   
    71   37   38 2   
    72   38   39 1   
    73   38   70 1   
    74   39   40 1   
    75   40   71 1   
    76   40   72 1   
    77   40   73 1   
@<TRIPOS>SUBSTRUCTURE
     1 PB9         1 TEMP              0 ****  ****    0 ROOT
