@<TRIPOS>MOLECULE
PB9
   74    78     1     0     0
SMALL
bcc


@<TRIPOS>ATOM
      1 C1          0.7010   -0.6830   -1.0240 ca        1 PB9     -0.044000
      2 C2          1.9770   -0.2970   -0.6410 ca        1 PB9     -0.180000
      3 C3          2.3020   -0.0930    0.7230 ca        1 PB9      0.177600
      4 C4          1.2920   -0.3430    1.6900 ca        1 PB9     -0.162300
      5 C5          0.0140   -0.7370    1.2930 ca        1 PB9     -0.046000
      6 C6         -0.2960   -0.8970   -0.0610 ca        1 PB9     -0.028000
      7 N10         3.6130    0.2440    1.1120 nh        1 PB9     -0.658000
      8 C11         3.8660    0.4730    2.5210 c3        1 PB9      0.196800
      9 C12         3.0460   -0.4870    3.4150 c3        1 PB9      0.101500
     10 C13         1.5630   -0.2000    3.1460 c3        1 PB9     -0.037100
     11 C18        -1.6040   -1.2840   -0.4540 cg        1 PB9      0.215800
     12 N19        -2.6760   -1.6010   -0.7760 n1        1 PB9     -0.321800
     13 N20         3.4090   -0.4080    4.8630 n4        1 PB9     -0.600300
     14 S22         4.8470   -1.6230    5.3560 sy        1 PB9      1.381800
     15 C23         6.2160   -0.7670    5.0480 ca        1 PB9     -0.012800
     16 O24         4.5290   -1.8300    6.6790 o         1 PB9     -0.559800
     17 O25         4.6640   -2.6430    4.4410 o         1 PB9     -0.559800
     18 N26         6.6100    0.1740    5.9700 nb        1 PB9     -0.590000
     19 C27         7.7900    0.7630    5.8080 ca        1 PB9      0.391200
     20 C28         8.6670    0.4790    4.7240 ca        1 PB9     -0.119300
     21 C29         8.2640   -0.4540    3.7790 ca        1 PB9     -0.104000
     22 C30         7.0210   -1.0850    3.9360 ca        1 PB9     -0.079300
     23 C35         3.5400    0.9890    5.3440 c3        1 PB9      0.108800
     24 C36         3.4160    1.1470    6.8670 c3        1 PB9     -0.090700
     25 C39         3.8290    2.5720    7.2160 c3        1 PB9     -0.111400
     26 C40         3.6230    2.8490    8.7080 c3        1 PB9      0.075500
     27 N41         2.2970    2.5180    9.1940 n         1 PB9     -0.405800
     28 C42         1.8460    1.1930    8.8310 c3        1 PB9      0.075500
     29 C43         1.9980    0.8640    7.3400 c3        1 PB9     -0.111400
     30 C53         1.3730    3.5710    9.2710 c         1 PB9      0.716100
     31 O54         0.0580    3.1820    9.4060 os        1 PB9     -0.440900
     32 O55         1.6370    4.7830    9.2920 o         1 PB9     -0.564000
     33 C56        -0.8550    4.2350    9.7410 c3        1 PB9      0.134700
     34 C60         4.4190    1.1090    0.2570 c3        1 PB9      0.276100
     35 C61         5.8230    0.6330    0.1490 cc        1 PB9     -0.244900
     36 C64         6.9680    1.1200    0.8170 cd        1 PB9      0.290200
     37 N65         8.0850    0.3780    0.4560 nd        1 PB9     -0.683000
     38 C66         7.6430   -0.5480   -0.4280 cc        1 PB9      0.405400
     39 N67         6.2640   -0.4380   -0.6420 na        1 PB9     -0.176900
     40 C68         5.4740   -1.2150   -1.5400 c3        1 PB9      0.011600
     41 H1          0.4700   -0.8260   -2.0930 ha        1 PB9      0.162000
     42 H2          2.7380   -0.1730   -1.4280 ha        1 PB9      0.145000
     43 H5         -0.7610   -0.9200    2.0550 ha        1 PB9      0.153000
     44 H111        4.9710    0.3080    2.6840 h1        1 PB9      0.052700
     45 H112        3.6240    1.5390    2.8070 h1        1 PB9      0.052700
     46 H12         3.2530   -1.5590    3.0950 hx        1 PB9      0.133700
     47 H131        0.9190   -0.9160    3.7260 hc        1 PB9      0.068700
     48 H132        1.2960    0.8410    3.4750 hc        1 PB9      0.068700
     49 H27         8.0720    1.5050    6.5830 h4        1 PB9      0.061100
     50 H28         9.6370    0.9970    4.6490 ha        1 PB9      0.185000
     51 H29         8.9020   -0.6950    2.9090 ha        1 PB9      0.198000
     52 H30         6.6870   -1.8400    3.2000 ha        1 PB9      0.185000
     53 H351        2.7340    1.6200    4.8640 hx        1 PB9      0.091700
     54 H352        4.5330    1.3890    4.9930 hx        1 PB9      0.091700
     55 H36         4.1170    0.4380    7.3920 hc        1 PB9      0.089700
     56 H391        4.9130    2.7240    6.9760 hc        1 PB9      0.054700
     57 H392        3.2340    3.3030    6.6090 hc        1 PB9      0.054700
     58 H401        4.3490    2.2240    9.3020 h1        1 PB9      0.084700
     59 H402        3.8340    3.9380    8.9130 h1        1 PB9      0.084700
     60 H421        0.7680    1.0590    9.1290 h1        1 PB9      0.084700
     61 H422        2.4710    0.4640    9.4250 h1        1 PB9      0.084700
     62 H431        1.2650    1.4660    6.7420 hc        1 PB9      0.054700
     63 H432        1.7460   -0.2200    7.2100 hc        1 PB9      0.054700
     64 H561       -1.8320    3.6990    9.8390 h1        1 PB9      0.060033
     65 H562       -0.5490    4.7150   10.7010 h1        1 PB9      0.060033
     66 H563       -0.8780    4.9920    8.9200 h1        1 PB9      0.060033
     67 H601        4.4500    2.1580    0.6820 h1        1 PB9      0.072700
     68 H602        3.9600    1.1810   -0.7690 h1        1 PB9      0.072700
     69 H64         7.0390    1.9740    1.4900 h4        1 PB9      0.038100
     70 H66         8.2640   -1.2940   -0.9380 h5        1 PB9      0.075100
     71 H681        4.5800   -1.6330   -1.0010 h1        1 PB9      0.066033
     72 H682        6.0900   -2.0590   -1.9490 h1        1 PB9      0.066033
     73 H683        5.1160   -0.5750   -2.3930 h1        1 PB9      0.066033
     74 H201        2.6020   -0.7960    5.3670 hn        1 PB9      0.440800
@<TRIPOS>BOND
     1    1    2 ar  
     2    1    6 ar  
     3    1   41 1   
     4    2    3 ar  
     5    2   42 1   
     6    3    4 ar  
     7    3    7 1   
     8    4    5 ar  
     9    4   10 1   
    10    5    6 ar  
    11    5   43 1   
    12    6   11 1   
    13    7    8 1   
    14    7   34 1   
    15    8    9 1   
    16    8   44 1   
    17    8   45 1   
    18    9   10 1   
    19    9   13 1   
    20    9   46 1   
    21   10   47 1   
    22   10   48 1   
    23   11   12 3   
    24   13   14 1   
    25   13   23 1   
    26   13   74 1   
    27   14   15 1   
    28   14   16 2   
    29   14   17 2   
    30   15   18 ar  
    31   15   22 ar  
    32   18   19 ar  
    33   19   20 ar  
    34   19   49 1   
    35   20   21 ar  
    36   20   50 1   
    37   21   22 ar  
    38   21   51 1   
    39   22   52 1   
    40   23   24 1   
    41   23   53 1   
    42   23   54 1   
    43   24   25 1   
    44   24   29 1   
    45   24   55 1   
    46   25   26 1   
    47   25   56 1   
    48   25   57 1   
    49   26   27 1   
    50   26   58 1   
    51   26   59 1   
    52   27   28 1   
    53   27   30 1   
    54   28   29 1   
    55   28   60 1   
    56   28   61 1   
    57   29   62 1   
    58   29   63 1   
    59   30   31 1   
    60   30   32 2   
    61   31   33 1   
    62   33   64 1   
    63   33   65 1   
    64   33   66 1   
    65   34   35 1   
    66   34   67 1   
    67   34   68 1   
    68   35   36 2   
    69   35   39 1   
    70   36   37 1   
    71   36   69 1   
    72   37   38 2   
    73   38   39 1   
    74   38   70 1   
    75   39   40 1   
    76   40   71 1   
    77   40   72 1   
    78   40   73 1   
@<TRIPOS>SUBSTRUCTURE
     1 PB9         1 TEMP              0 ****  ****    0 ROOT
