@<TRIPOS>MOLECULE
PBB
   26    26     1     0     0
SMALL
bcc


@<TRIPOS>ATOM
      1 CA          0.3360    0.5740    4.4520 c3        1 PBB      0.020500
      2 C          -0.4580    0.1770    5.7530 c         1 PBB      0.891600
      3 O           0.0880    0.4170    6.8650 o         1 PBB     -0.834800
      4 OXT        -1.5990   -0.3370    5.6030 o         1 PBB     -0.834800
      5 N           1.7170    0.9700    4.6900 n3        1 PBB     -0.883800
      6 CB          0.1940   -0.5660    3.4580 c3        1 PBB      0.025700
      7 SG          0.5510   -0.0030    1.8060 ss        1 PBB     -0.323200
      8 BR         -0.2970    0.4320   -5.0890 br        1 PBB     -0.120100
      9 C1         -0.3780   -0.7590   -0.5640 ca        1 PBB     -0.027300
     10 C2          0.5580   -1.3330   -1.4340 ca        1 PBB     -0.121500
     11 C3          0.5860   -0.9770   -2.7800 ca        1 PBB     -0.107500
     12 C4         -0.3270   -0.0420   -3.2740 ca        1 PBB     -0.033900
     13 C5         -1.2610    0.5410   -2.4130 ca        1 PBB     -0.107500
     14 C6         -1.2860    0.1830   -1.0680 ca        1 PBB     -0.121500
     15 C7         -0.4190   -1.1500    0.8610 c3        1 PBB      0.014000
     16 HA         -0.1920    1.4810    4.0350 h1        1 PBB      0.060700
     17 H           1.7120    1.5900    5.4850 hn        1 PBB      0.333300
     18 H2          2.2410    0.1590    4.9700 hn        1 PBB      0.333300
     19 HB2         0.8760   -1.4130    3.7080 h1        1 PBB      0.070200
     20 HB3        -0.8630   -0.9350    3.5140 h1        1 PBB      0.070200
     21 HC2         1.2840   -2.0640   -1.0470 ha        1 PBB      0.145500
     22 H3          1.3310   -1.4360   -3.4470 ha        1 PBB      0.138000
     23 H5         -1.9790    1.2860   -2.7900 ha        1 PBB      0.138000
     24 H6         -2.0160    0.6510   -0.3890 ha        1 PBB      0.145500
     25 H71        -0.0170   -2.1850    0.9980 h1        1 PBB      0.064700
     26 H72        -1.4730   -1.1490    1.2400 h1        1 PBB      0.064700
@<TRIPOS>BOND
     1    1    2 1   
     2    1    5 1   
     3    1    6 1   
     4    1   16 1   
     5    2    3 1   
     6    2    4 1   
     7    5   17 1   
     8    5   18 1   
     9    6    7 1   
    10    6   19 1   
    11    6   20 1   
    12    7   15 1   
    13    8   12 1   
    14    9   10 ar  
    15    9   14 ar  
    16    9   15 1   
    17   10   11 ar  
    18   10   21 1   
    19   11   12 ar  
    20   11   22 1   
    21   12   13 ar  
    22   13   14 ar  
    23   13   23 1   
    24   14   24 1   
    25   15   25 1   
    26   15   26 1   
@<TRIPOS>SUBSTRUCTURE
     1 PBB         1 TEMP              0 ****  ****    0 ROOT
