@<TRIPOS>MOLECULE
PBD
   42    43     1     0     0
SMALL
bcc


@<TRIPOS>ATOM
      1 CAA         6.3730    2.0500    1.2820 c3        1 PBD      0.109700
      2 CAB         5.3470   -2.8960   -0.7380 c3        1 PBD      0.109700
      3 SAC        -0.2110    1.5060   -0.7970 s         1 PBD     -0.560400
      4 CAD        -7.3950    0.7460    1.8480 cc        1 PBD      0.289200
      5 CAE         2.3730    0.9140    0.6750 ca        1 PBD     -0.104000
      6 CAF         3.6930    1.3110    0.8940 ca        1 PBD     -0.171000
      7 CAG        -6.2210    1.2070    1.2280 cd        1 PBD     -0.252600
      8 CAH        -7.0680   -0.5520    0.1150 cd        1 PBD      0.384400
      9 CAI         3.1630   -1.2490   -0.1200 ca        1 PBD     -0.213000
     10 CAJ        -3.6680   -0.3170   -0.3150 c3        1 PBD     -0.132400
     11 CAK        -2.5930   -0.2120   -1.3980 c3        1 PBD      0.064000
     12 CAL        -4.9140    0.4330   -0.7930 c3        1 PBD      0.044300
     13 NAM        -7.9110   -0.3450    1.1470 nc        1 PBD     -0.665000
     14 NAN        -1.3460   -0.8500   -1.0640 n         1 PBD     -0.513900
     15 OAP         6.0850    0.7400    0.8050 os        1 PBD     -0.302900
     16 CAR        -0.2530   -0.1040   -0.6140 c         1 PBD      0.564400
     17 CAS         2.0920   -0.3630    0.1670 ca        1 PBD      0.031600
     18 CAT         4.7500    0.4480    0.6190 ca        1 PBD      0.102100
     19 CAU         4.4750   -0.8500    0.1080 ca        1 PBD      0.115100
     20 NAV        -6.0210    0.3850    0.1140 na        1 PBD     -0.210900
     21 HAA         7.4910    2.0630    1.3370 h1        1 PBD      0.045700
     22 HAAA        6.0030    2.8230    0.5660 h1        1 PBD      0.045700
     23 HAAB        5.9280    2.2080    2.2950 h1        1 PBD      0.045700
     24 HAB         6.3760   -3.3170   -0.8690 h1        1 PBD      0.043700
     25 HABA        4.7370   -3.5540   -0.0720 h1        1 PBD      0.043700
     26 HABB        4.8450   -2.7660   -1.7270 h1        1 PBD      0.043700
     27 HAE         1.5540    1.6260    0.8840 ha        1 PBD      0.180000
     28 HAF         3.8820    2.3210    1.2860 ha        1 PBD      0.147000
     29 HAG        -5.5490    2.0260    1.4750 h4        1 PBD      0.179000
     30 HAH        -7.1680   -1.3270   -0.6510 h5        1 PBD      0.058100
     31 HAI         2.9600   -2.2520   -0.5210 ha        1 PBD      0.136000
     32 HAJ        -3.9170   -1.3910   -0.1140 hc        1 PBD      0.059700
     33 HAJA       -3.3000    0.1310    0.6440 hc        1 PBD      0.059700
     34 HAK        -2.9680   -0.7100   -2.3390 h1        1 PBD      0.084700
     35 HAKA       -2.3960    0.8800   -1.6270 h1        1 PBD      0.084700
     36 HAL        -4.6420    1.5150   -0.9620 h1        1 PBD      0.065200
     37 HALA       -5.2500   -0.0040   -1.7780 h1        1 PBD      0.065200
     38 HNAN       -1.4280   -1.8070   -0.7950 hn        1 PBD      0.294500
     39 NAO         0.7710   -0.8370   -0.0130 n         1 PBD     -0.413100
     40 OAQ         5.5860   -1.6380   -0.1190 os        1 PBD     -0.301900
     41 HAD        -7.8880    1.1350    2.7380 h4        1 PBD      0.043100
     42 HNAO        0.7100   -1.8360   -0.0270 hn        1 PBD      0.301500
@<TRIPOS>BOND
     1    1   15 1   
     2    1   21 1   
     3    1   22 1   
     4    1   23 1   
     5    2   24 1   
     6    2   25 1   
     7    2   26 1   
     8    2   40 1   
     9    3   16 2   
    10    4    7 2   
    11    4   13 1   
    12    4   41 1   
    13    5    6 ar  
    14    5   17 ar  
    15    5   27 1   
    16    6   18 ar  
    17    6   28 1   
    18    7   20 1   
    19    7   29 1   
    20    8   13 2   
    21    8   20 1   
    22    8   30 1   
    23    9   17 ar  
    24    9   19 ar  
    25    9   31 1   
    26   10   11 1   
    27   10   12 1   
    28   10   32 1   
    29   10   33 1   
    30   11   14 1   
    31   11   34 1   
    32   11   35 1   
    33   12   20 1   
    34   12   36 1   
    35   12   37 1   
    36   14   16 1   
    37   14   38 1   
    38   15   18 1   
    39   16   39 1   
    40   17   39 1   
    41   18   19 ar  
    42   19   40 1   
    43   39   42 1   
@<TRIPOS>SUBSTRUCTURE
     1 PBD         1 TEMP              0 ****  ****    0 ROOT
