@<TRIPOS>MOLECULE
PBD
   43    38     1     0     0
SMALL
bcc


@<TRIPOS>ATOM
      1 CAA         0.1360    0.8780    3.0910 c1        1 PBD     -0.051000
      2 CAB         4.6100    0.1010    0.7820 c1        1 PBD     -0.171000
      3 SAC         3.2630   -1.3460    7.4910 ss        1 PBD      1.264000
      4 CAD         1.8780   -0.8660   14.3470 c1        1 PBD      0.226000
      5 CAE         3.3630   -1.8300    8.9330 c1        1 PBD     -1.054000
      6 CAF         3.3340   -2.1910   10.1220 c1        1 PBD      0.027000
      7 CAG         2.0130   -2.0080   13.4450 c3        1 PBD     -0.168000
      8 CAH         3.5930    0.6700   15.3420 c1        1 PBD      0.164000
      9 CAI         3.3670    0.4500    1.3460 c2        1 PBD     -0.195000
     10 CAJ         7.7650   -3.3810    7.3080 c3        1 PBD     -0.272000
     11 CAK         4.6100   -1.7500    6.7820 c2        1 PBD     -0.415000
     12 CAL         3.5840   -3.2370   12.1780 c2        1 PBD      0.071000
     13 NAM         2.8910   -0.1060   14.8190 n2        1 PBD     -0.003000
     14 NAN         4.9120   -1.4900    5.4610 n7        1 PBD     -0.240000
     15 OAP         3.1190    0.9160   -1.5340 oh        1 PBD     -0.279000
     16 CAR         3.9570   -0.8400    4.7120 c1        1 PBD      0.004000
     17 CAS         3.1780    0.1090    2.6800 c2        1 PBD      0.142000
     18 CAT         2.1640    1.3560   -0.6530 c2        1 PBD     -0.012000
     19 CAU         2.2800    1.1320    0.6700 c2        1 PBD     -0.209000
     20 NAV         3.3570   -2.3360   13.0700 n2        1 PBD     -0.333000
     21 HAA         2.8650    1.2010   -2.4280 ho        1 PBD      0.242000
     22 HAAA       -0.3000    1.8880    3.1090 ha        1 PBD      0.030000
     23 HAAB       -0.5700    0.1310    2.7010 ha        1 PBD      0.030000
     24 HAB         4.7630   -0.2220   -2.7200 ho        1 PBD      0.201000
     25 HABA        5.2610    1.1730   -2.4240 ho        1 PBD      0.201000
     26 HABB        4.8250    0.3550   -0.2630 ha        1 PBD      0.075000
     27 HAE         2.2220    0.3390    3.2220 h4        1 PBD      0.218000
     28 HAF         1.3060    1.8960   -1.0870 h4        1 PBD      0.128000
     29 HAH         4.2010    1.4090   15.8480 ha        1 PBD      0.339000
     30 HAI         1.4670    1.5110    1.3170 ha        1 PBD      0.113000
     31 HAJ         7.0180   -4.1660    7.5560 hc        1 PBD      0.068500
     32 HAJA        8.7790   -3.8360    7.2710 hc        1 PBD      0.068500
     33 HAK         7.7470   -2.5870    8.0870 hc        1 PBD      0.068500
     34 HAKA        7.5270   -2.9370    6.3160 hc        1 PBD      0.068500
     35 HAL         4.6450   -3.4220   11.9190 h4        1 PBD      0.133000
     36 HALA        2.8370   -3.9060   11.7090 h4        1 PBD      0.133000
     37 HNAN        5.4350   -2.2880    7.3060 h5        1 PBD      0.185000
     38 OAQ         4.8610    0.6470   -3.1230 oh        1 PBD     -0.396000
     39 HAD         1.3480   -1.7320   12.5520 h1        1 PBD      0.188500
     40 HAN2        5.8080   -1.7990    5.1340 hn        1 PBD      0.210000
     41 NAO         4.1650   -0.5400    3.4090 n7        1 PBD     -0.236000
     42 HAG         1.4540   -2.8550   13.9710 h1        1 PBD      0.188500
     43 HNAO        5.0080   -0.7490    2.8830 hn        1 PBD      0.246000
@<TRIPOS>BOND
     1    1   22 1   
     2    1   23 1   
     3    2    9 1   
     4    2   26 1   
     5    3    5 1   
     6    3   11 1   
     7    4    7 1   
     8    4   13 1   
     9    5    6 1   
    10    7   20 1   
    11    7   39 1   
    12    7   42 1   
    13    8   13 1   
    14    8   29 1   
    15    9   17 1   
    16    9   19 1   
    17   10   31 1   
    18   10   32 1   
    19   10   33 1   
    20   10   34 1   
    21   11   14 1   
    22   11   37 1   
    23   12   20 1   
    24   12   35 1   
    25   12   36 1   
    26   14   16 1   
    27   14   40 1   
    28   15   18 1   
    29   15   21 1   
    30   16   41 1   
    31   17   27 1   
    32   17   41 1   
    33   18   19 1   
    34   18   28 1   
    35   19   30 1   
    36   24   38 1   
    37   25   38 1   
    38   41   43 1   
@<TRIPOS>SUBSTRUCTURE
     1 PBD         1 TEMP              0 ****  ****    0 ROOT
