@<TRIPOS>MOLECULE
PBD
   42    37     1     0     0
SMALL
bcc


@<TRIPOS>ATOM
      1 CAA        -2.1930   -2.3190   -6.2750 c3        1 PBD      0.113200
      2 CAB        -1.8010    2.1820   -5.3740 c3        1 PBD      0.113200
      3 SAC         0.3170   -2.0780   -0.1390 s         1 PBD     -0.553400
      4 CAD         1.2800    2.0210    7.6500 cg        1 PBD     -0.121000
      5 CAE         0.1180   -1.5080   -2.6200 c1        1 PBD     -0.057500
      6 CAF        -0.2170   -2.0230   -3.8590 c1        1 PBD     -0.057500
      7 CAG         0.4700    1.4940    6.6810 c1        1 PBD     -0.224300
      8 CAH         2.4140    0.5500    6.5320 c1        1 PBD      0.123400
      9 CAI        -0.4690    0.6870   -3.3690 c1        1 PBD     -0.171500
     10 CAJ         0.6970    0.4490    3.6590 c3        1 PBD     -0.132400
     11 CAK         0.6690   -0.5600    2.4900 c3        1 PBD      0.064000
     12 CAL         0.7670   -0.2960    4.9640 c3        1 PBD      0.044300
     13 NAM         2.4680    1.4390    7.5520 ne        1 PBD     -0.412400
     14 NAN         0.9990    0.1130    1.2660 n         1 PBD     -0.514900
     15 NAO         0.4540    0.3840   -1.1420 n         1 PBD     -0.433700
     16 OAP        -0.9420   -1.7020   -6.1540 os        1 PBD     -0.308400
     17 OAQ        -1.5620    0.8160   -5.6210 os        1 PBD     -0.308400
     18 CAR         0.5880   -0.4530   -0.0060 c         1 PBD      0.565400
     19 CAS        -0.0070   -0.1570   -2.3750 c1        1 PBD      0.074200
     20 CAT        -0.6790   -1.1840   -4.8550 c1        1 PBD      0.076100
     21 CAU        -0.8060    0.1740   -4.6120 c1        1 PBD      0.076100
     22 NAV         1.1720    0.5970    6.0030 n3        1 PBD     -0.093400
     23 HAA        -2.7380   -2.0910   -5.5150 h1        1 PBD      0.044700
     24 HAAA       -2.0760   -3.2840   -6.3140 h1        1 PBD      0.044700
     25 HAAB       -2.6340   -2.0080   -7.0990 h1        1 PBD      0.044700
     26 HAB        -2.2570    2.2820   -4.5210 h1        1 PBD      0.044700
     27 HABA       -0.9670    2.6520   -5.3460 h1        1 PBD      0.044700
     28 HABB       -2.3570    2.5490   -6.0850 h1        1 PBD      0.044700
     29 HAD         1.0240    2.7160    8.3080 DU        1 PBD      0.184333
     30 HAE         0.4430   -2.0990   -1.9210 ha        1 PBD      0.111000
     31 HAF        -0.1290   -2.9740   -4.0280 ha        1 PBD      0.111000
     32 HAG        -0.4460    1.7330    6.5200 DU        1 PBD      0.184333
     33 HAH         3.1270   -0.0110    6.2380 DU        1 PBD      0.184333
     34 HAI        -0.5570    1.6410   -3.1940 ha        1 PBD      0.077500
     35 HAJ        -0.1130    0.9950    3.6380 hc        1 PBD      0.059200
     36 HAJA        1.4800    1.0250    3.5720 hc        1 PBD      0.059200
     37 HAK         1.3310   -1.2830    2.6600 h1        1 PBD      0.084700
     38 HAKA       -0.2470   -0.9570    2.4160 h1        1 PBD      0.084700
     39 HAL         1.4080   -1.0150    4.8880 h1        1 PBD      0.065200
     40 HALA       -0.1030   -0.6620    5.1750 h1        1 PBD      0.065200
     41 HNAN        1.4380    0.9050    1.2890 hn        1 PBD      0.295500
     42 HNAO        0.6370    1.2560   -1.0770 hn        1 PBD      0.303500
@<TRIPOS>BOND
     1    1   16 1   
     2    1   23 1   
     3    1   24 1   
     4    1   25 1   
     5    2   17 1   
     6    2   26 1   
     7    2   27 1   
     8    2   28 1   
     9    3   18 2   
    10    4    7 3   
    11    4   13 1   
    12    5    6 3   
    13    5   30 1   
    14    6   31 1   
    15    7   22 1   
    16    8   13 2   
    17    8   22 2   
    18    9   19 3   
    19    9   34 1   
    20   10   11 1   
    21   10   12 1   
    22   10   35 1   
    23   10   36 1   
    24   11   14 1   
    25   11   37 1   
    26   11   38 1   
    27   12   22 1   
    28   12   39 1   
    29   12   40 1   
    30   14   18 1   
    31   14   41 1   
    32   15   18 1   
    33   15   19 1   
    34   15   42 1   
    35   16   20 1   
    36   17   21 1   
    37   20   21 3   
@<TRIPOS>SUBSTRUCTURE
     1 PBD         1 TEMP              0 ****  ****    0 ROOT
