@<TRIPOS>MOLECULE
PBE
   23    23     1     0     0
SMALL
bcc


@<TRIPOS>ATOM
      1 N          -0.0360   -0.0960    0.0340 n4        1 PBE     -0.579800
      2 CD          1.4090   -0.5190    0.1370 c3        1 PBE      0.107800
      3 CA         -0.3500    0.5350    1.3870 c3        1 PBE     -0.027500
      4 CB          0.9620    1.1070    1.9150 c3        1 PBE     -0.089400
      5 CG          2.0830    0.3850    1.1760 c3        1 PBE     -0.098400
      6 CE         -0.1850    0.9120   -1.0530 c3        1 PBE      0.092100
      7 CF         -0.9460   -1.2370   -0.2240 c3        1 PBE      0.092100
      8 C          -1.5380    1.5830    1.2950 c         1 PBE      0.931600
      9 O          -1.3390    2.6880    1.8330 o         1 PBE     -0.771800
     10 OXT        -2.5570    1.1650    0.6870 o         1 PBE     -0.771800
     11 HD1         1.9010   -0.4390   -0.8680 hx        1 PBE      0.077700
     12 HD2         1.4430   -1.5920    0.4680 hx        1 PBE      0.077700
     13 HA         -0.7120   -0.2910    2.0590 hx        1 PBE      0.077700
     14 HB1         1.0240    0.9460    3.0190 hc        1 PBE      0.088700
     15 HB2         0.9890    2.2150    1.7370 hc        1 PBE      0.088700
     16 HG1         2.7640    1.1150    0.6720 hc        1 PBE      0.064700
     17 HG2         2.6990   -0.2350    1.8730 hc        1 PBE      0.064700
     18 HE1        -1.2700    1.2120   -1.1280 hx        1 PBE      0.095700
     19 HE2         0.1610    0.4690   -2.0220 hx        1 PBE      0.095700
     20 HE3         0.4270    1.8140   -0.7920 hx        1 PBE      0.095700
     21 HF1        -2.0060   -0.8490   -0.1440 hx        1 PBE      0.095700
     22 HF2        -0.7520   -1.6480   -1.2470 hx        1 PBE      0.095700
     23 HF3        -0.7810   -2.0350    0.5440 hx        1 PBE      0.095700
@<TRIPOS>BOND
     1    1    2 1   
     2    1    3 1   
     3    1    6 1   
     4    1    7 1   
     5    2    5 1   
     6    2   11 1   
     7    2   12 1   
     8    3    4 1   
     9    3    8 1   
    10    3   13 1   
    11    4    5 1   
    12    4   14 1   
    13    4   15 1   
    14    5   16 1   
    15    5   17 1   
    16    6   18 1   
    17    6   19 1   
    18    6   20 1   
    19    7   21 1   
    20    7   22 1   
    21    7   23 1   
    22    8    9 1   
    23    8   10 1   
@<TRIPOS>SUBSTRUCTURE
     1 PBE         1 TEMP              0 ****  ****    0 ROOT
