@<TRIPOS>MOLECULE
PBE
   23    23     1     0     0
SMALL
bcc


@<TRIPOS>ATOM
      1 N          -0.8100    0.6990    0.1120 n4        1 PBE     -0.579800
      2 CD         -2.1270    0.0510   -0.2370 c3        1 PBE      0.107800
      3 CA          0.0480   -0.4390    0.6550 c3        1 PBE     -0.027500
      4 CB         -0.4400   -1.7150   -0.0260 c3        1 PBE     -0.089400
      5 CG         -1.8510   -1.4300   -0.5280 c3        1 PBE     -0.098400
      6 CE         -0.1930    1.2710   -1.1170 c3        1 PBE      0.092100
      7 CF         -0.9540    1.7640    1.1320 c3        1 PBE      0.092100
      8 C           1.5990   -0.1510    0.4840 c         1 PBE      0.931600
      9 O           2.2780   -1.0720   -0.0070 o         1 PBE     -0.771800
     10 OXT         1.9660    0.9860    0.8770 o         1 PBE     -0.771800
     11 HD1        -2.8210    0.1560    0.6410 hx        1 PBE      0.077700
     12 HD2        -2.5850    0.5710   -1.1190 hx        1 PBE      0.077700
     13 HA         -0.1410   -0.4940    1.7630 hx        1 PBE      0.077700
     14 HB1        -0.4240   -2.5600    0.7050 hc        1 PBE      0.088700
     15 HB2         0.2560   -1.9840   -0.8640 hc        1 PBE      0.088700
     16 HG1        -2.6070   -2.0640   -0.0030 hc        1 PBE      0.064700
     17 HG2        -1.9330   -1.6330   -1.6240 hc        1 PBE      0.064700
     18 HE1         0.7850    1.7620   -0.8420 hx        1 PBE      0.095700
     19 HE2         0.0070    0.4360   -1.8390 hx        1 PBE      0.095700
     20 HE3        -0.8890    2.0220   -1.5680 hx        1 PBE      0.095700
     21 HF1        -1.5270    2.6240    0.7000 hx        1 PBE      0.095700
     22 HF2        -1.4910    1.3620    2.0290 hx        1 PBE      0.095700
     23 HF3         0.0880    2.0900    1.4310 hx        1 PBE      0.095700
@<TRIPOS>BOND
     1    1    2 1   
     2    1    3 1   
     3    1    6 1   
     4    1    7 1   
     5    2    5 1   
     6    2   11 1   
     7    2   12 1   
     8    3    4 1   
     9    3    8 1   
    10    3   13 1   
    11    4    5 1   
    12    4   14 1   
    13    4   15 1   
    14    5   16 1   
    15    5   17 1   
    16    6   18 1   
    17    6   19 1   
    18    6   20 1   
    19    7   21 1   
    20    7   22 1   
    21    7   23 1   
    22    8    9 1   
    23    8   10 1   
@<TRIPOS>SUBSTRUCTURE
     1 PBE         1 TEMP              0 ****  ****    0 ROOT
