@<TRIPOS>MOLECULE
PBE
   23    23     1     0     0
SMALL
bcc


@<TRIPOS>ATOM
      1 N          -0.0150   -0.0810    0.0160 n4        1 PBE     -0.579800
      2 CD          1.4290   -0.4900    0.1670 c3        1 PBE      0.107800
      3 CA         -0.3930    0.5080    1.3710 c3        1 PBE     -0.027500
      4 CB          0.8880    1.0820    1.9680 c3        1 PBE     -0.089400
      5 CG          2.0480    0.3940    1.2570 c3        1 PBE     -0.098400
      6 CE         -0.1330    0.9540   -1.0490 c3        1 PBE      0.092100
      7 CF         -0.8990   -1.2260   -0.3100 c3        1 PBE      0.092100
      8 C          -1.5910    1.5440    1.2580 c         1 PBE      0.931600
      9 O          -1.4290    2.6350    1.8350 o         1 PBE     -0.771800
     10 OXT        -2.5780    1.1310    0.5970 o         1 PBE     -0.771800
     11 HD1         1.4650   -1.5710    0.4710 hx        1 PBE      0.077700
     12 HD2         1.9610   -0.3760   -0.8140 hx        1 PBE      0.077700
     13 HA         -0.7710   -0.3410    2.0050 hx        1 PBE      0.077700
     14 HB1         0.9070    2.1940    1.8210 hc        1 PBE      0.088700
     15 HB2         0.9070    0.8920    3.0690 hc        1 PBE      0.088700
     16 HG1         2.7390    1.1460    0.8020 hc        1 PBE      0.064700
     17 HG2         2.6430   -0.2370    1.9620 hc        1 PBE      0.064700
     18 HE1        -1.2180    1.2430   -1.1610 hx        1 PBE      0.095700
     19 HE2         0.2580    0.5410   -2.0140 hx        1 PBE      0.095700
     20 HE3         0.4560    1.8560   -0.7390 hx        1 PBE      0.095700
     21 HF1        -0.7550   -2.0430    0.4420 hx        1 PBE      0.095700
     22 HF2        -0.6580   -1.6070   -1.3350 hx        1 PBE      0.095700
     23 HF3        -1.9660   -0.8530   -0.2640 hx        1 PBE      0.095700
@<TRIPOS>BOND
     1    1    2 1   
     2    1    3 1   
     3    1    6 1   
     4    1    7 1   
     5    2    5 1   
     6    2   11 1   
     7    2   12 1   
     8    3    4 1   
     9    3    8 1   
    10    3   13 1   
    11    4    5 1   
    12    4   14 1   
    13    4   15 1   
    14    5   16 1   
    15    5   17 1   
    16    6   18 1   
    17    6   19 1   
    18    6   20 1   
    19    7   21 1   
    20    7   22 1   
    21    7   23 1   
    22    8    9 1   
    23    8   10 1   
@<TRIPOS>SUBSTRUCTURE
     1 PBE         1 TEMP              0 ****  ****    0 ROOT
