@<TRIPOS>MOLECULE
PBE
   23    23     1     0     0
SMALL
bcc


@<TRIPOS>ATOM
      1 N          -0.0330   -0.0970    0.0350 n4        1 PBE     -0.579800
      2 CD          1.4140   -0.5120    0.1390 c3        1 PBE      0.107800
      3 CA         -0.3520    0.5340    1.3860 c3        1 PBE     -0.027500
      4 CB          0.9570    1.1140    1.9140 c3        1 PBE     -0.089400
      5 CG          2.0820    0.3970    1.1770 c3        1 PBE     -0.098400
      6 CE         -0.1880    0.9070   -1.0540 c3        1 PBE      0.092100
      7 CF         -0.9360   -1.2440   -0.2220 c3        1 PBE      0.092100
      8 C          -1.5460    1.5750    1.2920 c         1 PBE      0.931600
      9 O          -1.3540    2.6820    1.8280 o         1 PBE     -0.771800
     10 OXT        -2.5620    1.1500    0.6850 o         1 PBE     -0.771800
     11 HD1         1.9060   -0.4310   -0.8660 hx        1 PBE      0.077700
     12 HD2         1.4540   -1.5850    0.4720 hx        1 PBE      0.077700
     13 HA         -0.7090   -0.2940    2.0600 hx        1 PBE      0.077700
     14 HB1         1.0190    0.9560    3.0190 hc        1 PBE      0.088700
     15 HB2         0.9770    2.2210    1.7340 hc        1 PBE      0.088700
     16 HG1         2.7590    1.1300    0.6720 hc        1 PBE      0.064700
     17 HG2         2.7010   -0.2180    1.8750 hc        1 PBE      0.064700
     18 HE1         0.4190    1.8140   -0.7940 hx        1 PBE      0.095700
     19 HE2         0.1610    0.4650   -2.0220 hx        1 PBE      0.095700
     20 HE3        -1.2750    1.2020   -1.1300 hx        1 PBE      0.095700
     21 HF1        -1.9990   -0.8620   -0.1430 hx        1 PBE      0.095700
     22 HF2        -0.7680   -2.0410    0.5470 hx        1 PBE      0.095700
     23 HF3        -0.7400   -1.6560   -1.2450 hx        1 PBE      0.095700
@<TRIPOS>BOND
     1    1    2 1   
     2    1    3 1   
     3    1    6 1   
     4    1    7 1   
     5    2    5 1   
     6    2   11 1   
     7    2   12 1   
     8    3    4 1   
     9    3    8 1   
    10    3   13 1   
    11    4    5 1   
    12    4   14 1   
    13    4   15 1   
    14    5   16 1   
    15    5   17 1   
    16    6   18 1   
    17    6   19 1   
    18    6   20 1   
    19    7   21 1   
    20    7   22 1   
    21    7   23 1   
    22    8    9 1   
    23    8   10 1   
@<TRIPOS>SUBSTRUCTURE
     1 PBE         1 TEMP              0 ****  ****    0 ROOT
