@<TRIPOS>MOLECULE
PBE
   23    23     1     0     0
SMALL
bcc


@<TRIPOS>ATOM
      1 N          -0.1430    0.0680   -0.5480 n4        1 PBE     -0.579800
      2 CD          1.4780    0.0680   -0.5480 c3        1 PBE      0.107800
      3 CA         -0.5320   -0.7230    0.4340 c3        1 PBE     -0.027500
      4 CB          0.7430   -0.6120    1.4830 c3        1 PBE     -0.089400
      5 CG          1.8630    0.0680    0.7160 c3        1 PBE     -0.098400
      6 CE         -0.6350   -0.4360   -1.8090 c3        1 PBE      0.092100
      7 CF         -0.6380    1.4110   -0.3270 c3        1 PBE      0.092100
      8 C          -1.8880   -0.3470    1.0490 c         1 PBE      0.931600
      9 O          -1.9320    0.3470    2.1020 o         1 PBE     -0.771800
     10 OXT        -2.9550   -0.8000    0.5470 o         1 PBE     -0.771800
     11 HD1         1.8120   -0.7320   -0.9980 hx        1 PBE      0.077700
     12 HD2         1.8120    0.8670   -0.9980 hx        1 PBE      0.077700
     13 HA         -0.6920   -1.6390    0.1360 hx        1 PBE      0.077700
     14 HB1         0.4930   -0.0740    2.2590 hc        1 PBE      0.088700
     15 HB2         1.0230   -1.5030    1.7670 hc        1 PBE      0.088700
     16 HG1         2.6940   -0.4350    0.8160 hc        1 PBE      0.064700
     17 HG2         1.9820    0.9830    1.0320 hc        1 PBE      0.064700
     18 HE1        -0.3040    0.1260   -2.5360 hx        1 PBE      0.095700
     19 HE2        -0.3230   -1.3520   -1.9380 hx        1 PBE      0.095700
     20 HE3        -1.6110   -0.4230   -1.8070 hx        1 PBE      0.095700
     21 HF1        -1.6040    1.4280   -0.4610 hx        1 PBE      0.095700
     22 HF2        -0.4310    1.6870    0.5860 hx        1 PBE      0.095700
     23 HF3        -0.2110    2.0230   -0.9560 hx        1 PBE      0.095700
@<TRIPOS>BOND
     1    1    2 1   
     2    1    3 1   
     3    1    6 1   
     4    1    7 1   
     5    2    5 1   
     6    2   11 1   
     7    2   12 1   
     8    3    4 1   
     9    3    8 1   
    10    3   13 1   
    11    4    5 1   
    12    4   14 1   
    13    4   15 1   
    14    5   16 1   
    15    5   17 1   
    16    6   18 1   
    17    6   19 1   
    18    6   20 1   
    19    7   21 1   
    20    7   22 1   
    21    7   23 1   
    22    8    9 1   
    23    8   10 1   
@<TRIPOS>SUBSTRUCTURE
     1 PBE         1 TEMP              0 ****  ****    0 ROOT
