@<TRIPOS>MOLECULE
PBG
   29    29     1     0     0
SMALL
bcc


@<TRIPOS>ATOM
      1 CHA        -0.0560    0.0460   -0.5310 c3        1 PBG      0.220100
      2 C1A         1.4070    0.0650   -0.2510 cc        1 PBG     -0.127600
      3 C2A         2.0610    0.0780    0.9990 cd        1 PBG     -0.185300
      4 C3A         3.4780    0.1410    0.7400 cd        1 PBG     -0.107300
      5 C4A         3.6320    0.1590   -0.6560 cc        1 PBG     -0.163300
      6 NA          2.3760    0.1150   -1.2490 na        1 PBG     -0.161100
      7 C5A         1.4260    0.0170    2.3200 c3        1 PBG     -0.091100
      8 C6A         1.0630    1.3790    2.8490 c         1 PBG      0.635100
      9 O1A        -0.0490    1.7210    3.2640 o         1 PBG     -0.543000
     10 O2A         2.0070    2.3530    2.9290 oh        1 PBG     -0.580100
     11 C7A         4.5750    0.1620    1.7210 c3        1 PBG     -0.023100
     12 C8A         5.4230    1.4120    1.6430 c3        1 PBG     -0.196400
     13 C9A         6.7770    1.2080    2.3530 c         1 PBG      0.907600
     14 O3A         7.2420    2.1780    3.0140 o         1 PBG     -0.844800
     15 O4A         7.3590    0.0920    2.2230 o         1 PBG     -0.844800
     16 N1         -0.4270   -0.8340   -1.6200 n3        1 PBG     -0.923800
     17 HHA2       -0.3870    1.0890   -0.8170 h1        1 PBG      0.044200
     18 HHA1       -0.5810   -0.2120    0.4380 h1        1 PBG      0.044200
     19 H4A1        4.5480    0.2050   -1.2460 h4        1 PBG      0.176000
     20 HA          2.1850    0.1110   -2.2160 hn        1 PBG      0.295700
     21 H5A2        2.1270   -0.4610    3.0610 hc        1 PBG      0.076700
     22 H5A1        0.4900   -0.6040    2.2850 hc        1 PBG      0.076700
     23 H7A2        4.1650    0.0570    2.7610 hc        1 PBG      0.058700
     24 H7A1        5.2530   -0.7240    1.5470 hc        1 PBG      0.058700
     25 H8A2        4.8930    2.2840    2.1020 hc        1 PBG      0.022700
     26 H8A1        5.6380    1.6650    0.5740 hc        1 PBG      0.022700
     27 H12         2.8480    2.0310    2.5550 ho        1 PBG      0.459000
     28 H11        -1.4230   -0.9150   -1.6660 hn        1 PBG      0.348300
     29 H13        -0.0310   -1.7440   -1.4940 hn        1 PBG      0.348300
@<TRIPOS>BOND
     1    1    2 1   
     2    1   16 1   
     3    1   17 1   
     4    1   18 1   
     5    2    3 2   
     6    2    6 1   
     7    3    4 1   
     8    3    7 1   
     9    4    5 2   
    10    4   11 1   
    11    5    6 1   
    12    5   19 1   
    13    6   20 1   
    14    7    8 1   
    15    7   21 1   
    16    7   22 1   
    17    8    9 2   
    18    8   10 1   
    19   10   27 1   
    20   11   12 1   
    21   11   23 1   
    22   11   24 1   
    23   12   13 1   
    24   12   25 1   
    25   12   26 1   
    26   13   14 1   
    27   13   15 1   
    28   16   28 1   
    29   16   29 1   
@<TRIPOS>SUBSTRUCTURE
     1 PBG         1 TEMP              0 ****  ****    0 ROOT
