@<TRIPOS>MOLECULE
PBG
   28    24     1     0     0
SMALL
bcc


@<TRIPOS>ATOM
      1 CHA        -2.8910    0.5370   -0.9660 c3        1 PBG     -0.027000
      2 C1A        -1.3790    0.5090   -0.9800 c2        1 PBG     -0.137000
      3 C2A        -0.5600    0.4630    0.1270 c1        1 PBG     -0.068000
      4 C3A         0.7280    0.4650   -0.3040 c1        1 PBG     -0.119000
      5 C4A         0.7140    0.5120   -1.6810 c1        1 PBG     -0.175000
      6 NA         -0.5860    0.5380   -2.0890 n2        1 PBG     -0.206000
      7 C5A        -1.0140    0.4760    1.5700 c2        1 PBG     -0.160000
      8 C6A        -1.1040   -0.9450    2.0830 c2        1 PBG      0.323000
      9 O1A        -1.0050   -1.9110    1.2820 o         1 PBG     -0.601000
     10 O2A        -1.2930   -1.1600    3.3090 o         1 PBG     -0.601000
     11 C7A         1.9600    0.4740    0.5740 c2        1 PBG     -0.084000
     12 C8A         2.8960   -0.6330    0.1400 c3        1 PBG     -0.211000
     13 C9A         4.0160   -0.7690    1.1480 c2        1 PBG      0.324000
     14 O3A         3.7640   -1.1470    2.3220 o         1 PBG     -0.601000
     15 O4A         5.1990   -0.4950    0.8150 o         1 PBG     -0.601000
     16 N1         -3.3930   -0.4640   -1.8470 n3        1 PBG     -0.361000
     17 HHA2       -3.2130    0.3640   -0.0570 h1        1 PBG      0.091000
     18 HHA1       -3.2040    1.4180   -1.2600 h1        1 PBG      0.091000
     19 H4A1        1.4990    0.5240   -2.2620 DU        1 PBG      0.177500
     20 HA         -0.8760    0.5710   -2.9540 DU        1 PBG      0.177500
     21 H5A2       -0.3710    0.9770    2.1100 ha        1 PBG      0.080500
     22 H5A1       -1.8930    0.9010    1.6320 ha        1 PBG      0.080500
     23 H7A2        2.4140    1.3360    0.4900 ha        1 PBG      0.091000
     24 H7A1        1.6970    0.3330    1.5050 ha        1 PBG      0.091000
     25 H8A2        3.2710   -0.4180   -0.7370 hc        1 PBG      0.055000
     26 H8A1        2.4020   -1.4750    0.0860 hc        1 PBG      0.055000
     27 H12        -3.6990   -0.0700   -2.6150 hn        1 PBG      0.157000
     28 H11        -4.0800   -0.9130   -1.4400 hn        1 PBG      0.157000
@<TRIPOS>BOND
     1    1    2 1   
     2    1   16 1   
     3    1   17 1   
     4    1   18 1   
     5    2    3 1   
     6    2    6 1   
     7    3    4 1   
     8    4    5 1   
     9    5    6 1   
    10    7    8 1   
    11    7   21 1   
    12    7   22 1   
    13    8    9 1   
    14    8   10 1   
    15   11   12 1   
    16   11   23 1   
    17   11   24 1   
    18   12   13 1   
    19   12   25 1   
    20   12   26 1   
    21   13   14 1   
    22   13   15 1   
    23   16   27 1   
    24   16   28 1   
@<TRIPOS>SUBSTRUCTURE
     1 PBG         1 TEMP              0 ****  ****    0 ROOT
