@<TRIPOS>MOLECULE
PBG
   28    28     1     0     0
SMALL
bcc


@<TRIPOS>ATOM
      1 CHA        -0.2500   -0.0320    3.6340 c3        1 PBG      0.217100
      2 C1A        -0.6750   -0.1000    2.2020 cc        1 PBG     -0.167600
      3 C2A         0.0880   -0.3330    1.0460 cd        1 PBG     -0.076300
      4 C3A        -0.8330   -0.3240   -0.0790 cd        1 PBG     -0.123300
      5 C4A        -2.1100   -0.0820    0.4400 cc        1 PBG     -0.198300
      6 NA         -2.0100    0.1080    1.8170 na        1 PBG     -0.207100
      7 C5A         1.5370   -0.5520    0.9220 c3        1 PBG     -0.124100
      8 C6A         2.3520   -0.4060    2.2130 c         1 PBG      0.904600
      9 O1A         2.7990    0.7390    2.5330 o         1 PBG     -0.866300
     10 O2A         2.5910   -1.4390    2.9090 o         1 PBG     -0.866300
     11 C7A        -0.5110   -0.5700   -1.4970 c3        1 PBG     -0.004100
     12 C8A        -1.2470    0.3380   -2.4600 c3        1 PBG     -0.178400
     13 C9A        -1.3110   -0.2230   -3.8880 c         1 PBG      0.902600
     14 O3A        -1.5350   -1.4570   -4.0660 o         1 PBG     -0.867800
     15 O4A        -1.1810    0.5940   -4.8500 o         1 PBG     -0.867800
     16 N1          0.2910    1.2330    4.0770 n3        1 PBG     -0.929800
     17 HHA2        0.5250   -0.8420    3.7950 h1        1 PBG      0.052200
     18 HHA1       -1.1370   -0.2630    4.2970 h1        1 PBG      0.052200
     19 H4A1       -3.0650   -0.0010   -0.0760 h4        1 PBG      0.146000
     20 HA         -2.7680    0.0950    2.4420 hn        1 PBG      0.257700
     21 H5A2        1.7060   -1.5860    0.5170 hc        1 PBG      0.040700
     22 H5A1        1.9450    0.1790    0.1720 hc        1 PBG      0.040700
     23 H7A2        0.5960   -0.4550   -1.6500 hc        1 PBG      0.051200
     24 H7A1       -0.7690   -1.6370   -1.7520 hc        1 PBG      0.051200
     25 H8A2       -2.3060    0.4800   -2.1210 hc        1 PBG      0.018700
     26 H8A1       -0.7620    1.3460   -2.4840 hc        1 PBG      0.018700
     27 H12         1.2890    1.2440    3.9240 hn        1 PBG      0.361800
     28 H11        -0.1050    1.9840    3.5440 hn        1 PBG      0.361800
@<TRIPOS>BOND
     1    1    2 1   
     2    1   16 1   
     3    1   17 1   
     4    1   18 1   
     5    2    3 2   
     6    2    6 1   
     7    3    4 1   
     8    3    7 1   
     9    4    5 2   
    10    4   11 1   
    11    5    6 1   
    12    5   19 1   
    13    6   20 1   
    14    7    8 1   
    15    7   21 1   
    16    7   22 1   
    17    8    9 1   
    18    8   10 1   
    19   11   12 1   
    20   11   23 1   
    21   11   24 1   
    22   12   13 1   
    23   12   25 1   
    24   12   26 1   
    25   13   14 1   
    26   13   15 1   
    27   16   27 1   
    28   16   28 1   
@<TRIPOS>SUBSTRUCTURE
     1 PBG         1 TEMP              0 ****  ****    0 ROOT
