@<TRIPOS>MOLECULE
PBG
   29    29     1     0     0
SMALL
bcc


@<TRIPOS>ATOM
      1 CHA        -0.0940   -0.0770   -0.4180 c3        1 PBG      0.220100
      2 C1A         1.3780   -0.0100   -0.1920 cc        1 PBG     -0.127600
      3 C2A         2.0740    0.0630    1.0340 cd        1 PBG     -0.185300
      4 C3A         3.4790    0.1550    0.7230 cd        1 PBG     -0.107300
      5 C4A         3.5840    0.1310   -0.6790 cc        1 PBG     -0.163300
      6 NA          2.3090    0.0330   -1.2240 na        1 PBG     -0.161100
      7 C5A         1.4870    0.0300    2.3780 c3        1 PBG     -0.091100
      8 C6A         1.1040    1.3980    2.8750 c         1 PBG      0.635100
      9 O1A        -0.0020    1.7230    3.3170 o         1 PBG     -0.543000
     10 O2A         2.0230    2.3990    2.8890 oh        1 PBG     -0.580100
     11 C7A         4.6080    0.2380    1.6620 c3        1 PBG     -0.023100
     12 C8A         5.4180    1.5080    1.5140 c3        1 PBG     -0.196400
     13 C9A         6.8000    1.3640    2.1820 c         1 PBG      0.907600
     14 O3A         7.2590    2.3670    2.7960 o         1 PBG     -0.844800
     15 O4A         7.4090    0.2610    2.0640 o         1 PBG     -0.844800
     16 N1         -0.4770   -1.0020   -1.4640 n3        1 PBG     -0.923800
     17 HHA2       -0.4630    0.9470   -0.7260 h1        1 PBG      0.044200
     18 HHA1       -0.5770   -0.3170    0.5770 h1        1 PBG      0.044200
     19 H4A1        4.4770    0.1810   -1.3020 h4        1 PBG      0.176000
     20 HA          2.0850   -0.0090   -2.1830 hn        1 PBG      0.295700
     21 H5A2        2.2260   -0.4040    3.1080 hc        1 PBG      0.076700
     22 H5A1        0.5690   -0.6180    2.3960 hc        1 PBG      0.076700
     23 H7A2        5.3050   -0.6340    1.4920 hc        1 PBG      0.058700
     24 H7A1        4.2370    0.1560    2.7190 hc        1 PBG      0.058700
     25 H8A2        5.5870    1.7310    0.4300 hc        1 PBG      0.022700
     26 H8A1        4.8780    2.3790    1.9630 hc        1 PBG      0.022700
     27 H12        -0.0520   -1.8970   -1.3230 hn        1 PBG      0.348300
     28 H11        -1.4720   -1.1120   -1.4720 hn        1 PBG      0.348300
     29 H13         2.8590    2.0870    2.4970 ho        1 PBG      0.459000
@<TRIPOS>BOND
     1    1    2 1   
     2    1   16 1   
     3    1   17 1   
     4    1   18 1   
     5    2    3 2   
     6    2    6 1   
     7    3    4 1   
     8    3    7 1   
     9    4    5 2   
    10    4   11 1   
    11    5    6 1   
    12    5   19 1   
    13    6   20 1   
    14    7    8 1   
    15    7   21 1   
    16    7   22 1   
    17    8    9 2   
    18    8   10 1   
    19   10   29 1   
    20   11   12 1   
    21   11   23 1   
    22   11   24 1   
    23   12   13 1   
    24   12   25 1   
    25   12   26 1   
    26   13   14 1   
    27   13   15 1   
    28   16   27 1   
    29   16   28 1   
@<TRIPOS>SUBSTRUCTURE
     1 PBG         1 TEMP              0 ****  ****    0 ROOT
