@<TRIPOS>MOLECULE
PBG
   29    29     1     0     0
SMALL
bcc


@<TRIPOS>ATOM
      1 CHA         0.0810   -0.4630   -0.2330 c2        1 PBG     -0.576000
      2 C1A         1.4230   -0.0590   -0.0680 cc        1 PBG      0.086900
      3 C2A         2.1470    0.0010    1.1370 cc        1 PBG     -0.300200
      4 C3A         3.4800    0.4940    0.8160 cd        1 PBG     -0.133800
      5 C4A         3.5150    0.7180   -0.5500 cd        1 PBG      0.050500
      6 NA          2.2330    0.4630   -1.1220 na        1 PBG     -0.301300
      7 C5A         1.6710   -0.3920    2.4630 c3        1 PBG     -0.067200
      8 C6A         0.7860    0.6510    3.0900 c         1 PBG      0.637100
      9 O1A        -0.2980    0.4630    3.6550 o         1 PBG     -0.559000
     10 O2A         1.1760    1.9580    3.0840 oh        1 PBG     -0.596100
     11 C7A         4.5610    0.7080    1.7920 c3        1 PBG     -0.018200
     12 C8A         5.8550    1.1880    1.1780 c3        1 PBG     -0.193400
     13 C9A         6.9930    1.2420    2.2130 c         1 PBG      0.907600
     14 O3A         7.9500    2.0360    1.9810 o         1 PBG     -0.852800
     15 O4A         6.9340    0.4880    3.2270 o         1 PBG     -0.852800
     16 N1         -0.6340   -0.2080   -1.4260 nz        1 PBG     -0.575400
     17 HHA2        2.0060    2.0380    2.5830 ho        1 PBG      0.449000
     18 HHA1       -0.4870   -0.8750    0.6030 hx        1 PBG      0.173000
     19 H4A1        4.3250    1.1010   -1.1680 h4        1 PBG      0.033800
     20 HA          2.2290   -0.0430   -1.9770 hn        1 PBG      0.224700
     21 H5A2        2.5490   -0.5480    3.1520 hc        1 PBG      0.074700
     22 H5A1        1.0900   -1.3520    2.4110 hc        1 PBG      0.074700
     23 H7A2        4.2210    1.4540    2.5630 hc        1 PBG      0.055200
     24 H7A1        4.7660   -0.2500    2.3480 hc        1 PBG      0.055200
     25 H8A2        5.7220    2.2020    0.7270 hc        1 PBG      0.022700
     26 H8A1        6.1730    0.4910    0.3610 hc        1 PBG      0.022700
     27 H12        -0.4510    0.7410   -1.7730 hn        1 PBG      0.385133
     28 H11        -1.6320   -0.3170   -1.2550 hn        1 PBG      0.385133
     29 H13        -0.3650   -0.8540   -2.1790 hn        1 PBG      0.385133
@<TRIPOS>BOND
     1    1    2 2   
     2    1   16 1   
     3    1   18 1   
     4    2    3 1   
     5    2    6 1   
     6    3    4 2   
     7    3    7 1   
     8    4    5 1   
     9    4   11 1   
    10    5    6 2   
    11    5   19 1   
    12    6   20 1   
    13    7    8 1   
    14    7   21 1   
    15    7   22 1   
    16    8    9 2   
    17    8   10 1   
    18   10   17 1   
    19   11   12 1   
    20   11   23 1   
    21   11   24 1   
    22   12   13 1   
    23   12   25 1   
    24   12   26 1   
    25   13   14 1   
    26   13   15 1   
    27   16   27 1   
    28   16   28 1   
    29   16   29 1   
@<TRIPOS>SUBSTRUCTURE
     1 PBG         1 TEMP              0 ****  ****    0 ROOT
