@<TRIPOS>MOLECULE
PBH
   84    90     1     0     0
SMALL
bcc


@<TRIPOS>ATOM
      1 C1         -0.3140   -0.1740    1.1390 c3        1 PBH     -0.085400
      2 O2          6.7410   -2.3940   -1.2990 os        1 PBH     -0.305900
      3 C3          0.9840   -1.1700    2.9720 c3        1 PBH      0.101000
      4 N4          1.8720   -0.8560    1.8710 n         1 PBH     -0.472800
      5 O4          8.7950    2.2310   -5.9600 os        1 PBH     -0.322900
      6 N5         10.1780   11.2700  -12.8770 nh        1 PBH     -0.639000
      7 O5          3.7190   -1.7320    2.8670 o         1 PBH     -0.646500
      8 N6          9.6740   13.2860  -14.9100 n3        1 PBH     -0.732600
      9 C7          5.8060   -1.5060   -0.8040 ca        1 PBH      0.071100
     10 C9          4.7820    0.6860   -1.0900 ca        1 PBH     -0.251000
     11 N10         3.0950    1.4820    0.4890 nu        1 PBH     -0.718600
     12 C11         1.6670    1.2870    0.5780 c3        1 PBH      0.169800
     13 C12         6.9950   -3.5350   -0.4860 c3        1 PBH      0.108700
     14 C13         6.5870    1.1620   -3.1890 c3        1 PBH      0.127400
     15 O13         6.5710   -0.1260   -2.5610 os        1 PBH     -0.299900
     16 C14         7.6780    1.0810   -4.2430 c3        1 PBH     -0.092400
     17 C15         7.7630    2.4050   -4.9810 c3        1 PBH      0.130400
     18 C17         9.0760    3.3300   -6.7440 ca        1 PBH      0.141100
     19 C18        10.1270    3.1430   -7.6620 ca        1 PBH     -0.186000
     20 C19         8.3990    4.5540   -6.6750 ca        1 PBH     -0.186000
     21 C1A         1.1940   -0.1680    0.7920 c3        1 PBH      0.107700
     22 C20        10.4880    4.1830   -8.5080 ca        1 PBH     -0.068000
     23 C21         8.7730    5.5900   -7.5290 ca        1 PBH     -0.068000
     24 C22         9.8090    5.4120   -8.4510 ca        1 PBH     -0.147900
     25 C23        10.2090    6.4950   -9.3520 cc        1 PBH      0.466400
     26 C24         9.9750    8.3030  -10.6830 ca        1 PBH     -0.046200
     27 C25        11.3570    7.8610  -10.6330 ca        1 PBH      0.043400
     28 C26         9.5750    9.4080  -11.4370 ca        1 PBH     -0.172000
     29 C27        12.3150    8.5680  -11.3690 ca        1 PBH     -0.047000
     30 C28        10.5580   10.0990  -12.1690 ca        1 PBH      0.155600
     31 C29        11.9130    9.6570  -12.1210 ca        1 PBH     -0.196000
     32 C2D        -0.4350   -0.7650    2.5420 c3        1 PBH     -0.091400
     33 C30        11.2540   12.1130  -13.3680 c3        1 PBH      0.185800
     34 N30        11.4630    6.7340   -9.7980 nd        1 PBH     -0.554100
     35 C31         9.1210   11.0850  -13.8620 c3        1 PBH      0.185800
     36 C32        10.7350   13.4540  -13.9260 c3        1 PBH      0.165300
     37 C33         8.6060   12.4240  -14.4270 c3        1 PBH      0.165300
     38 C34         9.1820   14.5480  -15.4120 c3        1 PBH      0.157100
     39 N40         9.2660    7.4270   -9.8600 na        1 PBH     -0.286300
     40 C5A         4.0320   -0.7890    0.6890 ca        1 PBH     -0.155600
     41 C5D         3.2200   -1.1410    1.8870 c         1 PBH      0.737100
     42 C6D         4.9690   -1.7480    0.2770 ca        1 PBH     -0.112000
     43 C8D         5.7100   -0.2660   -1.4950 ca        1 PBH      0.151100
     44 C9A         3.9250    0.4450    0.0170 ca        1 PBH      0.162600
     45 H1         -0.8660   -0.7990    0.3960 hc        1 PBH      0.053700
     46 H1A        -0.7370    0.8590    1.1010 hc        1 PBH      0.053700
     47 H3          1.0470   -2.2700    3.1990 h1        1 PBH      0.055700
     48 H3A         1.3040   -0.6120    3.8950 h1        1 PBH      0.055700
     49 H9          4.7150    1.6450   -1.6240 ha        1 PBH      0.136000
     50 HN10        3.3010    2.3530    0.0370 hn        1 PBH      0.387800
     51 H11         1.1420    1.6590   -0.3520 h1        1 PBH      0.041200
     52 H11A        1.3210    1.9230    1.4440 h1        1 PBH      0.041200
     53 H12         7.8400   -4.0450   -1.0160 h1        1 PBH      0.046033
     54 H12A        6.0960   -4.1980   -0.4520 h1        1 PBH      0.046033
     55 H12B        7.2980   -3.2330    0.5450 h1        1 PBH      0.046033
     56 H13         6.8140    1.9540   -2.4290 h1        1 PBH      0.039200
     57 H13A        5.5870    1.3610   -3.6570 h1        1 PBH      0.039200
     58 H14         7.4550    0.2510   -4.9630 hc        1 PBH      0.079200
     59 H14A        8.6610    0.8450   -3.7600 hc        1 PBH      0.079200
     60 H15         6.7960    2.6450   -5.4970 h1        1 PBH      0.040200
     61 H15A        8.0400    3.2400   -4.2860 h1        1 PBH      0.040200
     62 H18        10.6500    2.1760   -7.6960 ha        1 PBH      0.147000
     63 H19         7.5850    4.7150   -5.9560 ha        1 PBH      0.147000
     64 H1AA        1.3730   -0.7360   -0.1680 h1        1 PBH      0.059700
     65 H20        11.3140    4.0440   -9.2240 ha        1 PBH      0.146000
     66 H21         8.2500    6.5550   -7.4530 ha        1 PBH      0.146000
     67 H26         8.5240    9.7280  -11.4380 ha        1 PBH      0.139000
     68 H27        13.3700    8.2550  -11.3490 ha        1 PBH      0.147000
     69 H29        12.6820   10.1900  -12.7010 ha        1 PBH      0.135000
     70 H2D        -0.8550   -0.0150    3.2550 hc        1 PBH      0.053700
     71 H2DA       -1.1100   -1.6550    2.5420 hc        1 PBH      0.053700
     72 H30        11.9430   12.3430  -12.5080 h1        1 PBH      0.044200
     73 H30A       11.8520   11.5980  -14.1760 h1        1 PBH      0.044200
     74 H31         8.2530   10.5640  -13.3710 h1        1 PBH      0.044200
     75 H31A        9.4740   10.4420  -14.7200 h1        1 PBH      0.044200
     76 H32        10.4050   14.1020  -13.0620 h1        1 PBH      0.038200
     77 H32A       11.5980   13.9670  -14.4350 h1        1 PBH      0.038200
     78 H33         7.9340   12.1890  -15.2990 h1        1 PBH      0.038200
     79 H33A        7.9830   12.9340  -13.6350 h1        1 PBH      0.038200
     80 H34        10.0410   15.1230  -15.8460 h1        1 PBH      0.033033
     81 H34A        8.6900   15.1820  -14.6230 h1        1 PBH      0.033033
     82 H34B        8.4350   14.3460  -16.2240 h1        1 PBH      0.033033
     83 HN40        8.2970    7.4250   -9.6960 hn        1 PBH      0.303700
     84 H6D         5.0390   -2.6880    0.8490 ha        1 PBH      0.164000
@<TRIPOS>BOND
     1    1   21 1   
     2    1   32 1   
     3    1   45 1   
     4    1   46 1   
     5    2    9 1   
     6    2   13 1   
     7    3    4 1   
     8    3   32 1   
     9    3   47 1   
    10    3   48 1   
    11    4   21 1   
    12    4   41 1   
    13    5   17 1   
    14    5   18 1   
    15    6   30 1   
    16    6   33 1   
    17    6   35 1   
    18    7   41 2   
    19    8   36 1   
    20    8   37 1   
    21    8   38 1   
    22    9   42 ar  
    23    9   43 ar  
    24   10   43 ar  
    25   10   44 ar  
    26   10   49 1   
    27   11   12 1   
    28   11   44 1   
    29   11   50 1   
    30   12   21 1   
    31   12   51 1   
    32   12   52 1   
    33   13   53 1   
    34   13   54 1   
    35   13   55 1   
    36   14   15 1   
    37   14   16 1   
    38   14   56 1   
    39   14   57 1   
    40   15   43 1   
    41   16   17 1   
    42   16   58 1   
    43   16   59 1   
    44   17   60 1   
    45   17   61 1   
    46   18   19 ar  
    47   18   20 ar  
    48   19   22 ar  
    49   19   62 1   
    50   20   23 ar  
    51   20   63 1   
    52   21   64 1   
    53   22   24 ar  
    54   22   65 1   
    55   23   24 ar  
    56   23   66 1   
    57   24   25 1   
    58   25   34 2   
    59   25   39 1   
    60   26   27 ar  
    61   26   28 ar  
    62   26   39 1   
    63   27   29 ar  
    64   27   34 1   
    65   28   30 ar  
    66   28   67 1   
    67   29   31 ar  
    68   29   68 1   
    69   30   31 ar  
    70   31   69 1   
    71   32   70 1   
    72   32   71 1   
    73   33   36 1   
    74   33   72 1   
    75   33   73 1   
    76   35   37 1   
    77   35   74 1   
    78   35   75 1   
    79   36   76 1   
    80   36   77 1   
    81   37   78 1   
    82   37   79 1   
    83   38   80 1   
    84   38   81 1   
    85   38   82 1   
    86   39   83 1   
    87   40   41 1   
    88   40   42 ar  
    89   40   44 ar  
    90   42   84 1   
@<TRIPOS>SUBSTRUCTURE
     1 PBH         1 TEMP              0 ****  ****    0 ROOT
