@<TRIPOS>MOLECULE
PBH
   84    90     1     0     0
SMALL
bcc


@<TRIPOS>ATOM
      1 C1         -0.2790   -0.1420    1.0580 c3        1 PBH     -0.082400
      2 O2          6.7490   -2.3910   -1.2560 os        1 PBH     -0.302900
      3 C3          0.9690   -1.0530    2.9660 c3        1 PBH      0.091000
      4 N4          1.9120   -0.6320    1.9460 n         1 PBH     -0.468800
      5 O4          8.7820    2.2120   -5.9560 os        1 PBH     -0.323900
      6 N5         10.1650   11.2740  -12.8430 nh        1 PBH     -0.639000
      7 O5          3.6490   -1.7960    2.8620 o         1 PBH     -0.636500
      8 N6          9.6480   13.3170  -14.8450 n3        1 PBH     -0.732600
      9 C7          5.8230   -1.4970   -0.7570 ca        1 PBH      0.093100
     10 C9          4.8410    0.7200   -1.0190 ca        1 PBH     -0.171000
     11 N10         3.1320    1.5430    0.5050 nh        1 PBH     -0.695600
     12 C11         1.7200    1.2760    0.3330 c3        1 PBH      0.159800
     13 C12         6.9160   -3.5910   -0.5080 c3        1 PBH      0.107700
     14 C13         6.6150    1.1650   -3.1450 c3        1 PBH      0.126400
     15 O13         6.5960   -0.1230   -2.5160 os        1 PBH     -0.301900
     16 C14         7.6830    1.0710   -4.2210 c3        1 PBH     -0.092400
     17 C15         7.7770    2.3980   -4.9520 c3        1 PBH      0.129400
     18 C17         9.0640    3.3110   -6.7400 ca        1 PBH      0.141100
     19 C18        10.0860    3.1080   -7.6890 ca        1 PBH     -0.186000
     20 C19         8.4160    4.5480   -6.6440 ca        1 PBH     -0.186000
     21 C1A         1.2340   -0.1330    0.7560 c3        1 PBH      0.063700
     22 C20        10.4450    4.1470   -8.5360 ca        1 PBH     -0.068000
     23 C21         8.7880    5.5820   -7.5010 ca        1 PBH     -0.068000
     24 C22         9.7940    5.3890   -8.4530 ca        1 PBH     -0.147900
     25 C23        10.1910    6.4700   -9.3560 cc        1 PBH      0.467400
     26 C24         9.9600    8.2940  -10.6660 ca        1 PBH     -0.046200
     27 C25        11.3320    7.8210  -10.6610 ca        1 PBH      0.043400
     28 C26         9.5620    9.4140  -11.4000 ca        1 PBH     -0.172000
     29 C27        12.2840    8.5120  -11.4190 ca        1 PBH     -0.047000
     30 C28        10.5400   10.0890  -12.1560 ca        1 PBH      0.155600
     31 C29        11.8850    9.6160  -12.1510 ca        1 PBH     -0.196000
     32 C2D        -0.4460   -0.8050    2.4220 c3        1 PBH     -0.092400
     33 C30        11.2450   12.0970  -13.3580 c3        1 PBH      0.185800
     34 N30        11.4370    6.6850   -9.8370 nd        1 PBH     -0.554100
     35 C31         9.0770   11.1200  -13.7990 c3        1 PBH      0.185800
     36 C32        10.7390   13.4530  -13.8910 c3        1 PBH      0.165300
     37 C33         8.5750   12.4740  -14.3380 c3        1 PBH      0.165300
     38 C34         9.1690   14.5940  -15.3230 c3        1 PBH      0.157100
     39 N40         9.2560    7.4270   -9.8300 na        1 PBH     -0.286300
     40 C5A         4.0690   -0.7630    0.7430 ca        1 PBH     -0.163600
     41 C5D         3.2120   -1.1110    1.9130 c         1 PBH      0.708100
     42 C6D         4.9880   -1.7360    0.3290 ca        1 PBH     -0.131000
     43 C8D         5.7420   -0.2540   -1.4420 ca        1 PBH      0.124100
     44 C9A         3.9950    0.4800    0.0850 ca        1 PBH      0.111600
     45 H1         -0.6880    0.8980    1.0690 hc        1 PBH      0.053700
     46 H1A        -0.8200   -0.7140    0.2650 hc        1 PBH      0.053700
     47 H3          1.1280   -2.1380    3.2210 h1        1 PBH      0.057200
     48 H3A         1.1540   -0.4530    3.8990 h1        1 PBH      0.057200
     49 H9          4.7830    1.6900   -1.5360 ha        1 PBH      0.155000
     50 HN10        3.3320    1.7560    1.4690 hn        1 PBH      0.378800
     51 H11         1.1580    2.0630    0.9100 h1        1 PBH      0.059200
     52 H11A        1.4740    1.3970   -0.7590 h1        1 PBH      0.059200
     53 H12         7.7370   -4.1210   -1.0550 h1        1 PBH      0.047700
     54 H12A        5.9780   -4.1970   -0.5220 h1        1 PBH      0.047700
     55 H12B        7.2220   -3.3660    0.5430 h1        1 PBH      0.047700
     56 H13         5.6080    1.3790   -3.5900 h1        1 PBH      0.041700
     57 H13A        6.8700    1.9530   -2.3880 h1        1 PBH      0.041700
     58 H14         7.4300    0.2510   -4.9420 hc        1 PBH      0.078200
     59 H14A        8.6710    0.8130   -3.7600 hc        1 PBH      0.078200
     60 H15         8.0870    3.2230   -4.2580 h1        1 PBH      0.041200
     61 H15A        6.8030    2.6620   -5.4420 h1        1 PBH      0.041200
     62 H18        10.5860    2.1310   -7.7430 ha        1 PBH      0.147500
     63 H19         7.6240    4.7200   -5.9020 ha        1 PBH      0.147500
     64 H1AA        1.4450   -0.8340   -0.1070 h1        1 PBH      0.054700
     65 H20        11.2480    3.9960   -9.2760 ha        1 PBH      0.146000
     66 H21         8.2870    6.5570   -7.4040 ha        1 PBH      0.146000
     67 H26         8.5200    9.7570  -11.3680 ha        1 PBH      0.140000
     68 H27        13.3320    8.1760  -11.4330 ha        1 PBH      0.147000
     69 H29        12.6480   10.1370  -12.7500 ha        1 PBH      0.135000
     70 H2D        -1.0190   -0.1460    3.1200 hc        1 PBH      0.053700
     71 H2DA       -1.0000   -1.7710    2.3300 hc        1 PBH      0.053700
     72 H30        11.9630   12.3050  -12.5170 h1        1 PBH      0.044200
     73 H30A       11.8080   11.5750  -14.1870 h1        1 PBH      0.044200
     74 H31         8.2120   10.6140  -13.2870 h1        1 PBH      0.044200
     75 H31A        9.3910   10.4760  -14.6710 h1        1 PBH      0.044200
     76 H32        10.4490   14.1010  -13.0130 h1        1 PBH      0.038200
     77 H32A       11.5980   13.9520  -14.4210 h1        1 PBH      0.038200
     78 H33         7.9860   12.9920  -13.5250 h1        1 PBH      0.038200
     79 H33A        7.8730   12.2620  -15.1920 h1        1 PBH      0.038200
     80 H34         8.7140   15.2320  -14.5150 h1        1 PBH      0.032700
     81 H34A       10.0280   15.1540  -15.7770 h1        1 PBH      0.032700
     82 H34B        8.3950   14.4150  -16.1140 h1        1 PBH      0.032700
     83 HN40        8.2920    7.4470   -9.6360 hn        1 PBH      0.303700
     84 H6D         5.0430   -2.6820    0.8920 ha        1 PBH      0.164000
@<TRIPOS>BOND
     1    1   21 1   
     2    1   32 1   
     3    1   45 1   
     4    1   46 1   
     5    2    9 1   
     6    2   13 1   
     7    3    4 1   
     8    3   32 1   
     9    3   47 1   
    10    3   48 1   
    11    4   21 1   
    12    4   41 1   
    13    5   17 1   
    14    5   18 1   
    15    6   30 1   
    16    6   33 1   
    17    6   35 1   
    18    7   41 2   
    19    8   36 1   
    20    8   37 1   
    21    8   38 1   
    22    9   42 ar  
    23    9   43 ar  
    24   10   43 ar  
    25   10   44 ar  
    26   10   49 1   
    27   11   12 1   
    28   11   44 1   
    29   11   50 1   
    30   12   21 1   
    31   12   51 1   
    32   12   52 1   
    33   13   53 1   
    34   13   54 1   
    35   13   55 1   
    36   14   15 1   
    37   14   16 1   
    38   14   56 1   
    39   14   57 1   
    40   15   43 1   
    41   16   17 1   
    42   16   58 1   
    43   16   59 1   
    44   17   60 1   
    45   17   61 1   
    46   18   19 ar  
    47   18   20 ar  
    48   19   22 ar  
    49   19   62 1   
    50   20   23 ar  
    51   20   63 1   
    52   21   64 1   
    53   22   24 ar  
    54   22   65 1   
    55   23   24 ar  
    56   23   66 1   
    57   24   25 1   
    58   25   34 2   
    59   25   39 1   
    60   26   27 ar  
    61   26   28 ar  
    62   26   39 1   
    63   27   29 ar  
    64   27   34 1   
    65   28   30 ar  
    66   28   67 1   
    67   29   31 ar  
    68   29   68 1   
    69   30   31 ar  
    70   31   69 1   
    71   32   70 1   
    72   32   71 1   
    73   33   36 1   
    74   33   72 1   
    75   33   73 1   
    76   35   37 1   
    77   35   74 1   
    78   35   75 1   
    79   36   76 1   
    80   36   77 1   
    81   37   78 1   
    82   37   79 1   
    83   38   80 1   
    84   38   81 1   
    85   38   82 1   
    86   39   83 1   
    87   40   41 1   
    88   40   42 ar  
    89   40   44 ar  
    90   42   84 1   
@<TRIPOS>SUBSTRUCTURE
     1 PBH         1 TEMP              0 ****  ****    0 ROOT
