@<TRIPOS>MOLECULE
PBH
   84    90     1     0     0
SMALL
bcc


@<TRIPOS>ATOM
      1 C1          9.9900    4.2050    1.1900 c3        1 PBH     -0.082400
      2 O2          7.2580   -3.0060    0.6110 os        1 PBH     -0.302900
      3 C3         11.4620    2.8760   -0.2580 c3        1 PBH      0.091000
      4 N4         10.1490    2.2560   -0.2240 n         1 PBH     -0.468800
      5 O4          0.3960   -2.4480    0.4640 os        1 PBH     -0.323900
      6 N5        -10.5140    1.0120   -0.2130 nh        1 PBH     -0.639000
      7 O5         10.9010    0.2780   -1.0810 o         1 PBH     -0.636500
      8 N6        -13.0010    2.4100    0.3460 n3        1 PBH     -0.732600
      9 C7          7.3890   -1.6850    0.2350 ca        1 PBH      0.093100
     10 C9          6.1920    0.3760   -0.2870 ca        1 PBH     -0.171000
     11 N10         7.3690    2.3940   -0.9630 nh        1 PBH     -0.695600
     12 C11         7.9070    3.3540   -0.0210 c3        1 PBH      0.159800
     13 C12         8.4630   -3.7630    0.6460 c3        1 PBH      0.107700
     14 C13         3.7900   -1.0180    0.1030 c3        1 PBH      0.126400
     15 O13         5.0300   -1.6900    0.3590 os        1 PBH     -0.301900
     16 C14         2.7100   -2.0460    0.3900 c3        1 PBH     -0.092400
     17 C15         1.3470   -1.4230    0.1490 c3        1 PBH      0.129400
     18 C17        -0.9310   -2.1140    0.2910 ca        1 PBH      0.141100
     19 C18        -1.8390   -3.1560    0.5680 ca        1 PBH     -0.186000
     20 C19        -1.3920   -0.8580   -0.1210 ca        1 PBH     -0.186000
     21 C1A         9.2390    2.9630    0.6670 c3        1 PBH      0.063700
     22 C20        -3.2010   -2.9260    0.4340 ca        1 PBH     -0.068000
     23 C21        -2.7630   -0.6430   -0.2520 ca        1 PBH     -0.068000
     24 C22        -3.6730   -1.6670    0.0290 ca        1 PBH     -0.147900
     25 C23        -5.1140   -1.4500   -0.1050 cc        1 PBH      0.467400
     26 C24        -7.0770   -0.3350   -0.0500 ca        1 PBH     -0.046200
     27 C25        -7.2660   -1.7140   -0.4620 ca        1 PBH      0.043400
     28 C26        -8.1420    0.5610    0.0590 ca        1 PBH     -0.172000
     29 C27        -8.5610   -2.1550   -0.7590 ca        1 PBH     -0.047000
     30 C28        -9.4340    0.0910   -0.2430 ca        1 PBH      0.155600
     31 C29        -9.6140   -1.2660   -0.6430 ca        1 PBH     -0.196000
     32 C2D        11.4210    4.0990    0.6710 c3        1 PBH     -0.092400
     33 C30       -11.7620    0.5720   -0.8110 c3        1 PBH      0.185800
     34 N30        -6.0240   -2.3760   -0.4840 nd        1 PBH     -0.554100
     35 C31       -10.7150    1.6930    1.0580 c3        1 PBH      0.185800
     36 C32       -12.7920    1.7160   -0.9170 c3        1 PBH      0.165300
     37 C33       -11.7490    2.8320    0.9570 c3        1 PBH      0.165300
     38 C34       -13.9520    3.4910    0.2310 c3        1 PBH      0.157100
     39 N40        -5.7060   -0.1880    0.1670 na        1 PBH     -0.286300
     40 C5A         8.6190    0.3170   -0.3550 ca        1 PBH     -0.163600
     41 C5D         9.9630    0.9270   -0.5740 c         1 PBH      0.708100
     42 C6D         8.5990   -1.0370    0.0070 ca        1 PBH     -0.131000
     43 C8D         6.1710   -0.9650    0.0910 ca        1 PBH      0.124100
     44 C9A         7.4190    1.0340   -0.5220 ca        1 PBH      0.111600
     45 H1          9.5050    5.1450    0.8270 hc        1 PBH      0.053700
     46 H1A         9.9670    4.2190    2.3060 hc        1 PBH      0.053700
     47 H3         12.2500    2.1400    0.0650 h1        1 PBH      0.057200
     48 H3A        11.6900    3.1800   -1.3160 h1        1 PBH      0.057200
     49 H9          5.2520    0.9350   -0.4140 ha        1 PBH      0.155000
     50 HN10        7.8520    2.4630   -1.8440 hn        1 PBH      0.378800
     51 H11         8.0320    4.3290   -0.5710 h1        1 PBH      0.059200
     52 H11A        7.1440    3.5040    0.7940 h1        1 PBH      0.059200
     53 H12         9.1530   -3.3660    1.4310 h1        1 PBH      0.047700
     54 H12A        8.1110   -4.7920    0.9140 h1        1 PBH      0.047700
     55 H12B        8.9630   -3.7630   -0.3520 h1        1 PBH      0.047700
     56 H13         3.6970   -0.1330    0.7860 h1        1 PBH      0.041700
     57 H13A        3.7550   -0.6790   -0.9650 h1        1 PBH      0.041700
     58 H14         2.8470   -2.9420   -0.2710 hc        1 PBH      0.078200
     59 H14A        2.7900   -2.4020    1.4490 hc        1 PBH      0.078200
     60 H15         1.2260   -1.1130   -0.9230 h1        1 PBH      0.041200
     61 H15A        1.1800   -0.5390    0.8200 h1        1 PBH      0.041200
     62 H18        -1.4550   -4.1360    0.8840 ha        1 PBH      0.147500
     63 H19        -0.6930   -0.0420   -0.3490 ha        1 PBH      0.147500
     64 H1AA        8.9820    2.2900    1.5380 h1        1 PBH      0.054700
     65 H20        -3.9150   -3.7390    0.6430 ha        1 PBH      0.146000
     66 H21        -3.1140    0.3410   -0.5970 ha        1 PBH      0.146000
     67 H26        -7.9630    1.6030    0.3550 ha        1 PBH      0.140000
     68 H27        -8.7330   -3.1950   -1.0750 ha        1 PBH      0.147000
     69 H29       -10.6260   -1.6380   -0.8700 ha        1 PBH      0.135000
     70 H2D        11.7140    5.0200    0.1120 hc        1 PBH      0.053700
     71 H2DA       12.1410    3.9670    1.5150 hc        1 PBH      0.053700
     72 H30       -11.5460    0.2080   -1.8540 h1        1 PBH      0.044200
     73 H30A      -12.2290   -0.2750   -0.2270 h1        1 PBH      0.044200
     74 H31       -11.0500    0.9700    1.8580 h1        1 PBH      0.044200
     75 H31A       -9.7390    2.1460    1.3870 h1        1 PBH      0.044200
     76 H32       -13.7740    1.2610   -1.2260 h1        1 PBH      0.038200
     77 H32A      -12.4640    2.4230   -1.7340 h1        1 PBH      0.038200
     78 H33       -11.2820    3.6960    0.3990 h1        1 PBH      0.038200
     79 H33A      -11.9780    3.1790    2.0030 h1        1 PBH      0.038200
     80 H34       -14.9190    3.0810   -0.1630 h1        1 PBH      0.032700
     81 H34A      -14.1320    3.9230    1.2500 h1        1 PBH      0.032700
     82 H34B      -13.6100    4.3170   -0.4520 h1        1 PBH      0.032700
     83 HN40       -5.2420    0.6180    0.4840 hn        1 PBH      0.303700
     84 H6D         9.5570   -1.5750    0.0910 ha        1 PBH      0.164000
@<TRIPOS>BOND
     1    1   21 1   
     2    1   32 1   
     3    1   45 1   
     4    1   46 1   
     5    2    9 1   
     6    2   13 1   
     7    3    4 1   
     8    3   32 1   
     9    3   47 1   
    10    3   48 1   
    11    4   21 1   
    12    4   41 1   
    13    5   17 1   
    14    5   18 1   
    15    6   30 1   
    16    6   33 1   
    17    6   35 1   
    18    7   41 2   
    19    8   36 1   
    20    8   37 1   
    21    8   38 1   
    22    9   42 ar  
    23    9   43 ar  
    24   10   43 ar  
    25   10   44 ar  
    26   10   49 1   
    27   11   12 1   
    28   11   44 1   
    29   11   50 1   
    30   12   21 1   
    31   12   51 1   
    32   12   52 1   
    33   13   53 1   
    34   13   54 1   
    35   13   55 1   
    36   14   15 1   
    37   14   16 1   
    38   14   56 1   
    39   14   57 1   
    40   15   43 1   
    41   16   17 1   
    42   16   58 1   
    43   16   59 1   
    44   17   60 1   
    45   17   61 1   
    46   18   19 ar  
    47   18   20 ar  
    48   19   22 ar  
    49   19   62 1   
    50   20   23 ar  
    51   20   63 1   
    52   21   64 1   
    53   22   24 ar  
    54   22   65 1   
    55   23   24 ar  
    56   23   66 1   
    57   24   25 1   
    58   25   34 2   
    59   25   39 1   
    60   26   27 ar  
    61   26   28 ar  
    62   26   39 1   
    63   27   29 ar  
    64   27   34 1   
    65   28   30 ar  
    66   28   67 1   
    67   29   31 ar  
    68   29   68 1   
    69   30   31 ar  
    70   31   69 1   
    71   32   70 1   
    72   32   71 1   
    73   33   36 1   
    74   33   72 1   
    75   33   73 1   
    76   35   37 1   
    77   35   74 1   
    78   35   75 1   
    79   36   76 1   
    80   36   77 1   
    81   37   78 1   
    82   37   79 1   
    83   38   80 1   
    84   38   81 1   
    85   38   82 1   
    86   39   83 1   
    87   40   41 1   
    88   40   42 ar  
    89   40   44 ar  
    90   42   84 1   
@<TRIPOS>SUBSTRUCTURE
     1 PBH         1 TEMP              0 ****  ****    0 ROOT
