@<TRIPOS>MOLECULE
PBH
   84    79     1     0     0
SMALL
bcc


@<TRIPOS>ATOM
      1 C1         -2.0860   -4.8260   11.2410 c3        1 PBH     -0.162000
      2 O2          0.7470    0.3180    7.0050 os        1 PBH     -0.208000
      3 C3         -3.9040   -3.3710   11.1460 c3        1 PBH     -0.024000
      4 N4         -3.2260   -2.9660   10.0910 n3        1 PBH     -0.326000
      5 O4          2.3520   -1.5780    0.5420 os        1 PBH     -0.207000
      6 N5          0.5570    3.5190   -9.6170 n3        1 PBH     -0.224000
      7 O5         -4.1010   -1.2350    8.7680 o         1 PBH     -0.361000
      8 N6          0.3760    4.8290  -12.1440 n3        1 PBH     -0.259000
      9 C7         -0.1430   -0.7910    7.0910 c2        1 PBH      0.043000
     10 C9         -0.8780   -2.9480    6.2840 c1        1 PBH     -0.099000
     11 N10        -2.7440   -4.0870    7.6540 n3        1 PBH     -0.247000
     12 C11        -2.3400   -4.8420    8.7850 c3        1 PBH     -0.078000
     13 C12         0.1000    1.5520    6.7430 c3        1 PBH     -0.080000
     14 C13         0.4620   -1.6420    3.8160 c3        1 PBH     -0.020000
     15 O13         0.9580   -1.7900    5.1550 os        1 PBH     -0.213000
     16 C14         1.5790   -1.9640    2.8280 c3        1 PBH     -0.171000
     17 C15         1.4720   -1.0620    1.6160 c3        1 PBH     -0.020000
     18 C17         2.1660   -0.9320   -0.7260 c2        1 PBH      0.099000
     19 C18         1.1900   -1.3980   -1.6120 c2        1 PBH     -0.212000
     20 C19         3.0090    0.1300   -1.1030 c1        1 PBH     -0.163000
     21 C1A        -2.1060   -3.9800    9.9260 c3        1 PBH     -0.013000
     22 C20         1.0520   -0.8020   -2.8850 c1        1 PBH     -0.080000
     23 C21         2.8720    0.7190   -2.3620 c1        1 PBH     -0.077333
     24 C22         1.8920    0.2530   -3.2570 c1        1 PBH     -0.057333
     25 C23         1.7900    0.8140   -4.5340 c1        1 PBH      0.065000
     26 C24         1.1890    1.7580   -6.4320 c1        1 PBH     -0.057333
     27 C25         2.3630    1.0770   -6.6460 c1        1 PBH     -0.057333
     28 C26         0.6030    2.5070   -7.4850 c1        1 PBH     -0.077333
     29 C27         2.9850    1.1220   -7.9070 c1        1 PBH     -0.077333
     30 C28         1.2160    2.5510   -8.7270 c1        1 PBH      0.018000
     31 C29         2.4130    1.8560   -8.9410 c1        1 PBH     -0.175000
     32 C2D        -2.8310   -4.1940   12.0520 c3        1 PBH     -0.171000
     33 C30         1.4750    4.5560   -9.9650 c3        1 PBH     -0.066000
     34 N30         2.7300    0.4980   -5.4780 n1        1 PBH     -0.186000
     35 C31         0.0350    2.8380  -10.7600 c3        1 PBH     -0.066000
     36 C32         0.9000    5.5140  -10.9990 c3        1 PBH     -0.069000
     37 C33        -0.5390    3.7930  -11.7910 c3        1 PBH     -0.069000
     38 C34        -0.2880    5.7830  -13.0160 c3        1 PBH     -0.119000
     39 N40         0.8410    1.5900   -5.1260 n1        1 PBH     -0.186000
     40 C5A        -1.8550   -2.0040    8.2860 c1        1 PBH     -0.121000
     41 C5D        -3.2140   -2.0040    9.0030 c1        1 PBH      0.343000
     42 C6D        -1.0380   -0.8830    8.1540 c2        1 PBH     -0.142000
     43 C8D        -0.0600   -1.8210    6.1550 c1        1 PBH      0.048000
     44 C9A        -1.7770   -3.0390    7.3530 c2        1 PBH      0.006000
     45 H1         -2.4740   -5.7400   11.0610 hc        1 PBH      0.094000
     46 H1A        -1.1530   -4.8660   11.6000 hc        1 PBH      0.094000
     47 H3         -4.5570   -4.0150   10.8310 h1        1 PBH      0.096500
     48 H3A        -4.1390   -2.5920   11.6370 h1        1 PBH      0.096500
     49 H9         -0.8220   -3.6640    5.6390 ha        1 PBH      0.167000
     50 HN10       -3.5950   -3.6950    7.8200 hn        1 PBH      0.173000
     51 H11        -1.5340   -5.3140    8.5750 h1        1 PBH      0.101000
     52 H11A       -3.0300   -5.4780    9.0050 h1        1 PBH      0.101000
     53 H12         0.7690    2.2520    6.6270 h1        1 PBH      0.088333
     54 H12A       -0.4300    1.4730    5.9320 h1        1 PBH      0.088333
     55 H12B       -0.4880    1.7820    7.4970 h1        1 PBH      0.088333
     56 H13         0.1580   -0.7200    3.6790 h1        1 PBH      0.086000
     57 H13A       -0.2960   -2.2660    3.6720 h1        1 PBH      0.086000
     58 H14         2.4310   -1.8260    3.2550 hc        1 PBH      0.113000
     59 H14A        1.5070   -2.8690    2.5560 hc        1 PBH      0.113000
     60 H15         1.7510   -0.1520    1.8600 h1        1 PBH      0.081000
     61 H15A        0.5390   -1.0460    1.2990 h1        1 PBH      0.081000
     62 H18         0.6260   -2.1090   -1.3610 ha        1 PBH      0.140000
     63 H19         3.6850    0.4530   -0.4890 ha        1 PBH      0.156000
     64 H1AA       -1.2350   -3.5050    9.8170 h1        1 PBH      0.095000
     65 H20         0.3650   -1.1300   -3.5100 ha        1 PBH      0.132000
     66 H21         3.4650    1.4650   -2.6230 ha        1 PBH      0.152333
     67 H26        -0.2420    2.8940   -7.3670 ha        1 PBH      0.152333
     68 H27         3.8270    0.6340   -8.0560 ha        1 PBH      0.152333
     69 H29         2.8600    1.9190   -9.7850 ha        1 PBH      0.137000
     70 H2D        -2.3020   -3.5840   12.5770 hc        1 PBH      0.093000
     71 H2DA       -3.3130   -4.8460   12.6570 hc        1 PBH      0.093000
     72 H30         1.7050    5.0650   -9.1500 h1        1 PBH      0.082000
     73 H30A        2.2950    4.1490  -10.3280 h1        1 PBH      0.082000
     74 H31        -0.6650    2.2300  -10.4730 h1        1 PBH      0.082000
     75 H31A        0.7250    2.3410  -11.1580 h1        1 PBH      0.082000
     76 H32         0.1700    6.0430  -10.5780 h1        1 PBH      0.076500
     77 H32A        1.6040    6.1220  -11.2900 h1        1 PBH      0.076500
     78 H33        -0.7780    3.2730  -12.6200 h1        1 PBH      0.076500
     79 H33A       -1.3240    4.1880  -11.4370 h1        1 PBH      0.076500
     80 H34        -1.0340    6.2010  -12.5340 h1        1 PBH      0.071333
     81 H34A        0.3540    6.4800  -13.2920 h1        1 PBH      0.071333
     82 H34B       -0.6270    5.3230  -13.8040 h1        1 PBH      0.071333
     83 HN40        0.0810    1.8940   -4.7330 DU        1 PBH      0.256000
     84 H6D        -1.0780   -0.1780    8.8120 ha        1 PBH      0.163000
@<TRIPOS>BOND
     1    1   21 1   
     2    1   32 1   
     3    1   45 1   
     4    1   46 1   
     5    2    9 1   
     6    2   13 1   
     7    3    4 1   
     8    3   32 1   
     9    3   47 1   
    10    3   48 1   
    11    4   21 1   
    12    4   41 1   
    13    5   17 1   
    14    5   18 1   
    15    6   30 1   
    16    6   33 1   
    17    6   35 1   
    18    7   41 1   
    19    8   36 1   
    20    8   37 1   
    21    8   38 1   
    22    9   42 1   
    23    9   43 1   
    24   10   44 1   
    25   10   49 1   
    26   11   12 1   
    27   11   44 1   
    28   11   50 1   
    29   12   21 1   
    30   12   51 1   
    31   12   52 1   
    32   13   53 1   
    33   13   54 1   
    34   13   55 1   
    35   14   15 1   
    36   14   16 1   
    37   14   56 1   
    38   14   57 1   
    39   15   43 1   
    40   16   17 1   
    41   16   58 1   
    42   16   59 1   
    43   17   60 1   
    44   17   61 1   
    45   18   19 1   
    46   18   20 1   
    47   19   22 1   
    48   19   62 1   
    49   20   63 1   
    50   21   64 1   
    51   22   65 1   
    52   23   24 1   
    53   23   66 1   
    54   25   34 1   
    55   25   39 1   
    56   26   28 1   
    57   27   29 1   
    58   28   67 1   
    59   29   68 1   
    60   30   31 1   
    61   31   69 1   
    62   32   70 1   
    63   32   71 1   
    64   33   36 1   
    65   33   72 1   
    66   33   73 1   
    67   35   37 1   
    68   35   74 1   
    69   35   75 1   
    70   36   76 1   
    71   36   77 1   
    72   37   78 1   
    73   37   79 1   
    74   38   80 1   
    75   38   81 1   
    76   38   82 1   
    77   40   42 1   
    78   40   44 1   
    79   42   84 1   
@<TRIPOS>SUBSTRUCTURE
     1 PBH         1 TEMP              0 ****  ****    0 ROOT
