@<TRIPOS>MOLECULE
PBH
   84    90     1     0     0
SMALL
bcc


@<TRIPOS>ATOM
      1 C1         -0.3030   -0.1460    1.1570 c3        1 PBH     -0.085400
      2 O2          6.7040   -2.4330   -1.3550 os        1 PBH     -0.305900
      3 C3          0.9940   -1.1770    2.9700 c3        1 PBH      0.101000
      4 N4          1.8780   -0.8630    1.8660 n         1 PBH     -0.472800
      5 O4          8.7760    2.2120   -5.9910 os        1 PBH     -0.322900
      6 N5         10.1830   11.2890  -12.8520 nh        1 PBH     -0.639000
      7 O5          3.7210   -1.7740    2.8400 o         1 PBH     -0.646500
      8 N6          9.6820   13.3250  -14.8660 n3        1 PBH     -0.732600
      9 C7          5.7850   -1.5370   -0.8440 ca        1 PBH      0.071100
     10 C9          4.7870    0.6710   -1.1000 ca        1 PBH     -0.251000
     11 N10         3.1220    1.4720    0.5000 nh        1 PBH     -0.718600
     12 C11         1.6920    1.2950    0.5960 c3        1 PBH      0.169800
     13 C12         6.9490   -3.5850   -0.5550 c3        1 PBH      0.108700
     14 C13         6.5800    1.1430   -3.2100 c3        1 PBH      0.127400
     15 O13         6.5550   -0.1490   -2.5920 os        1 PBH     -0.299900
     16 C14         7.6610    1.0590   -4.2730 c3        1 PBH     -0.092400
     17 C15         7.7530    2.3870   -5.0030 c3        1 PBH      0.130400
     18 C17         9.0600    3.3140   -6.7690 ca        1 PBH      0.141100
     19 C18        10.1030    3.1240   -7.6970 ca        1 PBH     -0.186000
     20 C19         8.3950    4.5430   -6.6860 ca        1 PBH     -0.186000
     21 C1A         1.2020   -0.1560    0.7990 c3        1 PBH      0.107700
     22 C20        10.4660    4.1670   -8.5380 ca        1 PBH     -0.068000
     23 C21         8.7710    5.5820   -7.5370 ca        1 PBH     -0.068000
     24 C22         9.7980    5.4010   -8.4680 ca        1 PBH     -0.147900
     25 C23        10.2000    6.4870   -9.3640 cc        1 PBH      0.466400
     26 C24         9.9720    8.3070  -10.6800 ca        1 PBH     -0.046200
     27 C25        11.3500    7.8530  -10.6440 ca        1 PBH      0.043400
     28 C26         9.5750    9.4210  -11.4220 ca        1 PBH     -0.172000
     29 C27        12.3090    8.5570  -11.3810 ca        1 PBH     -0.047000
     30 C28        10.5590   10.1090  -12.1570 ca        1 PBH      0.155600
     31 C29        11.9100    9.6550  -12.1220 ca        1 PBH     -0.196000
     32 C2D        -0.4230   -0.7490    2.5540 c3        1 PBH     -0.091400
     33 C30        11.2630   12.1260  -13.3450 c3        1 PBH      0.185800
     34 N30        11.4530    6.7190   -9.8170 nd        1 PBH     -0.554100
     35 C31         9.1180   11.1200  -13.8310 c3        1 PBH      0.185800
     36 C32        10.7510   13.4760  -13.8890 c3        1 PBH      0.165300
     37 C33         8.6100   12.4680  -14.3810 c3        1 PBH      0.165300
     38 C34         9.1960   14.5950  -15.3540 c3        1 PBH      0.157100
     39 N40         9.2610    7.4310   -9.8580 na        1 PBH     -0.286300
     40 C5A         4.0310   -0.8130    0.6690 ca        1 PBH     -0.155600
     41 C5D         3.2230   -1.1660    1.8690 c         1 PBH      0.737100
     42 C6D         4.9520   -1.7800    0.2400 ca        1 PBH     -0.112000
     43 C8D         5.7000   -0.2890   -1.5210 ca        1 PBH      0.151100
     44 C9A         3.9360    0.4290    0.0110 ca        1 PBH      0.161600
     45 H1         -0.8690   -0.7560    0.4110 hc        1 PBH      0.053700
     46 H1A        -0.7130    0.8930    1.1320 hc        1 PBH      0.053700
     47 H3          1.0450   -2.2800    3.1850 h1        1 PBH      0.055700
     48 H3A         1.3280   -0.6330    3.8960 h1        1 PBH      0.055700
     49 H9          4.7290    1.6360   -1.6240 ha        1 PBH      0.136000
     50 HN10        3.3370    2.3450    0.0550 hn        1 PBH      0.387800
     51 H11         1.1660    1.6830   -0.3260 h1        1 PBH      0.041200
     52 H11A        1.3610    1.9260    1.4710 h1        1 PBH      0.041200
     53 H12         6.0420   -4.2370   -0.5210 h1        1 PBH      0.046033
     54 H12A        7.2640   -3.2970    0.4770 h1        1 PBH      0.046033
     55 H12B        7.7830   -4.1010   -1.0960 h1        1 PBH      0.046033
     56 H13         6.8240    1.9270   -2.4440 h1        1 PBH      0.039200
     57 H13A        5.5790    1.3580   -3.6670 h1        1 PBH      0.039200
     58 H14         8.6460    0.8100   -3.8000 hc        1 PBH      0.079200
     59 H14A        7.4250    0.2370   -4.9970 hc        1 PBH      0.079200
     60 H15         6.7840    2.6400   -5.5090 h1        1 PBH      0.040200
     61 H15A        8.0430    3.2160   -4.3040 h1        1 PBH      0.040200
     62 H18        10.6170    2.1530   -7.7410 ha        1 PBH      0.147000
     63 H19         7.5870    4.7050   -5.9600 ha        1 PBH      0.147000
     64 H1AA        1.3670   -0.7170   -0.1680 h1        1 PBH      0.059700
     65 H20        11.2850    4.0270   -9.2610 ha        1 PBH      0.146000
     66 H21         8.2560    6.5510   -7.4500 ha        1 PBH      0.146000
     67 H26         8.5270    9.7490  -11.4130 ha        1 PBH      0.139000
     68 H27        13.3610    8.2360  -11.3720 ha        1 PBH      0.147000
     69 H29        12.6800   10.1870  -12.7040 ha        1 PBH      0.135000
     70 H2D        -0.8280   -0.0010    3.2780 hc        1 PBH      0.053700
     71 H2DA       -1.1090   -1.6310    2.5500 hc        1 PBH      0.053700
     72 H30        11.8510   11.6130  -14.1610 h1        1 PBH      0.044200
     73 H30A       11.9600   12.3440  -12.4880 h1        1 PBH      0.044200
     74 H31         9.4590   10.4810  -14.6970 h1        1 PBH      0.044200
     75 H31A        8.2490   10.6030  -13.3380 h1        1 PBH      0.044200
     76 H32        10.4330   14.1200  -13.0180 h1        1 PBH      0.038200
     77 H32A       11.6140   13.9860  -14.4000 h1        1 PBH      0.038200
     78 H33         7.9290   12.2460  -15.2500 h1        1 PBH      0.038200
     79 H33A        7.9970   12.9770  -13.5820 h1        1 PBH      0.038200
     80 H34         8.7150   15.2270  -14.5570 h1        1 PBH      0.033033
     81 H34A        8.4420   14.4060  -16.1620 h1        1 PBH      0.033033
     82 H34B       10.0570   15.1660  -15.7900 h1        1 PBH      0.033033
     83 HN40        8.2930    7.4360   -9.6870 hn        1 PBH      0.303700
     84 H6D         5.0130   -2.7260    0.8020 ha        1 PBH      0.164000
@<TRIPOS>BOND
     1    1   21 1   
     2    1   32 1   
     3    1   45 1   
     4    1   46 1   
     5    2    9 1   
     6    2   13 1   
     7    3    4 1   
     8    3   32 1   
     9    3   47 1   
    10    3   48 1   
    11    4   21 1   
    12    4   41 1   
    13    5   17 1   
    14    5   18 1   
    15    6   30 1   
    16    6   33 1   
    17    6   35 1   
    18    7   41 2   
    19    8   36 1   
    20    8   37 1   
    21    8   38 1   
    22    9   42 ar  
    23    9   43 ar  
    24   10   43 ar  
    25   10   44 ar  
    26   10   49 1   
    27   11   12 1   
    28   11   44 1   
    29   11   50 1   
    30   12   21 1   
    31   12   51 1   
    32   12   52 1   
    33   13   53 1   
    34   13   54 1   
    35   13   55 1   
    36   14   15 1   
    37   14   16 1   
    38   14   56 1   
    39   14   57 1   
    40   15   43 1   
    41   16   17 1   
    42   16   58 1   
    43   16   59 1   
    44   17   60 1   
    45   17   61 1   
    46   18   19 ar  
    47   18   20 ar  
    48   19   22 ar  
    49   19   62 1   
    50   20   23 ar  
    51   20   63 1   
    52   21   64 1   
    53   22   24 ar  
    54   22   65 1   
    55   23   24 ar  
    56   23   66 1   
    57   24   25 1   
    58   25   34 2   
    59   25   39 1   
    60   26   27 ar  
    61   26   28 ar  
    62   26   39 1   
    63   27   29 ar  
    64   27   34 1   
    65   28   30 ar  
    66   28   67 1   
    67   29   31 ar  
    68   29   68 1   
    69   30   31 ar  
    70   31   69 1   
    71   32   70 1   
    72   32   71 1   
    73   33   36 1   
    74   33   72 1   
    75   33   73 1   
    76   35   37 1   
    77   35   74 1   
    78   35   75 1   
    79   36   76 1   
    80   36   77 1   
    81   37   78 1   
    82   37   79 1   
    83   38   80 1   
    84   38   81 1   
    85   38   82 1   
    86   39   83 1   
    87   40   41 1   
    88   40   42 ar  
    89   40   44 ar  
    90   42   84 1   
@<TRIPOS>SUBSTRUCTURE
     1 PBH         1 TEMP              0 ****  ****    0 ROOT
