@<TRIPOS>MOLECULE
PBI
   34    32     1     0     0
SMALL
bcc


@<TRIPOS>ATOM
      1 N1         -1.7770   -0.8030   -3.5410 n3        1 PBI     -0.370000
      2 CA1        -0.3550   -0.7370   -3.5790 c3        1 PBI     -0.024000
      3 C1          0.1980   -0.7160   -2.1370 c2        1 PBI      0.083000
      4 N2         -0.4720   -0.1090   -1.1820 n1        1 PBI     -0.207000
      5 N3          1.5310   -0.8330   -1.9190 n         1 PBI     -0.319000
      6 C2          1.7490   -0.1930   -0.5690 c2        1 PBI      0.273000
      7 O2          2.7030   -0.3890    0.1730 o         1 PBI     -0.301000
      8 CA2         0.2830    0.3020   -0.1150 c2        1 PBI     -0.085000
      9 CA3         2.5410   -1.0470   -2.9310 c3        1 PBI     -0.071000
     10 C3          3.7020   -1.7750   -2.3290 c2        1 PBI      0.194000
     11 O3          3.5810   -2.9320   -1.9880 o         1 PBI     -0.289000
     12 CB2        -0.1750   -0.2410    1.2270 c3        1 PBI     -0.125000
     13 CG2        -1.0100    0.8600    1.9820 c3        1 PBI     -0.077000
     14 CD1        -2.2790    0.2390    2.5900 c2        1 PBI     -0.102000
     15 CD2        -0.1060    1.6150    3.0060 c2        1 PBI     -0.102000
     16 CE1        -2.9270    0.8790    3.8220 c1        1 PBI     -0.219000
     17 CE2        -0.7180    2.1770    4.3040 c1        1 PBI     -0.219000
     18 CZ         -2.1230    1.7970    4.7010 c1        1 PBI      0.280000
     19 OH         -2.6320    2.2970    5.6870 o         1 PBI     -0.289000
     20 HN11       -2.0540   -1.6290   -3.8380 hn        1 PBI      0.167500
     21 HN12       -2.1270   -0.1530   -4.0790 hn        1 PBI      0.167500
     22 HA11       -0.0070   -1.5160   -4.0490 h1        1 PBI      0.103000
     23 HA12       -0.0800    0.0760   -4.0470 h1        1 PBI      0.103000
     24 HA2         0.2390    1.2570    0.0270 ha        1 PBI      0.146000
     25 HA31        2.8440   -0.1820   -3.2800 h1        1 PBI      0.128500
     26 HA32        2.1650   -1.5780   -3.6620 h1        1 PBI      0.128500
     27 HC3         4.5620   -1.3340   -2.2520 h4        1 PBI      0.101000
     28 HB21        0.6060   -0.4840    1.7640 hc        1 PBI      0.107000
     29 HB22       -0.7290   -1.0290    1.0850 hc        1 PBI      0.107000
     30 HG2        -1.2480    1.4540    1.2350 hc        1 PBI      0.143000
     31 HD1        -2.6400   -0.5750    2.2250 ha        1 PBI      0.132000
     32 HD2         0.8250    1.8140    2.7790 ha        1 PBI      0.132000
     33 HE1        -3.8410    0.6480    4.0670 ha        1 PBI      0.152500
     34 HE2        -0.2300    2.8380    4.8230 ha        1 PBI      0.152500
@<TRIPOS>BOND
     1    1    2 1   
     2    1   20 1   
     3    1   21 1   
     4    2    3 1   
     5    2   22 1   
     6    2   23 1   
     7    3    4 1   
     8    3    5 1   
     9    5    6 1   
    10    5    9 1   
    11    6    7 1   
    12    6    8 1   
    13    8   12 1   
    14    8   24 1   
    15    9   10 1   
    16    9   25 1   
    17    9   26 1   
    18   10   11 1   
    19   10   27 1   
    20   12   13 1   
    21   12   28 1   
    22   12   29 1   
    23   13   14 1   
    24   13   15 1   
    25   13   30 1   
    26   14   16 1   
    27   14   31 1   
    28   15   17 1   
    29   15   32 1   
    30   16   33 1   
    31   17   34 1   
    32   18   19 1   
@<TRIPOS>SUBSTRUCTURE
     1 PBI         1 TEMP              0 ****  ****    0 ROOT
