@<TRIPOS>MOLECULE
PBI
   35    36     1     0     0
SMALL
bcc


@<TRIPOS>ATOM
      1 N1          0.6460   -0.9930   -0.4280 n4        1 PBI     -0.837600
      2 CA1         1.4380    0.2260   -0.0950 c3        1 PBI      0.104500
      3 C1          1.9520    0.1420    1.3230 c2        1 PBI      0.387900
      4 N2          1.1390    0.1410    2.3640 n2        1 PBI     -0.585900
      5 N3          3.3310    0.0780    1.6390 n         1 PBI     -0.434300
      6 C2          3.4280    0.0130    3.0720 c         1 PBI      0.674500
      7 O2          4.4800   -0.0720    3.6910 o         1 PBI     -0.515500
      8 CA2         1.9630    0.1010    3.5850 c3        1 PBI      0.036500
      9 CA3         4.4330   -0.0980    0.7500 c3        1 PBI     -0.032000
     10 C3          4.4100   -1.3230   -0.1440 c         1 PBI      0.587900
     11 O3          3.3640   -1.8430   -0.5470 o         1 PBI     -0.607100
     12 CB2         1.6620   -1.0470    4.5430 c3        1 PBI     -0.052400
     13 CG2         0.3550   -0.8370    5.3030 c3        1 PBI     -0.017300
     14 CD1        -0.1530   -2.1480    5.8030 c2        1 PBI     -0.133700
     15 CD2         0.5230    0.1720    6.3880 c2        1 PBI     -0.133700
     16 CE1        -0.5090   -2.3690    7.0730 ce        1 PBI     -0.208200
     17 CE2         0.1710   -0.0420    7.6600 ce        1 PBI     -0.208200
     18 CZ         -0.3960   -1.3270    8.1130 c         1 PBI      0.546500
     19 OH         -0.7490   -1.5200    9.2810 o         1 PBI     -0.492100
     20 HN11        1.2630   -1.8230   -0.3890 hn        1 PBI      0.475133
     21 HN12        0.2610   -0.9080   -1.3730 hn        1 PBI      0.475133
     22 HA11        0.7690    1.1320   -0.1980 hx        1 PBI      0.130200
     23 HA12        2.2900    0.3020   -0.8320 hx        1 PBI      0.130200
     24 HA2         1.8350    1.0890    4.1210 h1        1 PBI      0.137700
     25 HA31        4.5270    0.8020    0.0680 h1        1 PBI      0.112200
     26 HA32        5.3690   -0.1390    1.3900 h1        1 PBI      0.112200
     27 HC3         5.4100   -1.7040   -0.4470 h4        1 PBI      0.058200
     28 HB21        2.5170   -1.1110    5.2710 hc        1 PBI      0.075200
     29 HB22        1.6200   -2.0170    3.9820 hc        1 PBI      0.075200
     30 HG2        -0.4260   -0.4330    4.5880 hc        1 PBI      0.084700
     31 HD1        -0.2410   -2.9410    5.0430 ha        1 PBI      0.127000
     32 HD2         0.9480    1.1410    6.0760 ha        1 PBI      0.127000
     33 HE1        -0.9030   -3.3420    7.4110 ha        1 PBI      0.163500
     34 HE2         0.2880    0.7300    8.4400 ha        1 PBI      0.163500
     35 H13        -0.1210   -1.1150    0.2430 hn        1 PBI      0.475133
@<TRIPOS>BOND
     1    1    2 1   
     2    1   20 1   
     3    1   21 1   
     4    1   35 1   
     5    2    3 1   
     6    2   22 1   
     7    2   23 1   
     8    3    4 2   
     9    3    5 1   
    10    4    8 1   
    11    5    6 1   
    12    5    9 1   
    13    6    7 2   
    14    6    8 1   
    15    8   12 1   
    16    8   24 1   
    17    9   10 1   
    18    9   25 1   
    19    9   26 1   
    20   10   11 2   
    21   10   27 1   
    22   12   13 1   
    23   12   28 1   
    24   12   29 1   
    25   13   14 1   
    26   13   15 1   
    27   13   30 1   
    28   14   16 2   
    29   14   31 1   
    30   15   17 2   
    31   15   32 1   
    32   16   18 1   
    33   16   33 1   
    34   17   18 1   
    35   17   34 1   
    36   18   19 2   
@<TRIPOS>SUBSTRUCTURE
     1 PBI         1 TEMP              0 ****  ****    0 ROOT
