@<TRIPOS>MOLECULE
PBI
   35    36     1     0     0
SMALL
bcc


@<TRIPOS>ATOM
      1 N1          0.6430   -1.0210   -0.4240 nz        1 PBI     -0.837600
      2 CA1         1.4140    0.2130   -0.0970 c3        1 PBI      0.104500
      3 C1          1.9330    0.1410    1.3190 c2        1 PBI      0.387900
      4 N2          1.1230    0.1300    2.3620 n2        1 PBI     -0.585900
      5 N3          3.3140    0.1020    1.6320 n         1 PBI     -0.434300
      6 C2          3.4150    0.0430    3.0650 c         1 PBI      0.674500
      7 O2          4.4710   -0.0220    3.6810 o         1 PBI     -0.515500
      8 CA2         1.9510    0.1070    3.5820 c3        1 PBI      0.036500
      9 CA3         4.4160   -0.0570    0.7400 c3        1 PBI     -0.032000
     10 C3          4.4120   -1.2850   -0.1500 c         1 PBI      0.587900
     11 O3          3.3740   -1.8240   -0.5490 o         1 PBI     -0.607100
     12 CB2         1.6720   -1.0420    4.5440 c3        1 PBI     -0.052400
     13 CG2         0.3640   -0.8520    5.3070 c3        1 PBI     -0.017300
     14 CD1        -0.1210   -2.1710    5.8130 c2        1 PBI     -0.133700
     15 CD2         0.5180    0.1630    6.3890 c2        1 PBI     -0.133700
     16 CE1        -0.4690   -2.3930    7.0850 ce        1 PBI     -0.208200
     17 CE2         0.1730   -0.0540    7.6630 ce        1 PBI     -0.208200
     18 CZ         -0.3710   -1.3470    8.1200 c         1 PBI      0.546500
     19 OH         -0.7170   -1.5420    9.2900 o         1 PBI     -0.492100
     20 HN11        1.2740   -1.8400   -0.3850 hn        1 PBI      0.475133
     21 HN12        0.2540   -0.9460   -1.3690 hn        1 PBI      0.475133
     22 HA11        2.2620    0.3020   -0.8370 hx        1 PBI      0.130200
     23 HA12        0.7290    1.1070   -0.2010 hx        1 PBI      0.130200
     24 HA2         1.8080    1.0950    4.1150 h1        1 PBI      0.137700
     25 HA31        5.3550   -0.0810    1.3780 h1        1 PBI      0.112200
     26 HA32        4.4930    0.8420    0.0560 h1        1 PBI      0.112200
     27 HC3         5.4180   -1.6490   -0.4550 h4        1 PBI      0.058200
     28 HB21        1.6450   -2.0150    3.9860 hc        1 PBI      0.075200
     29 HB22        2.5300   -1.0910    5.2690 hc        1 PBI      0.075200
     30 HG2        -0.4260   -0.4640    4.5930 hc        1 PBI      0.084700
     31 HD1        -0.1970   -2.9670    5.0550 ha        1 PBI      0.127000
     32 HD2         0.9250    1.1370    6.0730 ha        1 PBI      0.127000
     33 HE1        -0.8460   -3.3720    7.4270 ha        1 PBI      0.163500
     34 HE2         0.2790    0.7230    8.4390 ha        1 PBI      0.163500
     35 H13        -0.1210   -1.1550    0.2490 hn        1 PBI      0.475133
@<TRIPOS>BOND
     1    1    2 1   
     2    1   20 1   
     3    1   21 1   
     4    1   35 1   
     5    2    3 1   
     6    2   22 1   
     7    2   23 1   
     8    3    4 2   
     9    3    5 1   
    10    4    8 1   
    11    5    6 1   
    12    5    9 1   
    13    6    7 2   
    14    6    8 1   
    15    8   12 1   
    16    8   24 1   
    17    9   10 1   
    18    9   25 1   
    19    9   26 1   
    20   10   11 2   
    21   10   27 1   
    22   12   13 1   
    23   12   28 1   
    24   12   29 1   
    25   13   14 1   
    26   13   15 1   
    27   13   30 1   
    28   14   16 2   
    29   14   31 1   
    30   15   17 2   
    31   15   32 1   
    32   16   18 1   
    33   16   33 1   
    34   17   18 1   
    35   17   34 1   
    36   18   19 2   
@<TRIPOS>SUBSTRUCTURE
     1 PBI         1 TEMP              0 ****  ****    0 ROOT
