@<TRIPOS>MOLECULE
PBI
   35    36     1     0     0
SMALL
bcc


@<TRIPOS>ATOM
      1 N1          0.6560   -0.9350   -0.4330 n4        1 PBI     -0.837600
      2 CA1         1.4580    0.2730   -0.0810 c3        1 PBI      0.104500
      3 C1          1.9690    0.1640    1.3350 c2        1 PBI      0.387900
      4 N2          1.1550    0.1560    2.3750 n2        1 PBI     -0.585900
      5 N3          3.3470    0.0830    1.6530 n         1 PBI     -0.434300
      6 C2          3.4410   -0.0030    3.0840 c         1 PBI      0.674500
      7 O2          4.4920   -0.1060    3.7030 o         1 PBI     -0.515500
      8 CA2         1.9760    0.0910    3.5970 c3        1 PBI      0.036500
      9 CA3         4.4490   -0.0890    0.7620 c3        1 PBI     -0.032000
     10 C3          4.4160   -1.3010   -0.1490 c         1 PBI      0.587900
     11 O3          3.3660   -1.8060   -0.5620 o         1 PBI     -0.607100
     12 CB2         1.6640   -1.0680    4.5380 c3        1 PBI     -0.052400
     13 CG2         0.3580   -0.8560    5.2990 c3        1 PBI     -0.017300
     14 CD1        -0.1630   -2.1700    5.7800 c2        1 PBI     -0.133700
     15 CD2         0.5350    0.1360    6.4000 c2        1 PBI     -0.133700
     16 CE1        -0.5220   -2.4060    7.0470 ce        1 PBI     -0.208200
     17 CE2         0.1790   -0.0940    7.6680 ce        1 PBI     -0.208200
     18 CZ         -0.4010   -1.3800    8.1010 c         1 PBI      0.546500
     19 OH         -0.7560   -1.5860    9.2660 o         1 PBI     -0.492100
     20 HN11        0.2730   -0.8330   -1.3770 hn        1 PBI      0.475133
     21 HN12       -0.1130   -1.0600    0.2350 hn        1 PBI      0.475133
     22 HA11        0.7960    1.1860   -0.1730 hx        1 PBI      0.130200
     23 HA12        2.3110    0.3530   -0.8170 hx        1 PBI      0.130200
     24 HA2         1.8570    1.0720    4.1470 h1        1 PBI      0.137700
     25 HA31        5.3830   -0.1480    1.4030 h1        1 PBI      0.112200
     26 HA32        4.5510    0.8200    0.0930 h1        1 PBI      0.112200
     27 HC3         5.4140   -1.6850   -0.4560 h4        1 PBI      0.058200
     28 HB21        2.5170   -1.1510    5.2650 hc        1 PBI      0.075200
     29 HB22        1.6130   -2.0290    3.9630 hc        1 PBI      0.075200
     30 HG2        -0.4180   -0.4340    4.5900 hc        1 PBI      0.084700
     31 HD1        -0.2580   -2.9510    5.0080 ha        1 PBI      0.127000
     32 HD2         0.9690    1.1040    6.1020 ha        1 PBI      0.127000
     33 HE1        -0.9260   -3.3790    7.3710 ha        1 PBI      0.163500
     34 HE2         0.3020    0.6650    8.4590 ha        1 PBI      0.163500
     35 H13         1.2660   -1.7700   -0.4060 hn        1 PBI      0.475133
@<TRIPOS>BOND
     1    1    2 1   
     2    1   20 1   
     3    1   21 1   
     4    1   35 1   
     5    2    3 1   
     6    2   22 1   
     7    2   23 1   
     8    3    4 2   
     9    3    5 1   
    10    4    8 1   
    11    5    6 1   
    12    5    9 1   
    13    6    7 2   
    14    6    8 1   
    15    8   12 1   
    16    8   24 1   
    17    9   10 1   
    18    9   25 1   
    19    9   26 1   
    20   10   11 2   
    21   10   27 1   
    22   12   13 1   
    23   12   28 1   
    24   12   29 1   
    25   13   14 1   
    26   13   15 1   
    27   13   30 1   
    28   14   16 2   
    29   14   31 1   
    30   15   17 2   
    31   15   32 1   
    32   16   18 1   
    33   16   33 1   
    34   17   18 1   
    35   17   34 1   
    36   18   19 2   
@<TRIPOS>SUBSTRUCTURE
     1 PBI         1 TEMP              0 ****  ****    0 ROOT
