@<TRIPOS>MOLECULE
PBI
   34    35     1     0     0
SMALL
bcc


@<TRIPOS>ATOM
      1 N1          3.2890   -0.4220    2.8650 n3        1 PBI     -0.894800
      2 CA1         1.9660   -0.0660    3.2720 c3        1 PBI      0.142500
      3 C1          0.9750    0.2660    2.1650 c2        1 PBI      0.405900
      4 N2          1.2650    0.3440    0.8810 n2        1 PBI     -0.630900
      5 N3         -0.3900    0.5520    2.4720 n         1 PBI     -0.442300
      6 C2         -1.0580    0.8350    1.2530 c         1 PBI      0.667500
      7 O2         -2.2490    1.1240    1.1390 o         1 PBI     -0.573500
      8 CA2         0.0390    0.7240    0.1540 c3        1 PBI      0.033500
      9 CA3        -0.9940    0.4890    3.7620 c3        1 PBI     -0.015000
     10 C3         -1.4550   -0.8940    4.1960 c         1 PBI      0.542900
     11 O3         -1.4720   -1.2070    5.3850 o         1 PBI     -0.508100
     12 CB2        -0.4020   -0.2530   -0.9290 c3        1 PBI     -0.047400
     13 CG2         0.5210   -0.2200   -2.1440 c3        1 PBI     -0.028300
     14 CD1         0.4070   -1.4950   -2.9090 c2        1 PBI     -0.108200
     15 CD2         0.2600    0.9840   -2.9840 c2        1 PBI     -0.108200
     16 CE1         0.1900   -1.5520   -4.2280 ce        1 PBI     -0.237200
     17 CE2         0.0400    0.9340   -4.3030 ce        1 PBI     -0.237200
     18 CZ          0.0060   -0.3390   -5.0450 c         1 PBI      0.556500
     19 OH         -0.1680   -0.3870   -6.2690 o         1 PBI     -0.526100
     20 HN11        3.7430    0.3240    2.3750 hn        1 PBI      0.367800
     21 HN12        3.2950   -1.2440    2.2940 hn        1 PBI      0.367800
     22 HA11        1.5320   -0.9200    3.8700 h1        1 PBI      0.077700
     23 HA12        2.0290    0.8410    3.9430 h1        1 PBI      0.077700
     24 HA2         0.1960    1.7480   -0.2910 h1        1 PBI      0.107700
     25 HA31       -0.2740    0.8960    4.5310 h1        1 PBI      0.093200
     26 HA32       -1.9150    1.1480    3.7510 h1        1 PBI      0.093200
     27 HC3        -1.8000   -1.5820    3.3940 h4        1 PBI      0.014200
     28 HB21       -0.4330   -1.2950   -0.5140 hc        1 PBI      0.067700
     29 HB22       -1.4470    0.0240   -1.2350 hc        1 PBI      0.067700
     30 HG2         1.5940   -0.1500   -1.7840 hc        1 PBI      0.101700
     31 HD1         0.5380   -2.4140   -2.3130 ha        1 PBI      0.131500
     32 HD2         0.2730    1.9470   -2.4480 ha        1 PBI      0.131500
     33 HE1         0.1340   -2.5090   -4.7720 ha        1 PBI      0.153000
     34 HE2        -0.1310    1.8430   -4.9030 ha        1 PBI      0.153000
@<TRIPOS>BOND
     1    1    2 1   
     2    1   20 1   
     3    1   21 1   
     4    2    3 1   
     5    2   22 1   
     6    2   23 1   
     7    3    4 2   
     8    3    5 1   
     9    4    8 1   
    10    5    6 1   
    11    5    9 1   
    12    6    7 2   
    13    6    8 1   
    14    8   12 1   
    15    8   24 1   
    16    9   10 1   
    17    9   25 1   
    18    9   26 1   
    19   10   11 2   
    20   10   27 1   
    21   12   13 1   
    22   12   28 1   
    23   12   29 1   
    24   13   14 1   
    25   13   15 1   
    26   13   30 1   
    27   14   16 2   
    28   14   31 1   
    29   15   17 2   
    30   15   32 1   
    31   16   18 1   
    32   16   33 1   
    33   17   18 1   
    34   17   34 1   
    35   18   19 2   
@<TRIPOS>SUBSTRUCTURE
     1 PBI         1 TEMP              0 ****  ****    0 ROOT
