@<TRIPOS>MOLECULE
PBK
   71    73     1     0     0
SMALL
bcc


@<TRIPOS>ATOM
      1 P          -1.2430    0.2290   -1.5770 p5        1 PBK      1.456800
      2 C1         12.6410    6.0630    4.6470 c3        1 PBK     -0.092100
      3 N1         -1.5140   -4.7150   -0.1530 na        1 PBK     -0.280000
      4 O1          0.1980    1.5060    0.1360 o         1 PBK     -0.588000
      5 C2         11.1380    6.1050    4.5400 c3        1 PBK     -0.080400
      6 N2         -0.1370   -3.9090    1.5150 nc        1 PBK     -0.573100
      7 O2          0.4480    0.2140   -1.5830 os        1 PBK     -0.545500
      8 C3         10.6170    5.0340    3.6060 c3        1 PBK     -0.079400
      9 N3         -0.8500   -7.1480    0.0010 nb        1 PBK     -0.722000
     10 O3         -1.6700   -0.6480   -0.4660 o         1 PBK     -0.810500
     11 C4          9.1080    5.0800    3.5010 c3        1 PBK     -0.079400
     12 N4          0.8400   -7.5520    1.7450 nb        1 PBK     -0.798000
     13 O4         -1.7490    1.5320   -2.0110 o         1 PBK     -0.810500
     14 C5          8.5880    4.0090    2.5660 c3        1 PBK     -0.078400
     15 N5          1.6210   -5.8040    3.1930 nv        1 PBK     -0.940500
     16 O5         -1.3460   -0.7710   -2.8930 os        1 PBK     -0.571200
     17 C6          7.0790    4.0560    2.4610 c3        1 PBK     -0.079400
     18 O6         -1.7460   -4.3660   -2.4970 os        1 PBK     -0.419600
     19 C7          6.5580    2.9850    1.5260 c3        1 PBK     -0.078400
     20 O7         -4.8240   -4.5250   -1.4030 oh        1 PBK     -0.586800
     21 C8          5.0490    3.0320    1.4220 c3        1 PBK     -0.079400
     22 O8         -4.4990   -2.4780   -2.9380 oh        1 PBK     -0.616800
     23 C9          4.5290    1.9640    0.4850 c3        1 PBK     -0.078400
     24 C10         3.0190    2.0120    0.3860 c3        1 PBK     -0.079400
     25 C11         2.5030    0.9510   -0.5610 c3        1 PBK     -0.128400
     26 C12         1.0100    0.9380   -0.6130 c         1 PBK      0.675100
     27 C13        -0.9400   -2.0900   -2.7150 c3        1 PBK      0.185400
     28 C14        -2.1290   -3.0440   -2.9070 c3        1 PBK      0.076100
     29 C15        -3.3720   -2.6340   -2.0930 c3        1 PBK      0.069100
     30 C16        -3.6510   -3.7990   -1.1240 c3        1 PBK      0.127100
     31 C17        -2.4120   -4.7420   -1.2850 c3        1 PBK      0.214800
     32 C18        -1.0430   -3.5910    0.5800 cd        1 PBK      0.438700
     33 C19         0.0400   -5.2980    1.4070 ca        1 PBK     -0.212200
     34 C20        -0.8120   -5.8250    0.3440 ca        1 PBK      0.449800
     35 C21        -0.0080   -7.9040    0.7400 ca        1 PBK      0.658900
     36 C22         0.8620   -6.2300    2.1140 ca        1 PBK      0.719200
     37 H1         13.1120    6.2230    3.6480 hc        1 PBK      0.030700
     38 H1A        13.0040    6.8600    5.3400 hc        1 PBK      0.030700
     39 H1B        12.9800    5.0740    5.0390 hc        1 PBK      0.030700
     40 H2         10.6840    5.9670    5.5560 hc        1 PBK      0.038200
     41 H2A        10.8150    7.1140    4.1690 hc        1 PBK      0.038200
     42 H3         11.0690    5.1710    2.5880 hc        1 PBK      0.038700
     43 H3A        10.9380    4.0240    3.9760 hc        1 PBK      0.038700
     44 H4          8.6560    4.9430    4.5180 hc        1 PBK      0.039200
     45 H4A         8.7870    6.0900    3.1310 hc        1 PBK      0.039200
     46 H5          8.9080    2.9990    2.9360 hc        1 PBK      0.038200
     47 H5A         9.0400    4.1460    1.5480 hc        1 PBK      0.038200
     48 HN5         1.7800   -4.8240    3.2480 hn        1 PBK      0.422800
     49 HN5A        2.3560   -6.3930    3.5040 hn        1 PBK      0.422800
     50 H6          6.7580    5.0660    2.0920 hc        1 PBK      0.039700
     51 H6A         6.6260    3.9180    3.4790 hc        1 PBK      0.039700
     52 H7          6.8790    1.9750    1.8950 hc        1 PBK      0.037200
     53 H7A         7.0100    3.1230    0.5080 hc        1 PBK      0.037200
     54 HO7        -4.9460   -4.5410   -2.3610 ho        1 PBK      0.419000
     55 H8          4.5970    2.8920    2.4390 hc        1 PBK      0.041700
     56 H8A         4.7280    4.0430    1.0540 hc        1 PBK      0.041700
     57 HO8        -4.3790   -1.6300   -3.3850 ho        1 PBK      0.425000
     58 H9          4.9780    2.1040   -0.5330 hc        1 PBK      0.035700
     59 H9A         4.8500    0.9530    0.8510 hc        1 PBK      0.035700
     60 H10         2.5610    1.8610    1.3990 hc        1 PBK      0.057200
     61 H10A        2.6910    3.0230    0.0280 hc        1 PBK      0.057200
     62 H11         2.8420   -0.0680   -0.2340 hc        1 PBK      0.069200
     63 H11A        2.8950    1.1210   -1.5980 hc        1 PBK      0.069200
     64 H13        -0.4960   -2.2380   -1.6910 h1        1 PBK      0.037700
     65 H13A       -0.1660   -2.3360   -3.4950 h1        1 PBK      0.037700
     66 H14        -2.3820   -3.1320   -3.9980 h1        1 PBK      0.069700
     67 H15        -3.1620   -1.6850   -1.5150 h1        1 PBK      0.128700
     68 H16        -3.7780   -3.4290   -0.0710 h1        1 PBK      0.106700
     69 H17        -2.7380   -5.8130   -1.4480 h2        1 PBK      0.112700
     70 H18        -1.4150   -2.5590    0.3740 h5        1 PBK      0.156800
     71 H21         0.0020   -8.9860    0.4870 h5        1 PBK      0.037100
@<TRIPOS>BOND
     1    1    7 1   
     2    1   10 1   
     3    1   13 1   
     4    1   16 1   
     5    2    5 1   
     6    2   37 1   
     7    2   38 1   
     8    2   39 1   
     9    3   31 1   
    10    3   32 1   
    11    3   34 1   
    12    4   26 2   
    13    5    8 1   
    14    5   40 1   
    15    5   41 1   
    16    6   32 2   
    17    6   33 1   
    18    7   26 1   
    19    8   11 1   
    20    8   42 1   
    21    8   43 1   
    22    9   34 ar  
    23    9   35 ar  
    24   11   14 1   
    25   11   44 1   
    26   11   45 1   
    27   12   35 ar  
    28   12   36 ar  
    29   14   17 1   
    30   14   46 1   
    31   14   47 1   
    32   15   36 1   
    33   15   48 1   
    34   15   49 1   
    35   16   27 1   
    36   17   19 1   
    37   17   50 1   
    38   17   51 1   
    39   18   28 1   
    40   18   31 1   
    41   19   21 1   
    42   19   52 1   
    43   19   53 1   
    44   20   30 1   
    45   20   54 1   
    46   21   23 1   
    47   21   55 1   
    48   21   56 1   
    49   22   29 1   
    50   22   57 1   
    51   23   24 1   
    52   23   58 1   
    53   23   59 1   
    54   24   25 1   
    55   24   60 1   
    56   24   61 1   
    57   25   26 1   
    58   25   62 1   
    59   25   63 1   
    60   27   28 1   
    61   27   64 1   
    62   27   65 1   
    63   28   29 1   
    64   28   66 1   
    65   29   30 1   
    66   29   67 1   
    67   30   31 1   
    68   30   68 1   
    69   31   69 1   
    70   32   70 1   
    71   33   34 ar  
    72   33   36 ar  
    73   35   71 1   
@<TRIPOS>SUBSTRUCTURE
     1 PBK         1 TEMP              0 ****  ****    0 ROOT
