@<TRIPOS>MOLECULE
PBK
   71    73     1     0     0
SMALL
bcc


@<TRIPOS>ATOM
      1 P          -1.2320    0.2000   -1.5870 p5        1 PBK      1.456800
      2 C1         12.6190    6.1230    4.6240 c3        1 PBK     -0.092100
      3 N1         -1.5080   -4.7350   -0.1340 na        1 PBK     -0.280000
      4 O1          0.1990    1.4890    0.1240 o         1 PBK     -0.588000
      5 C2         11.1170    6.1650    4.5070 c3        1 PBK     -0.080400
      6 N2         -0.1370   -3.9180    1.5350 nc        1 PBK     -0.573100
      7 O2          0.4590    0.1860   -1.5850 os        1 PBK     -0.545500
      8 C3         10.6010    5.0780    3.5880 c3        1 PBK     -0.079400
      9 N3         -0.8440   -7.1670    0.0390 nb        1 PBK     -0.722000
     10 O3         -1.6630   -0.6710   -0.4730 o         1 PBK     -0.810500
     11 C4          9.0920    5.1240    3.4740 c3        1 PBK     -0.079400
     12 N4          0.8390   -7.5600    1.7920 nb        1 PBK     -0.798000
     13 O4         -1.7370    1.4990   -2.0330 o         1 PBK     -0.810500
     14 C5          8.5760    4.0370    2.5550 c3        1 PBK     -0.078400
     15 N5          1.6150   -5.8020    3.2320 nh        1 PBK     -0.940500
     16 O5         -1.3280   -0.8080   -2.8980 os        1 PBK     -0.571200
     17 C6          7.0680    4.0830    2.4410 c3        1 PBK     -0.079400
     18 O6         -1.7290   -4.4010   -2.4800 os        1 PBK     -0.419600
     19 C7          6.5520    2.9970    1.5210 c3        1 PBK     -0.078400
     20 O7         -4.8120   -4.5530   -1.3980 oh        1 PBK     -0.586800
     21 C8          5.0440    3.0430    1.4070 c3        1 PBK     -0.079400
     22 O8         -4.4800   -2.5170   -2.9460 oh        1 PBK     -0.616800
     23 C9          4.5280    1.9600    0.4850 c3        1 PBK     -0.078400
     24 C10         3.0190    2.0070    0.3760 c3        1 PBK     -0.079400
     25 C11         2.5080    0.9320   -0.5570 c3        1 PBK     -0.128400
     26 C12         1.0150    0.9180   -0.6170 c         1 PBK      0.675100
     27 C13        -0.9220   -2.1260   -2.7090 c3        1 PBK      0.185400
     28 C14        -2.1110   -3.0810   -2.9000 c3        1 PBK      0.076100
     29 C15        -3.3570   -2.6670   -2.0950 c3        1 PBK      0.069100
     30 C16        -3.6400   -3.8250   -1.1190 c3        1 PBK      0.127100
     31 C17        -2.4000   -4.7700   -1.2690 c3        1 PBK      0.214800
     32 C18        -1.0400   -3.6060    0.5940 cd        1 PBK      0.438700
     33 C19         0.0400   -5.3080    1.4370 ca        1 PBK     -0.212200
     34 C20        -0.8070   -5.8410    0.3740 ca        1 PBK      0.449800
     35 C21        -0.0040   -7.9180    0.7860 ca        1 PBK      0.658900
     36 C22         0.8600   -6.2350    2.1520 ca        1 PBK      0.719200
     37 H1         13.0970    6.2650    3.6250 hc        1 PBK      0.030700
     38 H1A        12.9550    5.1400    5.0360 hc        1 PBK      0.030700
     39 H1B        12.9790    6.9310    5.3050 hc        1 PBK      0.030700
     40 H2         10.7980    7.1670    4.1160 hc        1 PBK      0.038200
     41 H2A        10.6560    6.0450    5.5230 hc        1 PBK      0.038200
     42 H3         10.9180    4.0750    3.9780 hc        1 PBK      0.038700
     43 H3A        11.0590    5.1970    2.5710 hc        1 PBK      0.038700
     44 H4          8.7750    6.1270    3.0850 hc        1 PBK      0.039200
     45 H4A         8.6340    5.0050    4.4910 hc        1 PBK      0.039200
     46 H5          8.8940    3.0340    2.9440 hc        1 PBK      0.038200
     47 H5A         9.0340    4.1570    1.5380 hc        1 PBK      0.038200
     48 HN5         1.7740   -4.8220    3.2810 hn        1 PBK      0.422800
     49 HN5A        2.3490   -6.3890    3.5490 hn        1 PBK      0.422800
     50 H6          6.6100    3.9620    3.4580 hc        1 PBK      0.039700
     51 H6A         6.7500    5.0870    2.0530 hc        1 PBK      0.039700
     52 H7          6.8700    1.9940    1.9090 hc        1 PBK      0.037200
     53 H7A         7.0100    3.1180    0.5040 hc        1 PBK      0.037200
     54 HO7        -4.9300   -4.5760   -2.3570 ho        1 PBK      0.419000
     55 H8          4.5850    2.9200    2.4240 hc        1 PBK      0.041700
     56 H8A         4.7250    4.0480    1.0210 hc        1 PBK      0.041700
     57 HO8        -4.3590   -1.6720   -3.3980 ho        1 PBK      0.425000
     58 H9          4.9840    2.0830   -0.5330 hc        1 PBK      0.035700
     59 H9A         4.8470    0.9550    0.8700 hc        1 PBK      0.035700
     60 H10         2.5540    1.8720    1.3880 hc        1 PBK      0.057200
     61 H10A        2.6940    3.0130    0.0000 hc        1 PBK      0.057200
     62 H11         2.8460   -0.0820   -0.2130 hc        1 PBK      0.069200
     63 H11A        2.9060    1.0860   -1.5950 hc        1 PBK      0.069200
     64 H13        -0.4830   -2.2680   -1.6820 h1        1 PBK      0.037700
     65 H13A       -0.1440   -2.3770   -3.4840 h1        1 PBK      0.037700
     66 H14        -2.3580   -3.1770   -3.9920 h1        1 PBK      0.069700
     67 H15        -3.1500   -1.7140   -1.5220 h1        1 PBK      0.128700
     68 H16        -3.7710   -3.4480   -0.0690 h1        1 PBK      0.106700
     69 H17        -2.7250   -5.8420   -1.4260 h2        1 PBK      0.112700
     70 H18        -1.4110   -2.5760    0.3800 h5        1 PBK      0.156800
     71 H21         0.0070   -9.0010    0.5400 h5        1 PBK      0.037100
@<TRIPOS>BOND
     1    1    7 1   
     2    1   10 1   
     3    1   13 1   
     4    1   16 1   
     5    2    5 1   
     6    2   37 1   
     7    2   38 1   
     8    2   39 1   
     9    3   31 1   
    10    3   32 1   
    11    3   34 1   
    12    4   26 2   
    13    5    8 1   
    14    5   40 1   
    15    5   41 1   
    16    6   32 2   
    17    6   33 1   
    18    7   26 1   
    19    8   11 1   
    20    8   42 1   
    21    8   43 1   
    22    9   34 ar  
    23    9   35 ar  
    24   11   14 1   
    25   11   44 1   
    26   11   45 1   
    27   12   35 ar  
    28   12   36 ar  
    29   14   17 1   
    30   14   46 1   
    31   14   47 1   
    32   15   36 1   
    33   15   48 1   
    34   15   49 1   
    35   16   27 1   
    36   17   19 1   
    37   17   50 1   
    38   17   51 1   
    39   18   28 1   
    40   18   31 1   
    41   19   21 1   
    42   19   52 1   
    43   19   53 1   
    44   20   30 1   
    45   20   54 1   
    46   21   23 1   
    47   21   55 1   
    48   21   56 1   
    49   22   29 1   
    50   22   57 1   
    51   23   24 1   
    52   23   58 1   
    53   23   59 1   
    54   24   25 1   
    55   24   60 1   
    56   24   61 1   
    57   25   26 1   
    58   25   62 1   
    59   25   63 1   
    60   27   28 1   
    61   27   64 1   
    62   27   65 1   
    63   28   29 1   
    64   28   66 1   
    65   29   30 1   
    66   29   67 1   
    67   30   31 1   
    68   30   68 1   
    69   31   69 1   
    70   32   70 1   
    71   33   34 ar  
    72   33   36 ar  
    73   35   71 1   
@<TRIPOS>SUBSTRUCTURE
     1 PBK         1 TEMP              0 ****  ****    0 ROOT
