@<TRIPOS>MOLECULE
PBK
   72    74     1     0     0
SMALL
bcc


@<TRIPOS>ATOM
      1 P           0.7810   -2.6520    2.2120 p5        1 PBK      1.651500
      2 C1         11.7380    9.3870    2.2380 c3        1 PBK     -0.092100
      3 N1         -2.1850   -6.3040   -2.0180 na        1 PBK     -0.285000
      4 O1          1.9120   -0.6190    3.2080 o         1 PBK     -0.552000
      5 C2         10.6390    8.6290    2.9370 c3        1 PBK     -0.080400
      6 N2         -3.4630   -8.1670   -1.5220 nc        1 PBK     -0.540100
      7 O2          2.0560   -1.9160    1.5080 os        1 PBK     -0.573500
      8 C3         10.1170    7.4930    2.0820 c3        1 PBK     -0.079400
      9 N3         -3.4310   -4.6430   -0.5850 nb        1 PBK     -0.762000
     10 O3          1.4230   -3.3150    3.5030 oh        1 PBK     -0.741400
     11 C4          9.0130    6.7350    2.7880 c3        1 PBK     -0.079400
     12 N4         -5.3510   -5.6490    0.5780 nb        1 PBK     -0.793000
     13 O4         -0.4800   -1.9400    2.2210 o         1 PBK     -0.778300
     14 C5          8.4920    5.6000    1.9320 c3        1 PBK     -0.078400
     15 N5         -5.9120   -7.9590    0.3370 nh        1 PBK     -0.958500
     16 O5          0.7780   -3.9900    1.3260 os        1 PBK     -0.599200
     17 C6          7.3880    4.8420    2.6380 c3        1 PBK     -0.079400
     18 O6          0.0180   -5.5310   -1.5600 os        1 PBK     -0.413600
     19 C7          6.8680    3.7070    1.7830 c3        1 PBK     -0.079400
     20 O7         -0.8290   -3.8540   -4.2240 oh        1 PBK     -0.585800
     21 C8          5.7640    2.9500    2.4890 c3        1 PBK     -0.079400
     22 O8          0.2790   -2.3620   -2.4640 oh        1 PBK     -0.597800
     23 C9          5.2450    1.8140    1.6330 c3        1 PBK     -0.078400
     24 C10         4.1410    1.0610    2.3440 c3        1 PBK     -0.082400
     25 C11         3.6300   -0.0760    1.4840 c3        1 PBK     -0.119400
     26 C12         2.5230   -0.8090    2.1500 c         1 PBK      0.690100
     27 C13        -0.3150   -4.2530    0.4740 c3        1 PBK      0.158400
     28 C14         0.1530   -4.2220   -0.9860 c3        1 PBK      0.114100
     29 C15        -0.6540   -3.2430   -1.8610 c3        1 PBK      0.082100
     30 C16        -1.3470   -4.1060   -2.9390 c3        1 PBK      0.090100
     31 C17        -1.0460   -5.5800   -2.5200 c3        1 PBK      0.220800
     32 C18        -2.4020   -7.7000   -2.1900 cd        1 PBK      0.417700
     33 C19        -3.9820   -7.0570   -0.8360 ca        1 PBK     -0.236200
     34 C20        -3.1770   -5.8740   -1.1190 ca        1 PBK      0.462800
     35 C21        -4.5130   -4.6390    0.2310 ca        1 PBK      0.694900
     36 C22        -5.1040   -6.8950    0.0440 ca        1 PBK      0.767200
     37 H1         12.1080   10.2180    2.8850 hc        1 PBK      0.032700
     38 H1A        12.5970    8.7110    2.0060 hc        1 PBK      0.032700
     39 H1B        11.3680    9.8240    1.2790 hc        1 PBK      0.032700
     40 H2          9.7960    9.3280    3.1830 hc        1 PBK      0.038700
     41 H2A        11.0220    8.2190    3.9090 hc        1 PBK      0.038700
     42 H3          9.7320    7.9010    1.1110 hc        1 PBK      0.039700
     43 H3A        10.9570    6.7920    1.8360 hc        1 PBK      0.039700
     44 H4          8.1720    7.4370    3.0340 hc        1 PBK      0.039700
     45 H4A         9.3980    6.3280    3.7590 hc        1 PBK      0.039700
     46 H5          8.1070    6.0080    0.9610 hc        1 PBK      0.039700
     47 H5A         9.3330    4.8990    1.6860 hc        1 PBK      0.039700
     48 HN5        -5.6920   -8.8460   -0.0400 hn        1 PBK      0.451300
     49 HN5A        1.8090   -4.1830    3.3870 ho        1 PBK      0.489000
     50 H6          6.5480    5.5440    2.8840 hc        1 PBK      0.040700
     51 H6A         7.7740    4.4350    3.6100 hc        1 PBK      0.040700
     52 H7          7.7080    3.0060    1.5370 hc        1 PBK      0.039700
     53 H7A         6.4830    4.1140    0.8110 hc        1 PBK      0.039700
     54 HO7         0.1380   -3.8590   -4.1610 ho        1 PBK      0.419000
     55 H8          4.9240    3.6510    2.7350 hc        1 PBK      0.044200
     56 H8A         6.1500    2.5420    3.4610 hc        1 PBK      0.044200
     57 HO8        -0.2310   -1.7540   -3.0170 ho        1 PBK      0.420000
     58 H9          4.8590    2.2220    0.6620 hc        1 PBK      0.041200
     59 H9A         6.0850    1.1120    1.3890 hc        1 PBK      0.041200
     60 H10         4.5200    0.6540    3.3180 hc        1 PBK      0.061200
     61 H10A        3.2950    1.7570    2.5880 hc        1 PBK      0.061200
     62 H11         3.2460    0.3120    0.5010 hc        1 PBK      0.088700
     63 H11A        4.4540   -0.8060    1.2570 hc        1 PBK      0.088700
     64 H13        -1.1320   -3.5050    0.6720 h1        1 PBK      0.081200
     65 H13A       -0.6770   -5.2930    0.7170 h1        1 PBK      0.081200
     66 H14         1.2560   -3.9950   -1.0390 h1        1 PBK      0.109700
     67 H15        -1.4100   -2.6650   -1.2660 h1        1 PBK      0.091700
     68 H16        -2.4450   -3.8870   -3.0220 h1        1 PBK      0.121700
     69 H17        -0.6280   -6.1710   -3.3900 h2        1 PBK      0.100700
     70 H18        -1.7440   -8.2950   -2.8340 h5        1 PBK      0.075800
     71 H21        -4.7530   -3.6560    0.6950 h5        1 PBK      0.058100
     72 H53        -6.6750   -7.8600    0.9580 hn        1 PBK      0.451300
@<TRIPOS>BOND
     1    1    7 1   
     2    1   10 1   
     3    1   13 2   
     4    1   16 1   
     5    2    5 1   
     6    2   37 1   
     7    2   38 1   
     8    2   39 1   
     9    3   31 1   
    10    3   32 1   
    11    3   34 1   
    12    4   26 2   
    13    5    8 1   
    14    5   40 1   
    15    5   41 1   
    16    6   32 2   
    17    6   33 1   
    18    7   26 1   
    19    8   11 1   
    20    8   42 1   
    21    8   43 1   
    22    9   34 ar  
    23    9   35 ar  
    24   10   49 1   
    25   11   14 1   
    26   11   44 1   
    27   11   45 1   
    28   12   35 ar  
    29   12   36 ar  
    30   14   17 1   
    31   14   46 1   
    32   14   47 1   
    33   15   36 1   
    34   15   48 1   
    35   15   72 1   
    36   16   27 1   
    37   17   19 1   
    38   17   50 1   
    39   17   51 1   
    40   18   28 1   
    41   18   31 1   
    42   19   21 1   
    43   19   52 1   
    44   19   53 1   
    45   20   30 1   
    46   20   54 1   
    47   21   23 1   
    48   21   55 1   
    49   21   56 1   
    50   22   29 1   
    51   22   57 1   
    52   23   24 1   
    53   23   58 1   
    54   23   59 1   
    55   24   25 1   
    56   24   60 1   
    57   24   61 1   
    58   25   26 1   
    59   25   62 1   
    60   25   63 1   
    61   27   28 1   
    62   27   64 1   
    63   27   65 1   
    64   28   29 1   
    65   28   66 1   
    66   29   30 1   
    67   29   67 1   
    68   30   31 1   
    69   30   68 1   
    70   31   69 1   
    71   32   70 1   
    72   33   34 ar  
    73   33   36 ar  
    74   35   71 1   
@<TRIPOS>SUBSTRUCTURE
     1 PBK         1 TEMP              0 ****  ****    0 ROOT
