@<TRIPOS>MOLECULE
PBK
   71    73     1     0     0
SMALL
bcc


@<TRIPOS>ATOM
      1 P           0.9350    3.4230    0.1150 p5        1 PBK      1.456800
      2 C1        -13.8070   -3.5260   -0.0480 c3        1 PBK     -0.092100
      3 N1          4.2820   -0.4830   -0.1700 na        1 PBK     -0.280000
      4 O1         -1.2940    2.6800   -0.9430 o         1 PBK     -0.588000
      5 C2        -12.7780   -2.6320   -0.6900 c3        1 PBK     -0.080400
      6 N2          2.4330   -1.4900   -1.1190 nc        1 PBK     -0.573100
      7 O2         -0.2130    2.4800    0.9220 os        1 PBK     -0.545500
      8 C3        -11.5140   -2.5530    0.1400 c3        1 PBK     -0.079400
      9 N3          5.4930   -2.5870    0.5340 nb        1 PBK     -0.722000
     10 O3          1.6140    2.5300   -0.8480 o         1 PBK     -0.810500
     11 C4        -10.4840   -1.6540   -0.5090 c3        1 PBK     -0.079400
     12 N4          4.2580   -4.6290   -0.0720 nb        1 PBK     -0.798000
     13 O4          0.4610    4.8000   -0.0320 o         1 PBK     -0.810500
     14 C5         -9.2200   -1.5750    0.3210 c3        1 PBK     -0.078400
     15 N5          2.2060   -4.5570   -1.3150 nh        1 PBK     -0.940500
     16 O5          1.9720    3.4250    1.4060 os        1 PBK     -0.571200
     17 C6         -8.1900   -0.6760   -0.3290 c3        1 PBK     -0.079400
     18 O6          4.6760    1.0010    1.6490 os        1 PBK     -0.419600
     19 C7         -6.9270   -0.5980    0.5010 c3        1 PBK     -0.078400
     20 O7          6.6760    2.0730   -0.7070 oh        1 PBK     -0.586800
     21 C8         -5.8970    0.3010   -0.1490 c3        1 PBK     -0.079400
     22 O8          5.3370    4.0240    0.3210 oh        1 PBK     -0.616800
     23 C9         -4.6330    0.3800    0.6810 c3        1 PBK     -0.078400
     24 C10        -3.6060    1.2780    0.0270 c3        1 PBK     -0.079400
     25 C11        -2.3470    1.3610    0.8610 c3        1 PBK     -0.128400
     26 C12        -1.3020    2.2000    0.2020 c         1 PBK      0.675100
     27 C13         2.5780    2.2140    1.7280 c3        1 PBK      0.185400
     28 C14         4.0990    2.3120    1.5350 c3        1 PBK      0.076100
     29 C15         4.5010    2.8900    0.1640 c3        1 PBK      0.069100
     30 C16         5.3070    1.7880   -0.5460 c3        1 PBK      0.127100
     31 C17         5.1480    0.5340    0.3790 c3        1 PBK      0.214800
     32 C18         3.0240   -0.3250   -0.8160 cd        1 PBK      0.438700
     33 C19         3.3030   -2.4850   -0.6440 ca        1 PBK     -0.212200
     34 C20         4.4730   -1.8670   -0.0250 ca        1 PBK      0.449800
     35 C21         5.2910   -3.9210    0.4630 ca        1 PBK      0.658900
     36 C22         3.2440   -3.9130   -0.6600 ca        1 PBK      0.719200
     37 H1        -13.4100   -4.5630    0.0690 hc        1 PBK      0.030700
     38 H1A       -14.0860   -3.1430    0.9640 hc        1 PBK      0.030700
     39 H1B       -14.7300   -3.5700   -0.6750 hc        1 PBK      0.030700
     40 H2        -12.5290   -3.0180   -1.7140 hc        1 PBK      0.038200
     41 H2A       -13.2030   -1.6020   -0.8210 hc        1 PBK      0.038200
     42 H3        -11.7610   -2.1650    1.1630 hc        1 PBK      0.038700
     43 H3A       -11.0860   -3.5820    0.2710 hc        1 PBK      0.038700
     44 H4        -10.2380   -2.0420   -1.5330 hc        1 PBK      0.039200
     45 H4A       -10.9120   -0.6250   -0.6410 hc        1 PBK      0.039200
     46 H5         -9.4660   -1.1870    1.3440 hc        1 PBK      0.038200
     47 H5A        -8.7920   -2.6040    0.4520 hc        1 PBK      0.038200
     48 HN5         2.0490   -5.5140   -1.1070 hn        1 PBK      0.422800
     49 HN5A        1.4020   -4.0020   -1.4980 hn        1 PBK      0.422800
     50 H6         -7.9440   -1.0640   -1.3520 hc        1 PBK      0.039700
     51 H6A        -8.6180    0.3520   -0.4600 hc        1 PBK      0.039700
     52 H7         -7.1730   -0.2100    1.5250 hc        1 PBK      0.037200
     53 H7A        -6.4990   -1.6270    0.6320 hc        1 PBK      0.037200
     54 HO7         6.9670    2.5860    0.0590 ho        1 PBK      0.419000
     55 H8         -5.6500   -0.0870   -1.1720 hc        1 PBK      0.041700
     56 H8A        -6.3240    1.3300   -0.2800 hc        1 PBK      0.041700
     57 HO8         4.7550    4.7500    0.5790 ho        1 PBK      0.425000
     58 H9         -4.8790    0.7690    1.7040 hc        1 PBK      0.035700
     59 H9A        -4.2060   -0.6490    0.8130 hc        1 PBK      0.035700
     60 H10        -3.3490    0.8910   -0.9950 hc        1 PBK      0.057200
     61 H10A       -4.0290    2.3070   -0.1130 hc        1 PBK      0.057200
     62 H11        -2.5690    1.7970    1.8710 hc        1 PBK      0.069200
     63 H11A       -1.9140    0.3380    1.0240 hc        1 PBK      0.069200
     64 H13         2.3780    1.9900    2.8130 h1        1 PBK      0.037700
     65 H13A        2.1680    1.3790    1.0950 h1        1 PBK      0.037700
     66 H14         4.5570    2.9110    2.3680 h1        1 PBK      0.069700
     67 H15         3.5760    3.1470   -0.4340 h1        1 PBK      0.128700
     68 H16         4.9200    1.6080   -1.5850 h1        1 PBK      0.106700
     69 H17         6.1530    0.0600    0.5940 h2        1 PBK      0.112700
     70 H18         2.6020    0.6840   -1.0360 h5        1 PBK      0.156800
     71 H21         6.0900   -4.5450    0.9160 h5        1 PBK      0.037100
@<TRIPOS>BOND
     1    1    7 1   
     2    1   10 1   
     3    1   13 1   
     4    1   16 1   
     5    2    5 1   
     6    2   37 1   
     7    2   38 1   
     8    2   39 1   
     9    3   31 1   
    10    3   32 1   
    11    3   34 1   
    12    4   26 2   
    13    5    8 1   
    14    5   40 1   
    15    5   41 1   
    16    6   32 2   
    17    6   33 1   
    18    7   26 1   
    19    8   11 1   
    20    8   42 1   
    21    8   43 1   
    22    9   34 ar  
    23    9   35 ar  
    24   11   14 1   
    25   11   44 1   
    26   11   45 1   
    27   12   35 ar  
    28   12   36 ar  
    29   14   17 1   
    30   14   46 1   
    31   14   47 1   
    32   15   36 1   
    33   15   48 1   
    34   15   49 1   
    35   16   27 1   
    36   17   19 1   
    37   17   50 1   
    38   17   51 1   
    39   18   28 1   
    40   18   31 1   
    41   19   21 1   
    42   19   52 1   
    43   19   53 1   
    44   20   30 1   
    45   20   54 1   
    46   21   23 1   
    47   21   55 1   
    48   21   56 1   
    49   22   29 1   
    50   22   57 1   
    51   23   24 1   
    52   23   58 1   
    53   23   59 1   
    54   24   25 1   
    55   24   60 1   
    56   24   61 1   
    57   25   26 1   
    58   25   62 1   
    59   25   63 1   
    60   27   28 1   
    61   27   64 1   
    62   27   65 1   
    63   28   29 1   
    64   28   66 1   
    65   29   30 1   
    66   29   67 1   
    67   30   31 1   
    68   30   68 1   
    69   31   69 1   
    70   32   70 1   
    71   33   34 ar  
    72   33   36 ar  
    73   35   71 1   
@<TRIPOS>SUBSTRUCTURE
     1 PBK         1 TEMP              0 ****  ****    0 ROOT
