@<TRIPOS>MOLECULE
PBK
   71    67     1     0     0
SMALL
bcc


@<TRIPOS>ATOM
      1 P          -2.4430   -0.6830    0.4170 p3        1 PBK      2.545000
      2 C1         11.1820    7.1400    3.8310 c3        1 PBK     -0.210000
      3 N1         -6.9070   -4.7210   -3.1580 n2        1 PBK     -0.166000
      4 O1         -0.9170    0.8680    2.1950 o         1 PBK     -0.547500
      5 C2          9.6930    6.9880    4.0530 c3        1 PBK     -0.159000
      6 N2         -9.0020   -4.8480   -2.5400 n2        1 PBK     -0.166000
      7 O2         -0.9010   -0.8770    0.7330 o         1 PBK     -0.547500
      8 C3          9.1950    5.7630    3.3170 c3        1 PBK     -0.158000
      9 N3         -6.8640   -6.8880   -4.3810 n1        1 PBK     -0.199000
     10 O3         -3.2210   -0.6400    1.7110 o         1 PBK     -1.108500
     11 C4          7.6850    5.6750    3.4440 c3        1 PBK     -0.158000
     12 N4         -8.9240   -8.0480   -4.3530 n1        1 PBK     -0.274000
     13 O4         -2.6440    0.6110   -0.3350 o         1 PBK     -1.108500
     14 C5          7.2080    4.3460    2.8940 c3        1 PBK     -0.157000
     15 N5        -10.8280   -7.4360   -3.4360 n3        1 PBK     -0.342000
     16 O5         -2.9580   -1.8950   -0.4690 os        1 PBK     -0.739000
     17 C6          5.7080    4.2250    3.0920 c3        1 PBK     -0.158000
     18 O6         -4.9930   -3.6670   -2.0380 os        1 PBK     -0.276000
     19 C7          5.2180    2.9260    2.4740 c3        1 PBK     -0.157000
     20 O7         -5.4060   -3.6680   -5.6170 oh        1 PBK     -0.312000
     21 C8          3.7130    2.8200    2.6440 c3        1 PBK     -0.157000
     22 O8         -3.5030   -2.3210   -4.6610 oh        1 PBK     -0.351000
     23 C9          3.2230    1.5250    2.0200 c3        1 PBK     -0.157000
     24 C10         1.7290    1.3800    2.2600 c3        1 PBK     -0.156000
     25 C11         1.2540    0.0500    1.7040 c3        1 PBK     -0.165000
     26 C12        -0.2580    0.0720    1.5580 c2        1 PBK      0.339000
     27 C13        -4.0140   -1.6620   -1.3810 c3        1 PBK      0.010000
     28 C14        -4.0780   -2.8060   -2.3880 c3        1 PBK     -0.043000
     29 C15        -4.5300   -2.2720   -3.7870 c3        1 PBK     -0.018000
     30 C16        -5.6510   -3.2010   -4.2380 c3        1 PBK      0.005000
     31 C17        -5.6090   -4.2300   -3.3870 c2        1 PBK      0.123000
     32 C18        -7.8880   -4.0840   -2.4810 c1        1 PBK     -0.020000
     33 C19        -8.7080   -5.9650   -3.2580 c1        1 PBK     -0.083000
     34 C20        -7.4160   -5.8870   -3.6390 c1        1 PBK     -0.083000
     35 C21        -7.6170   -7.9690   -4.7380 c1        1 PBK      0.003000
     36 C22        -9.4710   -7.0640   -3.6210 c1        1 PBK      0.209000
     37 H1         11.4560    8.0510    4.0660 hc        1 PBK      0.070000
     38 H1A        11.6640    6.4980    4.3940 hc        1 PBK      0.070000
     39 H1B        11.3910    6.9680    2.8880 hc        1 PBK      0.070000
     40 H2          9.5150    6.8890    5.0090 hc        1 PBK      0.077000
     41 H2A         9.2310    7.7810    3.7160 hc        1 PBK      0.077000
     42 H3          9.6020    4.9620    3.7050 hc        1 PBK      0.078000
     43 H3A         9.4400    5.8280    2.3720 hc        1 PBK      0.078000
     44 H4          7.2720    6.4050    2.9390 hc        1 PBK      0.078000
     45 H4A         7.4330    5.7470    4.3860 hc        1 PBK      0.078000
     46 H5          7.4160    4.2950    1.9400 hc        1 PBK      0.078000
     47 H5A         7.6590    3.6180    3.3650 hc        1 PBK      0.078000
     48 HN5       -11.1510   -8.1950   -3.8300 hn        1 PBK      0.224000
     49 HN5A      -11.3790   -6.9150   -2.9250 hn        1 PBK      0.224000
     50 H6          5.5040    4.2290    4.0490 hc        1 PBK      0.079000
     51 H6A         5.2600    4.9810    2.6600 hc        1 PBK      0.079000
     52 H7          5.4410    2.9130    1.5220 hc        1 PBK      0.077000
     53 H7A         5.6510    2.1700    2.9200 hc        1 PBK      0.077000
     54 HO7        -5.7970   -3.1140   -6.1920 ho        1 PBK      0.220000
     55 H8          3.2810    3.5780    2.2020 hc        1 PBK      0.081000
     56 H8A         3.4910    2.8270    3.5950 hc        1 PBK      0.081000
     57 HO8        -3.1350   -1.5140   -4.7320 ho        1 PBK      0.243000
     58 H9          3.6940    0.7690    2.4260 hc        1 PBK      0.075500
     59 H9A         3.4000    1.5400    1.0570 hc        1 PBK      0.075500
     60 H10         1.2550    2.1090    1.8110 hc        1 PBK      0.097500
     61 H10A        1.5480    1.4160    3.2200 hc        1 PBK      0.097500
     62 H11         1.5120   -0.6690    2.3150 hc        1 PBK      0.105500
     63 H11A        1.6640   -0.1030    0.8290 hc        1 PBK      0.105500
     64 H13        -4.8620   -1.6100   -0.8930 h1        1 PBK      0.096000
     65 H13A       -3.8570   -0.8190   -1.8550 h1        1 PBK      0.096000
     66 H14        -3.2080   -3.2450   -2.4580 h1        1 PBK      0.109000
     67 H15        -4.8620   -1.3560   -3.7080 h1        1 PBK      0.145000
     68 H16        -6.5140   -2.7460   -4.1800 h1        1 PBK      0.135000
     69 H17        -5.0390   -4.9400   -3.7460 h4        1 PBK      0.159000
     70 H18        -7.8100   -3.2180   -2.0390 DU        1 PBK      0.255000
     71 H21        -7.2220   -8.6840   -5.2700 ha        1 PBK      0.177000
@<TRIPOS>BOND
     1    1   10 1   
     2    1   13 1   
     3    1   16 1   
     4    2    5 1   
     5    2   37 1   
     6    2   38 1   
     7    2   39 1   
     8    3   32 1   
     9    3   34 1   
    10    4   26 1   
    11    5    8 1   
    12    5   40 1   
    13    5   41 1   
    14    6   32 1   
    15    6   33 1   
    16    7   26 1   
    17    8   11 1   
    18    8   42 1   
    19    8   43 1   
    20    9   35 1   
    21   11   14 1   
    22   11   44 1   
    23   11   45 1   
    24   12   36 1   
    25   14   17 1   
    26   14   46 1   
    27   14   47 1   
    28   15   36 1   
    29   15   48 1   
    30   15   49 1   
    31   16   27 1   
    32   17   19 1   
    33   17   50 1   
    34   17   51 1   
    35   18   28 1   
    36   18   31 1   
    37   19   21 1   
    38   19   52 1   
    39   19   53 1   
    40   20   30 1   
    41   20   54 1   
    42   21   23 1   
    43   21   55 1   
    44   21   56 1   
    45   22   29 1   
    46   22   57 1   
    47   23   24 1   
    48   23   58 1   
    49   23   59 1   
    50   24   25 1   
    51   24   60 1   
    52   24   61 1   
    53   25   26 1   
    54   25   62 1   
    55   25   63 1   
    56   27   28 1   
    57   27   64 1   
    58   27   65 1   
    59   28   29 1   
    60   28   66 1   
    61   29   30 1   
    62   29   67 1   
    63   30   31 1   
    64   30   68 1   
    65   31   69 1   
    66   33   34 1   
    67   35   71 1   
@<TRIPOS>SUBSTRUCTURE
     1 PBK         1 TEMP              0 ****  ****    0 ROOT
