@<TRIPOS>MOLECULE
PBL
   21    20     1     0     0
SMALL
bcc


@<TRIPOS>ATOM
      1 C1         -0.0150    0.1650    0.0040 c3        1 PBL     -0.106100
      2 C2          1.5020    0.0460   -0.0330 c3        1 PBL      0.349600
      3 O2          2.1010    0.1620    1.2460 oh        1 PBL     -0.632800
      4 C3          2.0030   -1.2490   -0.6760 c3        1 PBL     -0.111400
      5 C4          1.4580   -2.5410   -0.0610 c3        1 PBL      0.349600
      6 O4          2.0540   -3.6780   -0.6660 oh        1 PBL     -0.632800
      7 C5          1.6980   -2.6550    1.4370 c3        1 PBL     -0.106100
      8 O2'         1.9910    1.1790   -0.7340 oh        1 PBL     -0.632800
      9 O4'         0.0910   -2.6540   -0.4170 oh        1 PBL     -0.632800
     10 H1         -0.3140    1.2000    0.2920 hc        1 PBL      0.058700
     11 H1A        -0.4330   -0.0720   -1.0030 hc        1 PBL      0.058700
     12 H1B        -0.4180   -0.5690    0.7420 hc        1 PBL      0.058700
     13 H3          3.1200   -1.2900   -0.5940 hc        1 PBL      0.072700
     14 H3A         1.7180   -1.2120   -1.7600 hc        1 PBL      0.072700
     15 H5          1.0480   -1.9170    1.9660 hc        1 PBL      0.058700
     16 H5A         2.7650   -2.4200    1.6630 hc        1 PBL      0.058700
     17 H5B         1.4660   -3.6880    1.7870 hc        1 PBL      0.058700
     18 HO2         1.7480    0.9590    1.6590 ho        1 PBL      0.415000
     19 HO4         1.8980   -3.6210   -1.6160 ho        1 PBL      0.415000
     20 HO2'        2.9540    1.1190   -0.7530 ho        1 PBL      0.415000
     21 HO4'       -0.2530   -3.4480    0.0090 ho        1 PBL      0.415000
@<TRIPOS>BOND
     1    1    2 1   
     2    1   10 1   
     3    1   11 1   
     4    1   12 1   
     5    2    3 1   
     6    2    4 1   
     7    2    8 1   
     8    3   18 1   
     9    4    5 1   
    10    4   13 1   
    11    4   14 1   
    12    5    6 1   
    13    5    7 1   
    14    5    9 1   
    15    6   19 1   
    16    7   15 1   
    17    7   16 1   
    18    7   17 1   
    19    8   20 1   
    20    9   21 1   
@<TRIPOS>SUBSTRUCTURE
     1 PBL         1 TEMP              0 ****  ****    0 ROOT
