@<TRIPOS>MOLECULE
PBL
   21    20     1     0     0
SMALL
bcc


@<TRIPOS>ATOM
      1 C1          1.3750   -1.2570   -0.8650 c3        1 PBL     -0.112100
      2 C2          1.2830   -0.0740    0.0890 c3        1 PBL      0.348100
      3 O2          1.5310    1.1010   -0.6600 oh        1 PBL     -0.632550
      4 C3         -0.0170   -0.0360    0.8980 c3        1 PBL     -0.114400
      5 C4         -1.3040    0.0830    0.0780 c3        1 PBL      0.348100
      6 O4         -2.4150    0.3280    0.9250 oh        1 PBL     -0.632550
      7 C5         -1.2860    1.1970   -0.9600 c3        1 PBL     -0.112100
      8 O2'         2.3250   -0.0750    1.0540 oh        1 PBL     -0.632550
      9 O4'        -1.5840   -1.1880   -0.4800 oh        1 PBL     -0.632550
     10 H1          2.2930   -1.1720   -1.4920 hc        1 PBL      0.059533
     11 H1A         1.4120   -2.1990   -0.2700 hc        1 PBL      0.059533
     12 H1B         0.4770   -1.2760   -1.5280 hc        1 PBL      0.059533
     13 H3         -0.0620   -0.9760    1.5080 hc        1 PBL      0.076200
     14 H3A         0.0190    0.8370    1.6010 hc        1 PBL      0.076200
     15 H5         -0.5570    0.9350   -1.7640 hc        1 PBL      0.059533
     16 H5A        -2.3040    1.3290   -1.3970 hc        1 PBL      0.059533
     17 H5B        -0.9720    2.1520   -0.4780 hc        1 PBL      0.059533
     18 HO2         1.4460    1.8530   -0.0610 ho        1 PBL      0.415750
     19 HO4        -2.4430   -0.3770    1.5840 ho        1 PBL      0.415750
     20 HO2'        3.1580   -0.1750    0.5780 ho        1 PBL      0.415750
     21 HO4'       -2.3740   -1.0970   -1.0270 ho        1 PBL      0.415750
@<TRIPOS>BOND
     1    1    2 1   
     2    1   10 1   
     3    1   11 1   
     4    1   12 1   
     5    2    3 1   
     6    2    4 1   
     7    2    8 1   
     8    3   18 1   
     9    4    5 1   
    10    4   13 1   
    11    4   14 1   
    12    5    6 1   
    13    5    7 1   
    14    5    9 1   
    15    6   19 1   
    16    7   15 1   
    17    7   16 1   
    18    7   17 1   
    19    8   20 1   
    20    9   21 1   
@<TRIPOS>SUBSTRUCTURE
     1 PBL         1 TEMP              0 ****  ****    0 ROOT
