@<TRIPOS>MOLECULE
PBL
   21    20     1     0     0
SMALL
bcc


@<TRIPOS>ATOM
      1 C1         -2.4240    0.7420    0.4170 c3        1 PBL     -0.114100
      2 C2         -0.9110    0.7420    0.4170 c3        1 PBL      0.356600
      3 O2         -0.4420    0.7420    1.7440 oh        1 PBL     -0.643300
      4 C3         -0.4070   -0.4930   -0.2960 c3        1 PBL     -0.116400
      5 C4          1.1060   -0.5050   -0.2770 c3        1 PBL      0.356600
      6 O4          1.5580   -0.5310    1.0550 oh        1 PBL     -0.643300
      7 C5          1.6100   -1.7310   -1.0050 c3        1 PBL     -0.114100
      8 O2'        -0.4420    1.8910   -0.2460 oh        1 PBL     -0.643300
      9 O4'         1.5920    0.6520   -0.9140 oh        1 PBL     -0.643300
     10 H1         -2.7490    0.7390   -0.5030 hc        1 PBL      0.053700
     11 H1A        -2.7490   -0.0540    0.8800 hc        1 PBL      0.053700
     12 H1B        -2.7490    1.5400    0.8750 hc        1 PBL      0.053700
     13 H3         -0.7440   -1.2900    0.1560 hc        1 PBL      0.076700
     14 H3A        -0.7200   -0.4860   -1.2210 hc        1 PBL      0.076700
     15 H5          1.2720   -2.5340   -0.5640 hc        1 PBL      0.053700
     16 H5A         1.2990   -1.7120   -1.9290 hc        1 PBL      0.053700
     17 H5B         2.5860   -1.7400   -0.9900 hc        1 PBL      0.053700
     18 HO2        -0.7990    1.4250    2.1840 ho        1 PBL      0.433000
     19 HO4         2.4410   -0.6200    1.0670 ho        1 PBL      0.433000
     20 HO2'       -0.8030    2.6130    0.1220 ho        1 PBL      0.433000
     21 HO4'        2.4770    0.6090   -0.9700 ho        1 PBL      0.433000
@<TRIPOS>BOND
     1    1    2 1   
     2    1   10 1   
     3    1   11 1   
     4    1   12 1   
     5    2    3 1   
     6    2    4 1   
     7    2    8 1   
     8    3   18 1   
     9    4    5 1   
    10    4   13 1   
    11    4   14 1   
    12    5    6 1   
    13    5    7 1   
    14    5    9 1   
    15    6   19 1   
    16    7   15 1   
    17    7   16 1   
    18    7   17 1   
    19    8   20 1   
    20    9   21 1   
@<TRIPOS>SUBSTRUCTURE
     1 PBL         1 TEMP              0 ****  ****    0 ROOT
