@<TRIPOS>MOLECULE
PBN
   26    26     1     0     0
SMALL
bcc


@<TRIPOS>ATOM
      1 C1          0.1310    0.6950    3.6930 c3        1 PBN      0.158800
      2 C2         -0.0420   -0.4280    2.6710 c3        1 PBN     -0.083400
      3 C3          0.0000    0.1340    1.2670 c3        1 PBN     -0.076400
      4 C4         -0.1710   -0.9670    0.2370 c3        1 PBN     -0.037100
      5 C1'        -0.0980   -0.4380   -1.1520 ca        1 PBN     -0.078300
      6 C2'         1.1330   -0.0410   -1.6900 ca        1 PBN     -0.128000
      7 C3'         1.2070    0.4470   -2.9930 ca        1 PBN     -0.128000
      8 C4'         0.0530    0.5420   -3.7720 ca        1 PBN     -0.133000
      9 C5'        -1.1750    0.1480   -3.2420 ca        1 PBN     -0.128000
     10 C6'        -1.2510   -0.3400   -1.9380 ca        1 PBN     -0.128000
     11 N           0.1560    0.2280    5.0590 n3        1 PBN     -0.916800
     12 H11        -0.6840    1.4590    3.5120 h1        1 PBN      0.024700
     13 H12         1.1140    1.2130    3.4990 h1        1 PBN      0.024700
     14 H21         0.7710   -1.1890    2.8000 hc        1 PBN      0.046200
     15 H22        -1.0200   -0.9520    2.8390 hc        1 PBN      0.046200
     16 H31        -0.8110    0.8980    1.1380 hc        1 PBN      0.045200
     17 H32         0.9790    0.6560    1.0960 hc        1 PBN      0.045200
     18 H41         0.6330   -1.7390    0.3820 hc        1 PBN      0.048700
     19 H42        -1.1560   -1.4810    0.4030 hc        1 PBN      0.048700
     20 H2'         2.0430   -0.1170   -1.0770 ha        1 PBN      0.130500
     21 H3'         2.1780    0.7560   -3.4080 ha        1 PBN      0.130000
     22 H4'         0.1130    0.9270   -4.8000 ha        1 PBN      0.130000
     23 H5'        -2.0860    0.2210   -3.8540 ha        1 PBN      0.130000
     24 H6'        -2.2230   -0.6510   -1.5260 ha        1 PBN      0.130500
     25 HN1         0.1480    1.0030    5.6910 hn        1 PBN      0.348300
     26 HN2        -0.6270   -0.3630    5.2520 hn        1 PBN      0.348300
@<TRIPOS>BOND
     1    1    2 1   
     2    1   11 1   
     3    1   12 1   
     4    1   13 1   
     5    2    3 1   
     6    2   14 1   
     7    2   15 1   
     8    3    4 1   
     9    3   16 1   
    10    3   17 1   
    11    4    5 1   
    12    4   18 1   
    13    4   19 1   
    14    5    6 ar  
    15    5   10 ar  
    16    6    7 ar  
    17    6   20 1   
    18    7    8 ar  
    19    7   21 1   
    20    8    9 ar  
    21    8   22 1   
    22    9   10 ar  
    23    9   23 1   
    24   10   24 1   
    25   11   25 1   
    26   11   26 1   
@<TRIPOS>SUBSTRUCTURE
     1 PBN         1 TEMP              0 ****  ****    0 ROOT
