@<TRIPOS>MOLECULE
PBN
   27    27     1     0     0
SMALL
bcc


@<TRIPOS>ATOM
      1 C1          0.0340    0.0000   -0.0180 c3        1 PBN      0.098800
      2 C2          1.5570   -0.0000   -0.0170 c3        1 PBN     -0.111400
      3 C3          2.0510   -0.0000    1.4180 c3        1 PBN     -0.078400
      4 C4          3.5690   -0.0010    1.4580 c3        1 PBN     -0.027100
      5 C1'         4.0610   -0.0010    2.8630 ca        1 PBN     -0.106300
      6 C2'         4.3030   -1.2100    3.5250 ca        1 PBN     -0.124000
      7 C3'         4.7740   -1.2100    4.8370 ca        1 PBN     -0.121000
      8 C4'         5.0070   -0.0020    5.4960 ca        1 PBN     -0.114000
      9 C5'         4.7690    1.2060    4.8390 ca        1 PBN     -0.121000
     10 C6'         4.2990    1.2070    3.5270 ca        1 PBN     -0.124000
     11 N          -0.5400   -0.0000   -1.3970 nz        1 PBN     -0.839600
     12 H11        -0.3530    0.9180    0.5140 hx        1 PBN      0.114700
     13 H12        -0.3540   -0.9170    0.5150 hx        1 PBN      0.114700
     14 H21         1.9510   -0.9080   -0.5470 hc        1 PBN      0.069700
     15 H22         1.9510    0.9070   -0.5470 hc        1 PBN      0.069700
     16 H31         1.6630   -0.9050    1.9560 hc        1 PBN      0.061700
     17 H32         1.6640    0.9060    1.9550 hc        1 PBN      0.061700
     18 H41         3.9580   -0.9060    0.9180 hc        1 PBN      0.053700
     19 H42         3.9590    0.9040    0.9180 hc        1 PBN      0.053700
     20 H2'         4.1300   -2.1650    3.0060 ha        1 PBN      0.128000
     21 H3'         4.9670   -2.1630    5.3510 ha        1 PBN      0.142000
     22 H4'         5.3810   -0.0030    6.5310 ha        1 PBN      0.145000
     23 H5'         4.9590    2.1590    5.3550 ha        1 PBN      0.142000
     24 H6'         4.1220    2.1620    3.0100 ha        1 PBN      0.128000
     25 HN1        -0.2270   -0.8330   -1.9080 hn        1 PBN      0.461133
     26 HN2        -1.5640    0.0000   -1.3530 hn        1 PBN      0.461133
     27 HN3        -0.2270    0.8310   -1.9090 hn        1 PBN      0.461133
@<TRIPOS>BOND
     1    1    2 1   
     2    1   11 1   
     3    1   12 1   
     4    1   13 1   
     5    2    3 1   
     6    2   14 1   
     7    2   15 1   
     8    3    4 1   
     9    3   16 1   
    10    3   17 1   
    11    4    5 1   
    12    4   18 1   
    13    4   19 1   
    14    5    6 ar  
    15    5   10 ar  
    16    6    7 ar  
    17    6   20 1   
    18    7    8 ar  
    19    7   21 1   
    20    8    9 ar  
    21    8   22 1   
    22    9   10 ar  
    23    9   23 1   
    24   10   24 1   
    25   11   25 1   
    26   11   26 1   
    27   11   27 1   
@<TRIPOS>SUBSTRUCTURE
     1 PBN         1 TEMP              0 ****  ****    0 ROOT
