@<TRIPOS>MOLECULE
PBN
   26    24     1     0     0
SMALL
bcc


@<TRIPOS>ATOM
      1 C1         -2.4890    0.8960   -2.0580 c3        1 PBN     -0.078000
      2 C2         -1.0410    0.3750   -2.0400 c3        1 PBN     -0.162000
      3 C3         -0.6880   -0.0990   -0.6300 c3        1 PBN     -0.155000
      4 C4          0.7890   -0.5070   -0.5830 c3        1 PBN     -0.123000
      5 C1'         1.2720   -0.5230    0.8810 c2        1 PBN     -0.071000
      6 C2'         1.8850    0.6000    1.4220 c1        1 PBN     -0.128000
      7 C3'         2.3450    0.5780    2.7460 c1        1 PBN     -0.130500
      8 C4'         2.1870   -0.5710    3.5190 c1        1 PBN     -0.130500
      9 C5'         1.5730   -1.6960    2.9770 c1        1 PBN     -0.128000
     10 C6'         1.1140   -1.6740    1.6560 c2        1 PBN     -0.128000
     11 N          -2.8280    1.3340   -3.3930 n3        1 PBN     -0.349000
     12 H11        -2.5730    1.6500   -1.4350 h1        1 PBN      0.064000
     13 H12        -3.1000    0.1770   -1.7850 h1        1 PBN      0.064000
     14 H21        -0.9550   -0.3710   -2.6650 hc        1 PBN      0.085500
     15 H22        -0.4350    1.0910   -2.3030 hc        1 PBN      0.085500
     16 H31        -0.8460    0.6220    0.0030 hc        1 PBN      0.084500
     17 H32        -1.2440   -0.8650   -0.3960 hc        1 PBN      0.084500
     18 H41         1.3230    0.1360   -1.0960 hc        1 PBN      0.088000
     19 H42         0.8930   -1.4010   -0.9710 hc        1 PBN      0.088000
     20 H2'         1.9960    1.4070    0.8780 ha        1 PBN      0.131000
     21 H3'         2.7720    1.3590    3.1230 ha        1 PBN      0.130000
     22 H4'         2.5080   -0.5860    4.4440 ha        1 PBN      0.130000
     23 H5'         1.4620   -2.5010    3.5190 ha        1 PBN      0.130000
     24 H6'         0.6870   -2.4570    1.2790 ha        1 PBN      0.130000
     25 HN1        -3.5130    0.8150   -3.7220 hn        1 PBN      0.143500
     26 HN2        -3.0940    2.2120   -3.3680 hn        1 PBN      0.143500
@<TRIPOS>BOND
     1    1    2 1   
     2    1   11 1   
     3    1   12 1   
     4    1   13 1   
     5    2    3 1   
     6    2   14 1   
     7    2   15 1   
     8    3    4 1   
     9    3   16 1   
    10    3   17 1   
    11    4    5 1   
    12    4   18 1   
    13    4   19 1   
    14    5    6 1   
    15    5   10 1   
    16    6   20 1   
    17    7    8 1   
    18    7   21 1   
    19    8   22 1   
    20    9   10 1   
    21    9   23 1   
    22   10   24 1   
    23   11   25 1   
    24   11   26 1   
@<TRIPOS>SUBSTRUCTURE
     1 PBN         1 TEMP              0 ****  ****    0 ROOT
