@<TRIPOS>MOLECULE
PBN
   27    27     1     0     0
SMALL
bcc


@<TRIPOS>ATOM
      1 C1          0.0360    0.0760   -0.0200 c3        1 PBN      0.098800
      2 C2          1.5550   -0.0220   -0.0160 c3        1 PBN     -0.111400
      3 C3          2.0490    0.0030    1.4180 c3        1 PBN     -0.078400
      4 C4          3.5640   -0.0990    1.4610 c3        1 PBN     -0.027100
      5 C1'         4.0590   -0.0590    2.8650 ca        1 PBN     -0.106300
      6 C2'         4.4340   -1.2390    3.5170 ca        1 PBN     -0.123500
      7 C3'         4.9080   -1.1950    4.8270 ca        1 PBN     -0.121000
      8 C4'         5.0110    0.0250    5.4940 ca        1 PBN     -0.114000
      9 C5'         4.6410    1.2050    4.8470 ca        1 PBN     -0.121000
     10 C6'         4.1670    1.1640    3.5370 ca        1 PBN     -0.123500
     11 N          -0.5390    0.0570   -1.3990 n4        1 PBN     -0.839600
     12 H11        -0.2920    1.0370    0.4740 hx        1 PBN      0.114700
     13 H12        -0.4090   -0.7930    0.5480 hx        1 PBN      0.114700
     14 H21         1.8900   -0.9730   -0.5100 hc        1 PBN      0.069700
     15 H22         2.0060    0.8370   -0.5810 hc        1 PBN      0.069700
     16 H31         1.6010   -0.8510    1.9910 hc        1 PBN      0.061700
     17 H32         1.7260    0.9540    1.9190 hc        1 PBN      0.061700
     18 H41         3.8900   -1.0520    0.9650 hc        1 PBN      0.054200
     19 H42         4.0130    0.7520    0.8810 hc        1 PBN      0.054200
     20 H2'         4.3630   -2.2040    2.9930 ha        1 PBN      0.128000
     21 H3'         5.2060   -2.1260    5.3330 ha        1 PBN      0.142500
     22 H4'         5.3890    0.0590    6.5270 ha        1 PBN      0.145000
     23 H5'         4.7280    2.1700    5.3690 ha        1 PBN      0.142500
     24 H6'         3.8850    2.0960    3.0260 ha        1 PBN      0.128000
     25 HN1        -0.2800   -0.8140   -1.8760 hn        1 PBN      0.461467
     26 HN2        -1.5600    0.1240   -1.3570 hn        1 PBN      0.461467
     27 HN3        -0.1730    0.8460   -1.9430 hn        1 PBN      0.461467
@<TRIPOS>BOND
     1    1    2 1   
     2    1   11 1   
     3    1   12 1   
     4    1   13 1   
     5    2    3 1   
     6    2   14 1   
     7    2   15 1   
     8    3    4 1   
     9    3   16 1   
    10    3   17 1   
    11    4    5 1   
    12    4   18 1   
    13    4   19 1   
    14    5    6 ar  
    15    5   10 ar  
    16    6    7 ar  
    17    6   20 1   
    18    7    8 ar  
    19    7   21 1   
    20    8    9 ar  
    21    8   22 1   
    22    9   10 ar  
    23    9   23 1   
    24   10   24 1   
    25   11   25 1   
    26   11   26 1   
    27   11   27 1   
@<TRIPOS>SUBSTRUCTURE
     1 PBN         1 TEMP              0 ****  ****    0 ROOT
