@<TRIPOS>MOLECULE
PBO
   22    22     1     0     0
SMALL
bcc


@<TRIPOS>ATOM
      1 C10        -0.9510    0.0000    4.2230 c3        1 PBO     -0.094100
      2 C11         0.1480   -0.0000    3.1950 c3        1 PBO     -0.076400
      3 C12        -0.4130   -0.0000    1.7890 c3        1 PBO     -0.176400
      4 C13         0.6630   -0.0010    0.7410 c         1 PBO      0.581700
      5 C14         0.2200   -0.0000   -0.6680 ca        1 PBO     -0.293900
      6 C15         1.1770    0.0000   -1.6960 ca        1 PBO     -0.039000
      7 C16         0.7490    0.0000   -3.0230 ca        1 PBO     -0.259300
      8 C17        -0.6330    0.0000   -3.2810 ca        1 PBO      0.419200
      9 N1'        -1.5690   -0.0000   -2.3110 nb        1 PBO     -0.674000
     10 C18        -1.1430   -0.0000   -1.0350 ca        1 PBO      0.431200
     11 O13         1.8670   -0.0010    1.0310 o         1 PBO     -0.532100
     12 H103       -0.5160    0.0000    5.2520 hc        1 PBO      0.034367
     13 H101       -1.5970    0.9050    4.1140 hc        1 PBO      0.034367
     14 H102       -1.5970   -0.9050    4.1150 hc        1 PBO      0.034367
     15 H111        0.8040    0.9010    3.3310 hc        1 PBO      0.055200
     16 H112        0.8040   -0.9010    3.3310 hc        1 PBO      0.055200
     17 H121       -1.0580   -0.9070    1.6390 hc        1 PBO      0.067700
     18 H122       -1.0580    0.9070    1.6380 hc        1 PBO      0.067700
     19 H15         2.2490    0.0000   -1.4400 ha        1 PBO      0.163000
     20 H16         1.4710    0.0010   -3.8500 ha        1 PBO      0.150000
     21 H17        -1.0180    0.0000   -4.3180 h4        1 PBO      0.026100
     22 H18        -1.9420   -0.0010   -0.2720 h4        1 PBO      0.025100
@<TRIPOS>BOND
     1    1    2 1   
     2    1   12 1   
     3    1   13 1   
     4    1   14 1   
     5    2    3 1   
     6    2   15 1   
     7    2   16 1   
     8    3    4 1   
     9    3   17 1   
    10    3   18 1   
    11    4    5 1   
    12    4   11 2   
    13    5    6 ar  
    14    5   10 ar  
    15    6    7 ar  
    16    6   19 1   
    17    7    8 ar  
    18    7   20 1   
    19    8    9 ar  
    20    8   21 1   
    21    9   10 ar  
    22   10   22 1   
@<TRIPOS>SUBSTRUCTURE
     1 PBO         1 TEMP              0 ****  ****    0 ROOT
