@<TRIPOS>MOLECULE
PBO
   22    22     1     0     0
SMALL
bcc


@<TRIPOS>ATOM
      1 C10        -0.0030    0.0000    0.0540 c3        1 PBO     -0.094100
      2 C11         1.5020    0.0000    0.0010 c3        1 PBO     -0.076400
      3 C12         2.1010    0.0010    1.3920 c3        1 PBO     -0.176400
      4 C13         3.6030    0.0010    1.3690 c         1 PBO      0.581700
      5 C14         4.2880    0.0000    2.6780 ca        1 PBO     -0.293900
      6 C15         5.6910   -0.0000    2.7270 ca        1 PBO     -0.039000
      7 C16         6.3290   -0.0010    3.9660 ca        1 PBO     -0.259300
      8 C17         5.5350   -0.0000    5.1280 ca        1 PBO      0.419200
      9 N1'         4.1880    0.0000    5.1060 nb        1 PBO     -0.674000
     10 C18         3.5860    0.0010    3.9030 ca        1 PBO      0.431200
     11 O13         4.2470    0.0010    0.3120 o         1 PBO     -0.532100
     12 H103       -0.3810   -0.9050    0.5880 hc        1 PBO      0.034367
     13 H101       -0.3810    0.9060    0.5870 hc        1 PBO      0.034367
     14 H102       -0.4230    0.0000   -0.9810 hc        1 PBO      0.034367
     15 H111        1.8690   -0.9000   -0.5590 hc        1 PBO      0.055200
     16 H112        1.8690    0.9010   -0.5590 hc        1 PBO      0.055200
     17 H121        1.7520    0.9080    1.9550 hc        1 PBO      0.067700
     18 H122        1.7520   -0.9060    1.9550 hc        1 PBO      0.067700
     19 H15         6.2670   -0.0010    1.7870 ha        1 PBO      0.163000
     20 H16         7.4250   -0.0010    4.0400 ha        1 PBO      0.150000
     21 H17         5.9980   -0.0010    6.1320 h4        1 PBO      0.026100
     22 H18         2.4800    0.0010    3.9300 h4        1 PBO      0.025100
@<TRIPOS>BOND
     1    1    2 1   
     2    1   12 1   
     3    1   13 1   
     4    1   14 1   
     5    2    3 1   
     6    2   15 1   
     7    2   16 1   
     8    3    4 1   
     9    3   17 1   
    10    3   18 1   
    11    4    5 1   
    12    4   11 2   
    13    5    6 ar  
    14    5   10 ar  
    15    6    7 ar  
    16    6   19 1   
    17    7    8 ar  
    18    7   20 1   
    19    8    9 ar  
    20    8   21 1   
    21    9   10 ar  
    22   10   22 1   
@<TRIPOS>SUBSTRUCTURE
     1 PBO         1 TEMP              0 ****  ****    0 ROOT
