@<TRIPOS>MOLECULE
PBP
   17    14     1     0     0
SMALL
bcc


@<TRIPOS>ATOM
      1 CH         -2.1700   -0.0000    1.7310 c3        1 PBP     -0.198100
      2 CG          0.0990   -0.0000    0.4200 cg        1 PBP     -0.113200
      3 CD1        -0.5940   -0.0000   -0.7800 c1        1 PBP     -0.048500
      4 CE1         0.0990   -0.0000   -1.9800 c1        1 PBP     -0.048500
      5 CD2         1.4850   -0.0000    0.4200 c1        1 PBP     -0.017500
      6 CE2         2.1780   -0.0000   -0.7800 c1        1 PBP     -0.061500
      7 CZ          1.4850   -0.0000   -1.9800 c1        1 PBP      0.091800
      8 BR          2.4410    0.0030   -3.6360 br        1 PBP     -0.171800
      9 CR         -0.6570   -0.0000    1.7310 c         1 PBP      0.524300
     10 O          -0.0500   -0.0000    2.7830 o         1 PBP     -0.530100
     11 HH1        -2.4950    0.7970    1.2710 hc        1 PBP      0.066033
     12 HH2        -2.4950   -0.0000    2.6510 hc        1 PBP      0.066033
     13 HH3        -2.4950   -0.7970    1.2700 hc        1 PBP      0.066033
     14 HD1        -1.5700   -0.0000   -0.7800 ha        1 PBP      0.087500
     15 HE1        -0.3890   -0.0000   -2.8260 ha        1 PBP      0.087500
     16 HD2         1.9730   -0.0000    1.2660 ha        1 PBP      0.105500
     17 HE2         3.1540   -0.0000   -0.7800 ha        1 PBP      0.095500
@<TRIPOS>BOND
     1    1    9 1   
     2    1   11 1   
     3    1   12 1   
     4    1   13 1   
     5    2    5 3   
     6    2    9 1   
     7    3    4 3   
     8    3   14 1   
     9    4   15 1   
    10    5   16 1   
    11    6    7 3   
    12    6   17 1   
    13    7    8 1   
    14    9   10 2   
@<TRIPOS>SUBSTRUCTURE
     1 PBP         1 TEMP              0 ****  ****    0 ROOT
