@<TRIPOS>MOLECULE
PBP
   17    17     1     0     0
SMALL
bcc


@<TRIPOS>ATOM
      1 CH          1.2030   -0.0010    4.2070 c3        1 PBP     -0.198100
      2 CG         -0.0370    0.0000    1.9860 ca        1 PBP     -0.164600
      3 CD1        -1.2360   -0.0000    1.2610 ca        1 PBP     -0.083500
      4 CE1        -1.2220   -0.0000   -0.1320 ca        1 PBP     -0.119500
      5 CD2         1.1790    0.0010    1.2940 ca        1 PBP     -0.083500
      6 CE2         1.1980    0.0000   -0.1000 ca        1 PBP     -0.119500
      7 CZ         -0.0030    0.0000   -0.8160 ca        1 PBP     -0.001900
      8 BR          0.0240   -0.0000   -2.6880 br        1 PBP     -0.078100
      9 CR         -0.0960    0.0000    3.4660 c         1 PBP      0.575700
     10 O          -1.1780    0.0010    4.0670 o         1 PBP     -0.530100
     11 HH1         1.0200   -0.0010    5.3100 hc        1 PBP      0.066033
     12 HH2         1.7940   -0.9100    3.9400 hc        1 PBP      0.066033
     13 HH3         1.7950    0.9090    3.9410 hc        1 PBP      0.066033
     14 HD1        -2.1950   -0.0000    1.8080 ha        1 PBP      0.151500
     15 HE1        -2.1750   -0.0010   -0.6850 ha        1 PBP      0.151500
     16 HD2         2.1340    0.0010    1.8410 ha        1 PBP      0.151500
     17 HE2         2.1630    0.0010   -0.6290 ha        1 PBP      0.151500
@<TRIPOS>BOND
     1    1    9 1   
     2    1   11 1   
     3    1   12 1   
     4    1   13 1   
     5    2    3 ar  
     6    2    5 ar  
     7    2    9 1   
     8    3    4 ar  
     9    3   14 1   
    10    4    7 ar  
    11    4   15 1   
    12    5    6 ar  
    13    5   16 1   
    14    6    7 ar  
    15    6   17 1   
    16    7    8 1   
    17    9   10 2   
@<TRIPOS>SUBSTRUCTURE
     1 PBP         1 TEMP              0 ****  ****    0 ROOT
