@<TRIPOS>MOLECULE
PBQ
   21    14     1     0     0
SMALL
bcc


@<TRIPOS>ATOM
      1 CH         -2.3710   -0.1120   -1.2790 c1        1 PBQ      0.000800
      2 CG         -0.3270   -0.1120   -0.0190 c1        1 PBQ     -0.058000
      3 CD1         1.0590   -0.1100    0.0200 c1        1 PBQ     -0.073000
      4 CD2        -1.0530   -0.1610    1.1600 c1        1 PBQ      0.027000
      5 CE2        -2.4380   -0.1850    1.1200 c1        1 PBQ      0.000800
      6 CR         -0.9850   -0.0880   -1.2390 c1        1 PBQ      0.162600
      7 O          -0.2480   -0.0620   -2.4360 oh        1 PBQ     -0.483600
      8 C3         -3.0970   -0.1610   -0.0990 c1        1 PBQ      0.027000
      9 C7          3.1240   -0.6100    0.6180 c1        1 PBQ     -0.073000
     10 C8          2.9990    0.7620    0.6280 c1        1 PBQ     -0.206000
     11 C9          1.7280    1.0690    0.2600 c1        1 PBQ     -0.206000
     12 N11         1.9250   -1.1400    0.2430 n1        1 PBQ     -0.122000
     13 BR13       -3.4410   -0.2380    2.7470 br        1 PBQ     -0.158800
     14 BR14       -3.2800   -0.0310   -2.9580 br        1 PBQ     -0.158800
     15 BR17        1.0080    2.8290    0.0670 br        1 PBQ      0.127000
     16 BR18        4.3600    2.0120    1.1200 br        1 PBQ      0.127000
     17 BR19        4.6960   -1.5970    1.0760 br        1 PBQ      0.127000
     18 H3         -4.0730   -0.1780   -0.1270 ha        1 PBQ      0.111500
     19 HD2        -0.5890   -0.1770    2.0190 ha        1 PBQ      0.111500
     20 H11         1.7360   -2.0280    0.1550 DU        1 PBQ      0.272000
     21 H          -0.7340    0.3170   -3.0760 ho        1 PBQ      0.444000
@<TRIPOS>BOND
     1    1    8 3   
     2    1   14 1   
     3    2    6 3   
     4    3   11 2   
     5    3   12 2   
     6    4    5 3   
     7    4   19 1   
     8    5   13 1   
     9    6    7 1   
    10    7   21 1   
    11    8   18 1   
    12    9   10 2   
    13    9   12 2   
    14   10   11 2   
@<TRIPOS>SUBSTRUCTURE
     1 PBQ         1 TEMP              0 ****  ****    0 ROOT
