@<TRIPOS>MOLECULE
PBQ
   21    22     1     0     0
SMALL
bcc


@<TRIPOS>ATOM
      1 CH         23.3340   50.2950   26.9170 ca        1 PBQ     -0.069900
      2 CG         24.6740   48.8830   28.3980 ca        1 PBQ     -0.133000
      3 CD1        25.1010   48.4880   29.7320 cc        1 PBQ     -0.043300
      4 CD2        25.2080   48.2300   27.2850 ca        1 PBQ     -0.028000
      5 CE2        24.8110   48.5960   25.9990 ca        1 PBQ     -0.075900
      6 CR         23.7360   49.9250   28.2190 ca        1 PBQ      0.204100
      7 O          23.1720   50.5890   29.2720 oh        1 PBQ     -0.471100
      8 C3         23.8790   49.6230   25.8220 ca        1 PBQ     -0.032000
      9 C7         25.2390   47.2170   31.6040 cc        1 PBQ     -0.045200
     10 C8         26.0980   48.3210   31.7890 cd        1 PBQ     -0.055900
     11 C9         26.0120   49.1270   30.6020 cd        1 PBQ     -0.079900
     12 N11        24.6400   47.3300   30.3550 na        1 PBQ     -0.132100
     13 BR13       25.5260   47.7170   24.5120 br        1 PBQ     -0.068100
     14 BR14       22.0940   51.6580   26.5900 br        1 PBQ     -0.046100
     15 BR17       26.9380   50.6740   30.2920 br        1 PBQ     -0.011100
     16 BR18       27.1260   48.6600   33.2610 br        1 PBQ     -0.004100
     17 BR19       24.9090   45.8240   32.7630 br        1 PBQ      0.002900
     18 H3         23.5700   49.9100   24.8010 ha        1 PBQ      0.166000
     19 HD2        25.9510   47.4280   27.4370 ha        1 PBQ      0.160000
     20 H11        23.9990   46.6870   29.9600 hn        1 PBQ      0.318700
     21 H          23.6350   50.3320   30.0870 ho        1 PBQ      0.442000
@<TRIPOS>BOND
     1    1    6 ar  
     2    1    8 ar  
     3    1   14 1   
     4    2    3 1   
     5    2    4 ar  
     6    2    6 ar  
     7    3   11 2   
     8    3   12 1   
     9    4    5 ar  
    10    4   19 1   
    11    5    8 ar  
    12    5   13 1   
    13    6    7 1   
    14    7   21 1   
    15    8   18 1   
    16    9   10 2   
    17    9   12 1   
    18    9   17 1   
    19   10   11 1   
    20   10   16 1   
    21   11   15 1   
    22   12   20 1   
@<TRIPOS>SUBSTRUCTURE
     1 PBQ         1 TEMP              0 ****  ****    0 ROOT
