@<TRIPOS>MOLECULE
PBQ
   21    22     1     0     0
SMALL
bcc


@<TRIPOS>ATOM
      1 CH          0.0240   -0.3600    0.0390 ca        1 PBQ     -0.118900
      2 CG          1.9920    0.4330    1.2620 ca        1 PBQ     -0.058000
      3 CD1         3.4050    0.7670    1.3270 cc        1 PBQ     -0.009300
      4 CD2         1.2090    0.5320    2.4160 ca        1 PBQ     -0.030000
      5 CE2        -0.1430    0.1790    2.3940 ca        1 PBQ     -0.066900
      6 CR          1.3840    0.0020    0.0580 ca        1 PBQ      0.179100
      7 O           2.1810   -0.0160   -1.0580 oh        1 PBQ     -0.500100
      8 C3         -0.7300   -0.2730    1.2120 ca        1 PBQ     -0.031000
      9 C7          5.3830    1.6880    0.7060 cc        1 PBQ     -0.045200
     10 C8          5.6080    1.0100    1.9210 cd        1 PBQ     -0.053900
     11 C9          4.3570    0.4210    2.3150 cd        1 PBQ     -0.077900
     12 N11         4.0440    1.5480    0.3650 na        1 PBQ     -0.123100
     13 BR13       -1.1680    0.3120    3.9520 br        1 PBQ     -0.063100
     14 BR14       -0.8170   -0.9660   -1.5230 br        1 PBQ     -0.067100
     15 BR17        4.1180   -0.6110    3.8090 br        1 PBQ     -0.023100
     16 BR18        7.1920    0.9030    2.8260 br        1 PBQ     -0.012100
     17 BR19        6.5920    2.6390   -0.3090 br        1 PBQ     -0.004100
     18 H3         -1.7960   -0.5590    1.1990 ha        1 PBQ      0.166000
     19 HD2         1.6730    0.8950    3.3500 ha        1 PBQ      0.172000
     20 H11         3.6310    1.8210   -0.4940 hn        1 PBQ      0.321700
     21 H           1.6980   -0.4520   -1.7810 ho        1 PBQ      0.444000
@<TRIPOS>BOND
     1    1    6 ar  
     2    1    8 ar  
     3    1   14 1   
     4    2    3 1   
     5    2    4 ar  
     6    2    6 ar  
     7    3   11 2   
     8    3   12 1   
     9    4    5 ar  
    10    4   19 1   
    11    5    8 ar  
    12    5   13 1   
    13    6    7 1   
    14    7   21 1   
    15    8   18 1   
    16    9   10 2   
    17    9   12 1   
    18    9   17 1   
    19   10   11 1   
    20   10   16 1   
    21   11   15 1   
    22   12   20 1   
@<TRIPOS>SUBSTRUCTURE
     1 PBQ         1 TEMP              0 ****  ****    0 ROOT
