@<TRIPOS>MOLECULE
PBR
   13    13     1     0     0
SMALL
bcc


@<TRIPOS>ATOM
      1 BR1        -3.1950    0.0410    0.1770 br        1 PBR     -0.026600
      2 BR2        -1.5460    0.0070    3.0330 br        1 PBR     -0.015600
      3 BR3         1.7510    0.0140    3.0330 br        1 PBR     -0.020100
      4 BR4         3.4000    0.0070    0.1780 br        1 PBR     -0.015600
      5 BR5         1.7520    0.0410   -2.6780 br        1 PBR     -0.026600
      6 O1         -1.2900    0.2170   -2.2310 oh        1 PBR     -0.466100
      7 C1         -1.2840    0.0410    0.1770 ca        1 PBR     -0.070400
      8 C2         -0.5910    0.0410    1.3780 ca        1 PBR      0.053100
      9 C3          0.7950    0.0410    1.3780 ca        1 PBR     -0.036900
     10 C4          1.4890    0.0410    0.1780 ca        1 PBR      0.053100
     11 C5          0.7960    0.0410   -1.0230 ca        1 PBR     -0.070400
     12 C6         -0.5900    0.0410   -1.0230 ca        1 PBR      0.198100
     13 H1         -1.4870   -0.5770   -2.5770 ho        1 PBR      0.442000
@<TRIPOS>BOND
     1    1    7 1   
     2    2    8 1   
     3    3    9 1   
     4    4   10 1   
     5    5   11 1   
     6    6   12 1   
     7    6   13 1   
     8    7    8 ar  
     9    7   12 ar  
    10    8    9 ar  
    11    9   10 ar  
    12   10   11 ar  
    13   11   12 ar  
@<TRIPOS>SUBSTRUCTURE
     1 PBR         1 TEMP              0 ****  ****    0 ROOT
