@<TRIPOS>MOLECULE
PBR
   13    13     1     0     0
SMALL
bcc


@<TRIPOS>ATOM
      1 BR1         0.0490    0.2660   -0.0840 br        1 PBR     -0.026600
      2 BR2         1.6110    0.0690    2.7620 br        1 PBR     -0.015600
      3 BR3         4.8660   -0.1440    2.8480 br        1 PBR     -0.020100
      4 BR4         6.5820   -0.1630    0.0800 br        1 PBR     -0.015600
      5 BR5         5.0920    0.0310   -2.7930 br        1 PBR     -0.026600
      6 O1          2.0770    0.2160   -2.4900 oh        1 PBR     -0.466100
      7 C1          1.9180    0.1440   -0.0580 ca        1 PBR     -0.070400
      8 C2          2.5870    0.0600    1.1690 ca        1 PBR      0.053100
      9 C3          3.9830   -0.0320    1.2070 ca        1 PBR     -0.036900
     10 C4          4.7180   -0.0390    0.0120 ca        1 PBR      0.053100
     11 C5          4.0710    0.0440   -1.2260 ca        1 PBR     -0.070400
     12 C6          2.6610    0.1370   -1.2560 ca        1 PBR      0.198100
     13 H1          1.1110    0.2750   -2.3780 ho        1 PBR      0.442000
@<TRIPOS>BOND
     1    1    7 1   
     2    2    8 1   
     3    3    9 1   
     4    4   10 1   
     5    5   11 1   
     6    6   12 1   
     7    6   13 1   
     8    7    8 ar  
     9    7   12 ar  
    10    8    9 ar  
    11    9   10 ar  
    12   10   11 ar  
    13   11   12 ar  
@<TRIPOS>SUBSTRUCTURE
     1 PBR         1 TEMP              0 ****  ****    0 ROOT
