@<TRIPOS>MOLECULE
PBR
   13    13     1     0     0
SMALL
bcc


@<TRIPOS>ATOM
      1 BR1         2.1180   -0.2370    2.7580 br        1 PBR     -0.026600
      2 BR2        -1.1280   -0.0370    2.8210 br        1 PBR     -0.015600
      3 BR3        -2.8250    0.1450    0.0400 br        1 PBR     -0.020100
      4 BR4        -1.2810    0.1280   -2.8280 br        1 PBR     -0.015600
      5 BR5         1.9520   -0.0690   -2.9660 br        1 PBR     -0.026600
      6 O1          3.1930   -0.2230   -0.2000 oh        1 PBR     -0.466100
      7 C1          1.1640   -0.1340    1.1490 ca        1 PBR     -0.070400
      8 C2         -0.2330   -0.0480    1.1810 ca        1 PBR      0.053100
      9 C3         -0.9620    0.0300   -0.0120 ca        1 PBR     -0.036900
     10 C4         -0.2930    0.0230   -1.2440 ca        1 PBR      0.053100
     11 C5          1.1030   -0.0620   -1.3000 ca        1 PBR     -0.070400
     12 C6          1.8310   -0.1410   -0.0920 ca        1 PBR      0.198100
     13 H1          3.5770   -0.2710    0.6940 ho        1 PBR      0.442000
@<TRIPOS>BOND
     1    1    7 1   
     2    2    8 1   
     3    3    9 1   
     4    4   10 1   
     5    5   11 1   
     6    6   12 1   
     7    6   13 1   
     8    7    8 ar  
     9    7   12 ar  
    10    8    9 ar  
    11    9   10 ar  
    12   10   11 ar  
    13   11   12 ar  
@<TRIPOS>SUBSTRUCTURE
     1 PBR         1 TEMP              0 ****  ****    0 ROOT
