@<TRIPOS>MOLECULE
PBS
  106   106     1     0     0
SMALL
bcc


@<TRIPOS>ATOM
      1 C17         0.2930   -0.0120   -0.1380 c3        1 PBS     -0.093100
      2 C16         1.7860   -0.2030   -0.0550 c3        1 PBS     -0.080400
      3 C15         2.2900   -0.0310    1.3620 c3        1 PBS     -0.079400
      4 C14         3.7890   -0.2230    1.4400 c3        1 PBS     -0.079400
      5 C13         4.2920   -0.0510    2.8570 c3        1 PBS     -0.079400
      6 C12         5.7910   -0.2430    2.9350 c3        1 PBS     -0.079400
      7 C11         6.2940   -0.0710    4.3530 c3        1 PBS     -0.079400
      8 C10         7.7930   -0.2640    4.4300 c3        1 PBS     -0.079400
      9 C9          8.2960   -0.0910    5.8480 c3        1 PBS     -0.079400
     10 C8          9.7950   -0.2840    5.9250 c3        1 PBS     -0.079400
     11 C7         10.2960   -0.1120    7.3430 c3        1 PBS     -0.079400
     12 C6         11.7960   -0.3060    7.4200 c3        1 PBS     -0.079400
     13 C5         12.2970   -0.1340    8.8380 c3        1 PBS     -0.082400
     14 C4         13.7970   -0.3240    8.9090 c3        1 PBS     -0.118400
     15 C3         14.3130   -0.1950   10.3360 c3        1 PBS      0.139100
     16 O32        14.0090   -1.3370   11.1330 oh        1 PBS     -0.670800
     17 C2         15.8540   -0.0600   10.3430 c3        1 PBS      0.140100
     18 O1         16.1470    1.1110    9.6140 oh        1 PBS     -0.570800
     19 C1         16.4040    0.1140   11.7910 c3        1 PBS      0.075500
     20 N          16.4530   -1.1940   12.5200 n4        1 PBS     -0.686800
     21 C18        16.2590   -1.0780   14.0130 c         1 PBS      0.557100
     22 O2         16.5500   -0.0100   14.5320 o         1 PBS     -0.436100
     23 C19        15.7350   -2.3220   14.6700 c3        1 PBS     -0.159400
     24 C20        15.8070   -2.2040   16.1810 c3        1 PBS     -0.081400
     25 C21        15.2380   -3.4470   16.8320 c3        1 PBS     -0.080400
     26 C22        15.3130   -3.3450   18.3410 c3        1 PBS     -0.079400
     27 C23        14.7450   -4.5840   18.9990 c3        1 PBS     -0.079400
     28 C24        14.8180   -4.4850   20.5090 c3        1 PBS     -0.079400
     29 C25        14.2540   -5.7170   21.1690 c3        1 PBS     -0.095100
     30 C          17.7800    0.8070   11.7610 c3        1 PBS      0.107400
     31 OC1        18.6260    0.1560   10.8240 os        1 PBS     -0.451600
     32 CG1        19.7810   -0.4660   11.3660 c3        1 PBS      0.303900
     33 OG         19.3310   -1.7400   11.7820 os        1 PBS     -0.462600
     34 CG         19.0250   -2.6660   10.7290 c3        1 PBS      0.105100
     35 CG5        18.6440   -3.9670   11.4470 c3        1 PBS      0.130400
     36 OG6        17.9840   -3.6500   12.6620 oh        1 PBS     -0.644800
     37 CG4        20.1850   -2.8570    9.7480 c3        1 PBS      0.129100
     38 OG5        21.2670   -3.4410   10.4470 oh        1 PBS     -0.596800
     39 CG3        20.5620   -1.4850    9.1620 c3        1 PBS      0.118100
     40 OG4        21.7010   -1.7010    8.3540 oh        1 PBS     -0.596800
     41 CG2        20.8940   -0.5100   10.3030 c3        1 PBS      0.095100
     42 OG3        21.0760    0.7530    9.7010 oh        1 PBS     -0.577800
     43 H171       -0.0570   -0.1430   -1.1900 hc        1 PBS      0.033367
     44 H172       -0.2360   -0.7560    0.5050 hc        1 PBS      0.033367
     45 H173        0.0070    1.0120    0.2040 hc        1 PBS      0.033367
     46 H161        2.0560   -1.2260   -0.4260 hc        1 PBS      0.038700
     47 H162        2.2980    0.5370   -0.7260 hc        1 PBS      0.038700
     48 H151        2.0220    0.9930    1.7340 hc        1 PBS      0.039700
     49 H152        1.7800   -0.7700    2.0340 hc        1 PBS      0.039700
     50 H141        4.2990    0.5170    0.7670 hc        1 PBS      0.039700
     51 H142        4.0570   -1.2470    1.0670 hc        1 PBS      0.039700
     52 H131        4.0240    0.9730    3.2290 hc        1 PBS      0.040200
     53 H132        3.7820   -0.7900    3.5300 hc        1 PBS      0.040200
     54 H121        6.3010    0.4960    2.2630 hc        1 PBS      0.040200
     55 H122        6.0590   -1.2670    2.5630 hc        1 PBS      0.040200
     56 H111        5.7840   -0.8100    5.0250 hc        1 PBS      0.040200
     57 H112        6.0260    0.9530    4.7240 hc        1 PBS      0.040200
     58 H101        8.0610   -1.2880    4.0580 hc        1 PBS      0.040700
     59 H102        8.3030    0.4760    3.7580 hc        1 PBS      0.040700
     60 H91         8.0280    0.9330    6.2200 hc        1 PBS      0.040700
     61 H92         7.7850   -0.8310    6.5200 hc        1 PBS      0.040700
     62 H81        10.3040    0.4560    5.2530 hc        1 PBS      0.042200
     63 H82        10.0620   -1.3080    5.5530 hc        1 PBS      0.042200
     64 H71        10.0300    0.9130    7.7150 hc        1 PBS      0.042200
     65 H72         9.7850   -0.8510    8.0150 hc        1 PBS      0.042200
     66 H61        12.3060    0.4360    6.7490 hc        1 PBS      0.045700
     67 H62        12.0630   -1.3290    7.0460 hc        1 PBS      0.045700
     68 H51        12.0290    0.8910    9.2090 hc        1 PBS      0.043700
     69 H52        11.7810   -0.8730    9.5080 hc        1 PBS      0.043700
     70 H41        14.3030    0.4550    8.2770 hc        1 PBS      0.070200
     71 H42        14.0770   -1.3310    8.5010 hc        1 PBS      0.070200
     72 H3         13.8580    0.7060   10.8360 h1        1 PBS      0.076700
     73 H32        13.2270   -1.7650   10.7600 ho        1 PBS      0.448000
     74 H2         16.3220   -0.9620    9.8610 h1        1 PBS      0.056700
     75 HO1        17.0550    1.0300    9.2850 ho        1 PBS      0.437000
     76 H1         15.6970    0.7930   12.3570 hx        1 PBS      0.124700
     77 HN         17.3720   -1.6500   12.3530 hn        1 PBS      0.484300
     78 H191       14.6660   -2.4700   14.3480 hc        1 PBS      0.107200
     79 H192       16.3280   -3.2150   14.3220 hc        1 PBS      0.107200
     80 H201       16.8730   -2.0590   16.4990 hc        1 PBS      0.066700
     81 H202       15.2350   -1.2990   16.5180 hc        1 PBS      0.066700
     82 H211       14.1700   -3.5850   16.5180 hc        1 PBS      0.047200
     83 H212       15.8070   -4.3510   16.4880 hc        1 PBS      0.047200
     84 H221       14.7450   -2.4410   18.6870 hc        1 PBS      0.046700
     85 H222       16.3800   -3.2070   18.6580 hc        1 PBS      0.046700
     86 H231       13.6770   -4.7230   18.6840 hc        1 PBS      0.042200
     87 H232       15.3120   -5.4890   18.6540 hc        1 PBS      0.042200
     88 H241       14.2510   -3.5800   20.8520 hc        1 PBS      0.041200
     89 H242       15.8860   -4.3450   20.8230 hc        1 PBS      0.041200
     90 H251       13.1820   -5.8590   20.8880 hc        1 PBS      0.037700
     91 H252       14.8220   -6.6270   20.8590 hc        1 PBS      0.037700
     92 H253       14.3180   -5.6230   22.2800 hc        1 PBS      0.037700
     93 H1A        17.6290    1.8520   11.3660 h1        1 PBS      0.094200
     94 H2A        18.2250    0.8550   12.7900 h1        1 PBS      0.094200
     95 HG1        20.1410    0.0360   12.3090 h2        1 PBS      0.091700
     96 HG         18.1470   -2.2560   10.1520 h1        1 PBS      0.042700
     97 HG51       17.8990   -4.5400   10.8350 h1        1 PBS      0.086200
     98 HG52       19.5570   -4.5920   11.6320 h1        1 PBS      0.086200
     99 HG6        18.6740   -3.5130   13.3260 ho        1 PBS      0.429000
    100 HG4        19.8620   -3.5410    8.9130 h1        1 PBS      0.073700
    101 HG5        22.0150   -3.4660    9.8310 ho        1 PBS      0.442000
    102 HG3        19.7150   -1.0720    8.5470 h1        1 PBS      0.068700
    103 H4         21.9600   -0.8400    7.9950 ho        1 PBS      0.438000
    104 HG2        21.8340   -0.8590   10.8190 h1        1 PBS      0.087700
    105 H5         21.5010    1.3270   10.3510 ho        1 PBS      0.419000
    106 HN3        15.7230   -1.8210   12.1480 hn        1 PBS      0.484300
@<TRIPOS>BOND
     1    1    2 1   
     2    1   43 1   
     3    1   44 1   
     4    1   45 1   
     5    2    3 1   
     6    2   46 1   
     7    2   47 1   
     8    3    4 1   
     9    3   48 1   
    10    3   49 1   
    11    4    5 1   
    12    4   50 1   
    13    4   51 1   
    14    5    6 1   
    15    5   52 1   
    16    5   53 1   
    17    6    7 1   
    18    6   54 1   
    19    6   55 1   
    20    7    8 1   
    21    7   56 1   
    22    7   57 1   
    23    8    9 1   
    24    8   58 1   
    25    8   59 1   
    26    9   10 1   
    27    9   60 1   
    28    9   61 1   
    29   10   11 1   
    30   10   62 1   
    31   10   63 1   
    32   11   12 1   
    33   11   64 1   
    34   11   65 1   
    35   12   13 1   
    36   12   66 1   
    37   12   67 1   
    38   13   14 1   
    39   13   68 1   
    40   13   69 1   
    41   14   15 1   
    42   14   70 1   
    43   14   71 1   
    44   15   16 1   
    45   15   17 1   
    46   15   72 1   
    47   16   73 1   
    48   17   18 1   
    49   17   19 1   
    50   17   74 1   
    51   18   75 1   
    52   19   20 1   
    53   19   30 1   
    54   19   76 1   
    55   20   21 1   
    56   20   77 1   
    57   20  106 1   
    58   21   22 2   
    59   21   23 1   
    60   23   24 1   
    61   23   78 1   
    62   23   79 1   
    63   24   25 1   
    64   24   80 1   
    65   24   81 1   
    66   25   26 1   
    67   25   82 1   
    68   25   83 1   
    69   26   27 1   
    70   26   84 1   
    71   26   85 1   
    72   27   28 1   
    73   27   86 1   
    74   27   87 1   
    75   28   29 1   
    76   28   88 1   
    77   28   89 1   
    78   29   90 1   
    79   29   91 1   
    80   29   92 1   
    81   30   31 1   
    82   30   93 1   
    83   30   94 1   
    84   31   32 1   
    85   32   33 1   
    86   32   41 1   
    87   32   95 1   
    88   33   34 1   
    89   34   35 1   
    90   34   37 1   
    91   34   96 1   
    92   35   36 1   
    93   35   97 1   
    94   35   98 1   
    95   36   99 1   
    96   37   38 1   
    97   37   39 1   
    98   37  100 1   
    99   38  101 1   
   100   39   40 1   
   101   39   41 1   
   102   39  102 1   
   103   40  103 1   
   104   41   42 1   
   105   41  104 1   
   106   42  105 1   
@<TRIPOS>SUBSTRUCTURE
     1 PBS         1 TEMP              0 ****  ****    0 ROOT
