@<TRIPOS>MOLECULE
PBS
  106   106     1     0     0
SMALL
bcc


@<TRIPOS>ATOM
      1 C17         0.3070    0.0070   -0.2060 c3        1 PBS     -0.093100
      2 C16         1.7980   -0.1910   -0.1130 c3        1 PBS     -0.080400
      3 C15         2.2950   -0.0090    1.3060 c3        1 PBS     -0.079400
      4 C14         3.7930   -0.2090    1.3950 c3        1 PBS     -0.079400
      5 C13         4.2880   -0.0260    2.8130 c3        1 PBS     -0.079400
      6 C12         5.7860   -0.2260    2.9020 c3        1 PBS     -0.079400
      7 C11         6.2810   -0.0440    4.3210 c3        1 PBS     -0.079400
      8 C10         7.7790   -0.2450    4.4100 c3        1 PBS     -0.079400
      9 C9          8.2730   -0.0630    5.8290 c3        1 PBS     -0.079400
     10 C8          9.7710   -0.2650    5.9170 c3        1 PBS     -0.079400
     11 C7         10.2650   -0.0830    7.3370 c3        1 PBS     -0.079400
     12 C6         11.7620   -0.2870    7.4240 c3        1 PBS     -0.079400
     13 C5         12.2550   -0.1060    8.8450 c3        1 PBS     -0.082400
     14 C4         13.7530   -0.3090    8.9270 c3        1 PBS     -0.118400
     15 C3         14.2620   -0.1650   10.3550 c3        1 PBS      0.140100
     16 O32        13.9500   -1.2980   11.1620 oh        1 PBS     -0.669800
     17 C2         15.8030   -0.0370   10.3690 c3        1 PBS      0.140100
     18 O1         16.1030    1.1310    9.6360 oh        1 PBS     -0.569800
     19 C1         16.3470    0.1350   11.8200 c3        1 PBS      0.073500
     20 N          16.4000   -1.1780   12.5400 ny        1 PBS     -0.685800
     21 C18        16.2150   -1.0730   14.0350 c         1 PBS      0.556100
     22 O2         16.4930   -0.0050   14.5590 o         1 PBS     -0.434100
     23 C19        15.7080   -2.3270   14.6880 c3        1 PBS     -0.159400
     24 C20        15.8290   -2.2330   16.1970 c3        1 PBS     -0.081400
     25 C21        15.2700   -3.4820   16.8470 c3        1 PBS     -0.080400
     26 C22        15.3930   -3.4040   18.3540 c3        1 PBS     -0.079400
     27 C23        14.8360   -4.6500   19.0100 c3        1 PBS     -0.079400
     28 C24        14.9570   -4.5750   20.5180 c3        1 PBS     -0.079400
     29 C25        14.4040   -5.8120   21.1760 c3        1 PBS     -0.095100
     30 C          17.7210    0.8350   11.8010 c3        1 PBS      0.109400
     31 OC1        18.5880    0.1550   10.9040 os        1 PBS     -0.452600
     32 CG1        19.7260   -0.4500   11.4950 c3        1 PBS      0.336900
     33 OG         19.2830   -1.7480   11.8410 os        1 PBS     -0.464600
     34 CG         19.0110   -2.6210   10.7360 c3        1 PBS      0.108100
     35 CG5        18.5890   -3.9480   11.3800 c3        1 PBS      0.131400
     36 OG6        17.8860   -3.6740   12.5810 oh        1 PBS     -0.643800
     37 CG4        20.2100   -2.7700    9.7970 c3        1 PBS      0.096100
     38 OG5        21.2490   -3.4260   10.4990 oh        1 PBS     -0.591800
     39 CG3        20.6370   -1.3760    9.3060 c3        1 PBS      0.067100
     40 OG4        21.8730   -1.4680    8.6170 oh        1 PBS     -0.597800
     41 CG2        20.9030   -0.4520   10.5050 c3        1 PBS      0.139100
     42 OG3        21.0920    0.8830   10.0890 oh        1 PBS     -0.581800
     43 H171       -0.2300   -0.7290    0.4400 hc        1 PBS      0.033700
     44 H172       -0.0370   -0.1320   -1.2590 hc        1 PBS      0.033700
     45 H173        0.0250    1.0350    0.1250 hc        1 PBS      0.033700
     46 H161        2.0650   -1.2200   -0.4730 hc        1 PBS      0.038700
     47 H162        2.3190    0.5390   -0.7880 hc        1 PBS      0.038700
     48 H151        1.7770   -0.7400    1.9810 hc        1 PBS      0.039700
     49 H152        2.0300    1.0200    1.6670 hc        1 PBS      0.039700
     50 H141        4.0570   -1.2380    1.0330 hc        1 PBS      0.039700
     51 H142        4.3100    0.5220    0.7190 hc        1 PBS      0.039700
     52 H131        4.0240    1.0030    3.1740 hc        1 PBS      0.040200
     53 H132        3.7700   -0.7570    3.4890 hc        1 PBS      0.040200
     54 H121        6.0500   -1.2550    2.5410 hc        1 PBS      0.040200
     55 H122        6.3030    0.5040    2.2260 hc        1 PBS      0.040200
     56 H111        6.0170    0.9850    4.6820 hc        1 PBS      0.040200
     57 H112        5.7620   -0.7740    4.9970 hc        1 PBS      0.040200
     58 H101        8.0420   -1.2740    4.0480 hc        1 PBS      0.040700
     59 H102        8.2960    0.4860    3.7340 hc        1 PBS      0.040700
     60 H91         8.0100    0.9670    6.1890 hc        1 PBS      0.041200
     61 H92         7.7540   -0.7930    6.5040 hc        1 PBS      0.041200
     62 H81        10.2890    0.4660    5.2420 hc        1 PBS      0.041700
     63 H82        10.0330   -1.2940    5.5550 hc        1 PBS      0.041700
     64 H71        10.0030    0.9470    7.6970 hc        1 PBS      0.042200
     65 H72         9.7440   -0.8120    8.0120 hc        1 PBS      0.042200
     66 H61        12.0240   -1.3160    7.0610 hc        1 PBS      0.045700
     67 H62        12.2820    0.4440    6.7500 hc        1 PBS      0.045700
     68 H51        11.9940    0.9250    9.2040 hc        1 PBS      0.043700
     69 H52        11.7290   -0.8340    9.5170 hc        1 PBS      0.043700
     70 H41        14.0260   -1.3230    8.5340 hc        1 PBS      0.069700
     71 H42        14.2690    0.4580    8.2880 hc        1 PBS      0.069700
     72 H3         13.8090    0.7450   10.8420 h1        1 PBS      0.076700
     73 H32        13.1450   -1.7020   10.8120 ho        1 PBS      0.448000
     74 H2         16.2700   -0.9420    9.8900 h1        1 PBS      0.053700
     75 HO1        17.0220    1.0580    9.3360 ho        1 PBS      0.436000
     76 H1         15.6340    0.8070   12.3870 hx        1 PBS      0.124700
     77 HN         17.3170   -1.6340   12.3630 hn        1 PBS      0.484300
     78 H191       14.6290   -2.4640   14.3970 hc        1 PBS      0.106200
     79 H192       16.2840   -3.2170   14.3070 hc        1 PBS      0.106200
     80 H201       15.2750   -1.3290   16.5660 hc        1 PBS      0.066700
     81 H202       16.9050   -2.1020   16.4840 hc        1 PBS      0.066700
     82 H211       14.1910   -3.6070   16.5640 hc        1 PBS      0.047700
     83 H212       15.8200   -4.3850   16.4710 hc        1 PBS      0.047700
     84 H221       16.4710   -3.2790   18.6390 hc        1 PBS      0.046700
     85 H222       14.8440   -2.5020   18.7320 hc        1 PBS      0.046700
     86 H231       15.3850   -5.5530   18.6340 hc        1 PBS      0.042200
     87 H232       13.7580   -4.7750   18.7270 hc        1 PBS      0.042200
     88 H241       16.0360   -4.4480   20.8000 hc        1 PBS      0.041700
     89 H242       14.4090   -3.6710   20.8930 hc        1 PBS      0.041700
     90 H251       13.3230   -5.9430   20.9270 hc        1 PBS      0.037700
     91 H252       14.9540   -6.7220   20.8340 hc        1 PBS      0.037700
     92 H253       14.5030   -5.7370   22.2860 hc        1 PBS      0.037700
     93 H1A        18.1410    0.9140   12.8380 h1        1 PBS      0.097200
     94 H2A        17.5800    1.8690   11.3760 h1        1 PBS      0.097200
     95 HG1        20.0300    0.0330   12.4670 h2        1 PBS      0.108700
     96 HG         18.1600   -2.1780   10.1440 h1        1 PBS      0.043700
     97 HG51       17.8620   -4.4850   10.7150 h1        1 PBS      0.085700
     98 HG52       19.4870   -4.5920   11.5730 h1        1 PBS      0.085700
     99 HG6        18.5510   -3.5750   13.2760 ho        1 PBS      0.428000
    100 HG4        19.9110   -3.4070    8.9160 h1        1 PBS      0.058700
    101 HG5        22.0760   -3.2410   10.0270 ho        1 PBS      0.435000
    102 HG3        19.8390   -0.9330    8.6500 h1        1 PBS      0.071700
    103 H4         21.6870   -1.8020    7.7310 ho        1 PBS      0.425000
    104 HG2        21.8120   -0.8300   11.0570 h1        1 PBS      0.085700
    105 H5         21.8600    0.8790    9.4980 ho        1 PBS      0.437000
    106 HN3        15.6670   -1.8020   12.1680 hn        1 PBS      0.484300
@<TRIPOS>BOND
     1    1    2 1   
     2    1   43 1   
     3    1   44 1   
     4    1   45 1   
     5    2    3 1   
     6    2   46 1   
     7    2   47 1   
     8    3    4 1   
     9    3   48 1   
    10    3   49 1   
    11    4    5 1   
    12    4   50 1   
    13    4   51 1   
    14    5    6 1   
    15    5   52 1   
    16    5   53 1   
    17    6    7 1   
    18    6   54 1   
    19    6   55 1   
    20    7    8 1   
    21    7   56 1   
    22    7   57 1   
    23    8    9 1   
    24    8   58 1   
    25    8   59 1   
    26    9   10 1   
    27    9   60 1   
    28    9   61 1   
    29   10   11 1   
    30   10   62 1   
    31   10   63 1   
    32   11   12 1   
    33   11   64 1   
    34   11   65 1   
    35   12   13 1   
    36   12   66 1   
    37   12   67 1   
    38   13   14 1   
    39   13   68 1   
    40   13   69 1   
    41   14   15 1   
    42   14   70 1   
    43   14   71 1   
    44   15   16 1   
    45   15   17 1   
    46   15   72 1   
    47   16   73 1   
    48   17   18 1   
    49   17   19 1   
    50   17   74 1   
    51   18   75 1   
    52   19   20 1   
    53   19   30 1   
    54   19   76 1   
    55   20   21 1   
    56   20   77 1   
    57   20  106 1   
    58   21   22 2   
    59   21   23 1   
    60   23   24 1   
    61   23   78 1   
    62   23   79 1   
    63   24   25 1   
    64   24   80 1   
    65   24   81 1   
    66   25   26 1   
    67   25   82 1   
    68   25   83 1   
    69   26   27 1   
    70   26   84 1   
    71   26   85 1   
    72   27   28 1   
    73   27   86 1   
    74   27   87 1   
    75   28   29 1   
    76   28   88 1   
    77   28   89 1   
    78   29   90 1   
    79   29   91 1   
    80   29   92 1   
    81   30   31 1   
    82   30   93 1   
    83   30   94 1   
    84   31   32 1   
    85   32   33 1   
    86   32   41 1   
    87   32   95 1   
    88   33   34 1   
    89   34   35 1   
    90   34   37 1   
    91   34   96 1   
    92   35   36 1   
    93   35   97 1   
    94   35   98 1   
    95   36   99 1   
    96   37   38 1   
    97   37   39 1   
    98   37  100 1   
    99   38  101 1   
   100   39   40 1   
   101   39   41 1   
   102   39  102 1   
   103   40  103 1   
   104   41   42 1   
   105   41  104 1   
   106   42  105 1   
@<TRIPOS>SUBSTRUCTURE
     1 PBS         1 TEMP              0 ****  ****    0 ROOT
