@<TRIPOS>MOLECULE
PBS
  106   106     1     0     0
SMALL
bcc


@<TRIPOS>ATOM
      1 C17         0.2970   -0.0040   -0.1440 c3        1 PBS     -0.093100
      2 C16         1.7920   -0.1790   -0.0640 c3        1 PBS     -0.080400
      3 C15         2.2920   -0.0310    1.3580 c3        1 PBS     -0.079400
      4 C14         3.7930   -0.2070    1.4340 c3        1 PBS     -0.079400
      5 C13         4.2920   -0.0580    2.8560 c3        1 PBS     -0.079400
      6 C12         5.7940   -0.2330    2.9320 c3        1 PBS     -0.079400
      7 C11         6.2930   -0.0830    4.3530 c3        1 PBS     -0.079400
      8 C10         7.7940   -0.2590    4.4290 c3        1 PBS     -0.079400
      9 C9          8.2920   -0.1050    5.8510 c3        1 PBS     -0.079400
     10 C8          9.7940   -0.2820    5.9270 c3        1 PBS     -0.079400
     11 C7         10.2920   -0.1260    7.3480 c3        1 PBS     -0.079400
     12 C6         11.7930   -0.3040    7.4230 c3        1 PBS     -0.079400
     13 C5         12.2910   -0.1450    8.8450 c3        1 PBS     -0.082400
     14 C4         13.7930   -0.3200    8.9150 c3        1 PBS     -0.118400
     15 C3         14.3060   -0.2010   10.3440 c3        1 PBS      0.139100
     16 O32        14.0120   -1.3550   11.1280 oh        1 PBS     -0.670800
     17 C2         15.8450   -0.0510   10.3540 c3        1 PBS      0.140100
     18 O1         16.1290    1.1280    9.6340 oh        1 PBS     -0.570800
     19 C1         16.3910    0.1170   11.8040 c3        1 PBS      0.075500
     20 N          16.4500   -1.1940   12.5250 n4        1 PBS     -0.686800
     21 C18        16.2510   -1.0900   14.0180 c         1 PBS      0.557100
     22 O2         16.5320   -0.0230   14.5450 o         1 PBS     -0.436100
     23 C19        15.7350   -2.3420   14.6660 c3        1 PBS     -0.159400
     24 C20        15.8000   -2.2330   16.1770 c3        1 PBS     -0.081400
     25 C21        15.2390   -3.4840   16.8200 c3        1 PBS     -0.080400
     26 C22        15.3070   -3.3900   18.3290 c3        1 PBS     -0.079400
     27 C23        14.7450   -4.6380   18.9780 c3        1 PBS     -0.079400
     28 C24        14.8120   -4.5470   20.4880 c3        1 PBS     -0.079400
     29 C25        14.2540   -5.7860   21.1380 c3        1 PBS     -0.095100
     30 C          17.7620    0.8230   11.7820 c3        1 PBS      0.107400
     31 OC1        18.6150    0.1840   10.8420 os        1 PBS     -0.451600
     32 CG1        19.7740   -0.4310   11.3820 c3        1 PBS      0.303900
     33 OG         19.3340   -1.7110   11.7890 os        1 PBS     -0.462600
     34 CG         19.0380   -2.6330   10.7310 c3        1 PBS      0.105100
     35 CG5        18.6670   -3.9420   11.4410 c3        1 PBS      0.130400
     36 OG6        18.0020   -3.6380   12.6570 oh        1 PBS     -0.644800
     37 CG4        20.2010   -2.8090    9.7510 c3        1 PBS      0.129100
     38 OG5        21.2870   -3.3870   10.4480 oh        1 PBS     -0.596800
     39 CG3        20.5670   -1.4300    9.1730 c3        1 PBS      0.118100
     40 OG4        21.7090   -1.6310    8.3660 oh        1 PBS     -0.596800
     41 CG2        20.8890   -0.4590   10.3200 c3        1 PBS      0.095100
     42 OG3        21.0610    0.8100    9.7260 oh        1 PBS     -0.577800
     43 H171       -0.0500   -0.1170   -1.2000 hc        1 PBS      0.033367
     44 H172       -0.0020    1.0080    0.2190 hc        1 PBS      0.033367
     45 H173       -0.2240   -0.7690    0.4810 hc        1 PBS      0.033367
     46 H161        2.2960    0.5810   -0.7180 hc        1 PBS      0.038700
     47 H162        2.0750   -1.1910   -0.4560 hc        1 PBS      0.038700
     48 H151        2.0110    0.9810    1.7510 hc        1 PBS      0.039700
     49 H152        1.7900   -0.7910    2.0130 hc        1 PBS      0.039700
     50 H141        4.0740   -1.2190    1.0410 hc        1 PBS      0.039700
     51 H142        4.2950    0.5530    0.7780 hc        1 PBS      0.039700
     52 H131        3.7910   -0.8170    3.5120 hc        1 PBS      0.040200
     53 H132        4.0120    0.9550    3.2480 hc        1 PBS      0.040200
     54 H121        6.2950    0.5250    2.2750 hc        1 PBS      0.040200
     55 H122        6.0740   -1.2470    2.5400 hc        1 PBS      0.040200
     56 H111        5.7910   -0.8410    5.0100 hc        1 PBS      0.040200
     57 H112        6.0120    0.9310    4.7440 hc        1 PBS      0.040200
     58 H101        8.0740   -1.2720    4.0390 hc        1 PBS      0.040700
     59 H102        8.2950    0.4990    3.7710 hc        1 PBS      0.040700
     60 H91         7.7900   -0.8630    6.5090 hc        1 PBS      0.040700
     61 H92         8.0120    0.9090    6.2400 hc        1 PBS      0.040700
     62 H81        10.2950    0.4750    5.2670 hc        1 PBS      0.042200
     63 H82        10.0730   -1.2970    5.5380 hc        1 PBS      0.042200
     64 H71        10.0130    0.8890    7.7350 hc        1 PBS      0.042200
     65 H72         9.7890   -0.8820    8.0070 hc        1 PBS      0.042200
     66 H61        12.2950    0.4530    6.7640 hc        1 PBS      0.045700
     67 H62        12.0720   -1.3190    7.0360 hc        1 PBS      0.045700
     68 H51        12.0110    0.8710    9.2290 hc        1 PBS      0.043700
     69 H52        11.7830   -0.8990    9.5040 hc        1 PBS      0.043700
     70 H41        14.2900    0.4730    8.2930 hc        1 PBS      0.070200
     71 H42        14.0850   -1.3180    8.4950 hc        1 PBS      0.070200
     72 H3         13.8410    0.6900   10.8530 h1        1 PBS      0.076700
     73 H32        13.2400   -1.7910   10.7450 ho        1 PBS      0.448000
     74 H2         16.3240   -0.9460    9.8670 h1        1 PBS      0.056700
     75 HO1        17.0390    1.0570    9.3070 ho        1 PBS      0.437000
     76 H1         15.6780    0.7870   12.3740 hx        1 PBS      0.124700
     77 HN         17.3730   -1.6410   12.3580 hn        1 PBS      0.484300
     78 H191       16.3370   -3.2270   14.3150 hc        1 PBS      0.107200
     79 H192       14.6690   -2.4980   14.3380 hc        1 PBS      0.107200
     80 H201       15.2190   -1.3340   16.5180 hc        1 PBS      0.066700
     81 H202       16.8640   -2.0810   16.5010 hc        1 PBS      0.066700
     82 H211       15.8170   -4.3810   16.4720 hc        1 PBS      0.047200
     83 H212       14.1730   -3.6300   16.5000 hc        1 PBS      0.047200
     84 H221       16.3720   -3.2450   18.6510 hc        1 PBS      0.046700
     85 H222       14.7300   -2.4930   18.6780 hc        1 PBS      0.046700
     86 H231       15.3210   -5.5360   18.6300 hc        1 PBS      0.042200
     87 H232       13.6800   -4.7830   18.6570 hc        1 PBS      0.042200
     88 H241       15.8770   -4.4010   20.8070 hc        1 PBS      0.041200
     89 H242       14.2360   -3.6480   20.8340 hc        1 PBS      0.041200
     90 H251       14.8300   -6.6910   20.8260 hc        1 PBS      0.038033
     91 H252       14.3120   -5.6990   22.2500 hc        1 PBS      0.038033
     92 H253       13.1840   -5.9360   20.8520 hc        1 PBS      0.038033
     93 H1A        18.2040    0.8670   12.8120 h1        1 PBS      0.094200
     94 H2A        17.6030    1.8690   11.3940 h1        1 PBS      0.094200
     95 HG1        20.1280    0.0680   12.3290 h2        1 PBS      0.091700
     96 HG         18.1570   -2.2270   10.1550 h1        1 PBS      0.042700
     97 HG51       17.9280   -4.5180   10.8240 h1        1 PBS      0.086200
     98 HG52       19.5850   -4.5600   11.6240 h1        1 PBS      0.086200
     99 HG6        18.6890   -3.4990   13.3220 ho        1 PBS      0.429000
    100 HG4        19.8850   -3.4900    8.9110 h1        1 PBS      0.073700
    101 HG5        22.0360   -3.4020    9.8330 ho        1 PBS      0.442000
    102 HG3        19.7180   -1.0210    8.5600 h1        1 PBS      0.068700
    103 H4         21.9620   -0.7660    8.0120 ho        1 PBS      0.438000
    104 HG2        21.8320   -0.8030   10.8360 h1        1 PBS      0.087700
    105 H5         21.4800    1.3830   10.3810 ho        1 PBS      0.419000
    106 HN3        15.7270   -1.8250   12.1470 hn        1 PBS      0.484300
@<TRIPOS>BOND
     1    1    2 1   
     2    1   43 1   
     3    1   44 1   
     4    1   45 1   
     5    2    3 1   
     6    2   46 1   
     7    2   47 1   
     8    3    4 1   
     9    3   48 1   
    10    3   49 1   
    11    4    5 1   
    12    4   50 1   
    13    4   51 1   
    14    5    6 1   
    15    5   52 1   
    16    5   53 1   
    17    6    7 1   
    18    6   54 1   
    19    6   55 1   
    20    7    8 1   
    21    7   56 1   
    22    7   57 1   
    23    8    9 1   
    24    8   58 1   
    25    8   59 1   
    26    9   10 1   
    27    9   60 1   
    28    9   61 1   
    29   10   11 1   
    30   10   62 1   
    31   10   63 1   
    32   11   12 1   
    33   11   64 1   
    34   11   65 1   
    35   12   13 1   
    36   12   66 1   
    37   12   67 1   
    38   13   14 1   
    39   13   68 1   
    40   13   69 1   
    41   14   15 1   
    42   14   70 1   
    43   14   71 1   
    44   15   16 1   
    45   15   17 1   
    46   15   72 1   
    47   16   73 1   
    48   17   18 1   
    49   17   19 1   
    50   17   74 1   
    51   18   75 1   
    52   19   20 1   
    53   19   30 1   
    54   19   76 1   
    55   20   21 1   
    56   20   77 1   
    57   20  106 1   
    58   21   22 2   
    59   21   23 1   
    60   23   24 1   
    61   23   78 1   
    62   23   79 1   
    63   24   25 1   
    64   24   80 1   
    65   24   81 1   
    66   25   26 1   
    67   25   82 1   
    68   25   83 1   
    69   26   27 1   
    70   26   84 1   
    71   26   85 1   
    72   27   28 1   
    73   27   86 1   
    74   27   87 1   
    75   28   29 1   
    76   28   88 1   
    77   28   89 1   
    78   29   90 1   
    79   29   91 1   
    80   29   92 1   
    81   30   31 1   
    82   30   93 1   
    83   30   94 1   
    84   31   32 1   
    85   32   33 1   
    86   32   41 1   
    87   32   95 1   
    88   33   34 1   
    89   34   35 1   
    90   34   37 1   
    91   34   96 1   
    92   35   36 1   
    93   35   97 1   
    94   35   98 1   
    95   36   99 1   
    96   37   38 1   
    97   37   39 1   
    98   37  100 1   
    99   38  101 1   
   100   39   40 1   
   101   39   41 1   
   102   39  102 1   
   103   40  103 1   
   104   41   42 1   
   105   41  104 1   
   106   42  105 1   
@<TRIPOS>SUBSTRUCTURE
     1 PBS         1 TEMP              0 ****  ****    0 ROOT
