@<TRIPOS>MOLECULE
PBS
  105   105     1     0     0
SMALL
bcc


@<TRIPOS>ATOM
      1 C17        17.1390   -1.4290    1.1790 c3        1 PBS     -0.092100
      2 C16        16.0220   -0.4520    0.9190 c3        1 PBS     -0.080400
      3 C15        14.6800   -1.1490    0.8380 c3        1 PBS     -0.079400
      4 C14        13.5620   -0.1630    0.5780 c3        1 PBS     -0.079400
      5 C13        12.2210   -0.8620    0.4970 c3        1 PBS     -0.079400
      6 C12        11.1030    0.1240    0.2360 c3        1 PBS     -0.079400
      7 C11         9.7620   -0.5740    0.1550 c3        1 PBS     -0.079400
      8 C10         8.6440    0.4120   -0.1050 c3        1 PBS     -0.079400
      9 C9          7.3030   -0.2870   -0.1860 c3        1 PBS     -0.079400
     10 C8          6.1850    0.6990   -0.4470 c3        1 PBS     -0.079400
     11 C7          4.8450    0.0000   -0.5270 c3        1 PBS     -0.079400
     12 C6          3.7260    0.9860   -0.7890 c3        1 PBS     -0.078400
     13 C5          2.3860    0.2860   -0.8650 c3        1 PBS     -0.080400
     14 C4          1.2700    1.2700   -1.1390 c3        1 PBS     -0.107400
     15 C3         -0.0890    0.5800   -1.1270 c3        1 PBS      0.102100
     16 O32        -0.3450   -0.0440    0.1240 oh        1 PBS     -0.600800
     17 C2         -1.2270    1.5720   -1.4390 c3        1 PBS      0.088100
     18 O1         -0.8250    2.5640   -2.3650 oh        1 PBS     -0.590800
     19 C1         -2.5050    0.8690   -1.9840 c3        1 PBS      0.071700
     20 N          -2.8290   -0.3750   -1.3390 n         1 PBS     -0.544900
     21 C18        -2.4760   -1.5950   -1.8930 c         1 PBS      0.663100
     22 O2         -1.9930   -1.6650   -3.0420 o         1 PBS     -0.621100
     23 C19        -2.7280   -2.8400   -1.0640 c3        1 PBS     -0.151400
     24 C20        -4.1900   -3.0100   -0.7130 c3        1 PBS     -0.075400
     25 C21        -4.4180   -4.3250    0.0040 c3        1 PBS     -0.079400
     26 C22        -5.8760   -4.5000    0.3710 c3        1 PBS     -0.079400
     27 C23        -6.1090   -5.8170    1.0790 c3        1 PBS     -0.079400
     28 C24        -7.5660   -5.9930    1.4480 c3        1 PBS     -0.080400
     29 C25        -7.8040   -7.3040    2.1520 c3        1 PBS     -0.093100
     30 C          -3.6680    1.8810   -1.9110 c3        1 PBS      0.125400
     31 OC1        -3.9200    2.1620   -0.5310 os        1 PBS     -0.474600
     32 CG1        -5.0820    2.9450   -0.3170 c3        1 PBS      0.309900
     33 OG         -6.1910    2.1020   -0.5200 os        1 PBS     -0.432600
     34 CG         -6.3390    1.0350    0.4230 c3        1 PBS      0.106100
     35 CG5        -7.6690    0.3640    0.0640 c3        1 PBS      0.142400
     36 OG6        -7.6020   -0.2480   -1.2060 oh        1 PBS     -0.598800
     37 CG4        -6.3410    1.5190    1.8780 c3        1 PBS      0.126100
     38 OG5        -7.5210    2.2680    2.1060 oh        1 PBS     -0.593800
     39 CG3        -5.0830    2.3630    2.1390 c3        1 PBS      0.078100
     40 OG4        -5.1990    2.8710    3.4570 oh        1 PBS     -0.606800
     41 CG2        -4.9920    3.5030    1.1140 c3        1 PBS      0.092100
     42 OG3        -3.8090    4.2480    1.3080 oh        1 PBS     -0.592800
     43 H171       16.9750   -1.9680    2.1430 hc        1 PBS      0.032700
     44 H172       17.1970   -2.1880    0.3610 hc        1 PBS      0.032700
     45 H173       18.1170   -0.8950    1.2340 hc        1 PBS      0.032700
     46 H161       15.9950    0.3160    1.7370 hc        1 PBS      0.038700
     47 H162       16.2160    0.0970   -0.0410 hc        1 PBS      0.038700
     48 H151       14.7050   -1.9160    0.0200 hc        1 PBS      0.039700
     49 H152       14.4840   -1.6960    1.7980 hc        1 PBS      0.039700
     50 H141       13.5380    0.6040    1.3960 hc        1 PBS      0.039700
     51 H142       13.7590    0.3840   -0.3820 hc        1 PBS      0.039700
     52 H131       12.2450   -1.6280   -0.3220 hc        1 PBS      0.039700
     53 H132       12.0240   -1.4090    1.4560 hc        1 PBS      0.039700
     54 H121       11.0790    0.8910    1.0550 hc        1 PBS      0.039700
     55 H122       11.3000    0.6710   -0.7230 hc        1 PBS      0.039700
     56 H111        9.7860   -1.3410   -0.6630 hc        1 PBS      0.039700
     57 H112        9.5650   -1.1220    1.1150 hc        1 PBS      0.039700
     58 H101        8.6200    1.1780    0.7130 hc        1 PBS      0.039700
     59 H102        8.8410    0.9590   -1.0650 hc        1 PBS      0.039700
     60 H91         7.3270   -1.0540   -1.0050 hc        1 PBS      0.040200
     61 H92         7.1060   -0.8340    0.7730 hc        1 PBS      0.040200
     62 H81         6.1610    1.4660    0.3710 hc        1 PBS      0.039200
     63 H82         6.3820    1.2460   -1.4070 hc        1 PBS      0.039200
     64 H71         4.8690   -0.7670   -1.3450 hc        1 PBS      0.041200
     65 H72         4.6470   -0.5470    0.4320 hc        1 PBS      0.041200
     66 H61         3.7050    1.7560    0.0270 hc        1 PBS      0.039700
     67 H62         3.9220    1.5300   -1.7510 hc        1 PBS      0.039700
     68 H51         2.4100   -0.4890   -1.6750 hc        1 PBS      0.048200
     69 H52         2.1810   -0.2510    0.0990 hc        1 PBS      0.048200
     70 H41         1.2780    2.0860   -0.3700 hc        1 PBS      0.052700
     71 H42         1.4280    1.7550   -2.1370 hc        1 PBS      0.052700
     72 H3         -0.1020   -0.2720   -1.8680 h1        1 PBS      0.094700
     73 H32        -0.1350    0.5980    0.8140 ho        1 PBS      0.400000
     74 H2         -1.4860    2.1520   -0.5070 h1        1 PBS      0.080700
     75 HO1        -0.5600    2.1120   -3.1770 ho        1 PBS      0.405000
     76 H1         -2.3360    0.6540   -3.0860 h1        1 PBS      0.092700
     77 HN         -2.9930   -0.3270   -0.3600 hn        1 PBS      0.316500
     78 H191       -2.3740   -3.7200   -1.6650 hc        1 PBS      0.074200
     79 H192       -2.1050   -2.7880   -0.1320 hc        1 PBS      0.074200
     80 H201       -4.5340   -2.1650   -0.0600 hc        1 PBS      0.050200
     81 H202       -4.8090   -2.9780   -1.6480 hc        1 PBS      0.050200
     82 H211       -4.0920   -5.1730   -0.6540 hc        1 PBS      0.040700
     83 H212       -3.7880   -4.3640    0.9310 hc        1 PBS      0.040700
     84 H221       -6.2020   -3.6540    1.0320 hc        1 PBS      0.043200
     85 H222       -6.5060   -4.4530   -0.5570 hc        1 PBS      0.043200
     86 H231       -5.7850   -6.6630    0.4160 hc        1 PBS      0.039200
     87 H232       -5.4780   -5.8640    2.0050 hc        1 PBS      0.039200
     88 H241       -7.8880   -5.1460    2.1110 hc        1 PBS      0.039200
     89 H242       -8.1950   -5.9430    0.5200 hc        1 PBS      0.039200
     90 H251       -7.5120   -8.1610    1.4980 hc        1 PBS      0.032367
     91 H252       -7.2040   -7.3620    3.0920 hc        1 PBS      0.032367
     92 H253       -8.8830   -7.4130    2.4150 hc        1 PBS      0.032367
     93 H1A        -3.3540    2.8280   -2.4250 h1        1 PBS      0.056700
     94 H2A        -4.5950    1.4650   -2.3840 h1        1 PBS      0.056700
     95 HG1        -5.1910    3.7650   -1.0800 h2        1 PBS      0.094700
     96 HG         -5.4790    0.3200    0.2810 h1        1 PBS      0.064700
     97 HG51       -7.8750   -0.4700    0.7850 h1        1 PBS      0.065700
     98 HG52       -8.4950    1.1220    0.1020 h1        1 PBS      0.065700
     99 HG6        -7.4190    0.4520   -1.8470 ho        1 PBS      0.411000
    100 HG4        -6.3320    0.6260    2.5660 h1        1 PBS      0.056700
    101 HG5        -7.4300    2.6630    2.9850 ho        1 PBS      0.424000
    102 HG3        -4.1650    1.7150    2.0660 h1        1 PBS      0.056700
    103 H4         -4.5720    3.6040    3.5310 ho        1 PBS      0.426000
    104 HG2        -5.8350    4.2320    1.2800 h1        1 PBS      0.110700
    105 H5         -3.0690    3.7060    0.9990 ho        1 PBS      0.418000
@<TRIPOS>BOND
     1    1    2 1   
     2    1   43 1   
     3    1   44 1   
     4    1   45 1   
     5    2    3 1   
     6    2   46 1   
     7    2   47 1   
     8    3    4 1   
     9    3   48 1   
    10    3   49 1   
    11    4    5 1   
    12    4   50 1   
    13    4   51 1   
    14    5    6 1   
    15    5   52 1   
    16    5   53 1   
    17    6    7 1   
    18    6   54 1   
    19    6   55 1   
    20    7    8 1   
    21    7   56 1   
    22    7   57 1   
    23    8    9 1   
    24    8   58 1   
    25    8   59 1   
    26    9   10 1   
    27    9   60 1   
    28    9   61 1   
    29   10   11 1   
    30   10   62 1   
    31   10   63 1   
    32   11   12 1   
    33   11   64 1   
    34   11   65 1   
    35   12   13 1   
    36   12   66 1   
    37   12   67 1   
    38   13   14 1   
    39   13   68 1   
    40   13   69 1   
    41   14   15 1   
    42   14   70 1   
    43   14   71 1   
    44   15   16 1   
    45   15   17 1   
    46   15   72 1   
    47   16   73 1   
    48   17   18 1   
    49   17   19 1   
    50   17   74 1   
    51   18   75 1   
    52   19   20 1   
    53   19   30 1   
    54   19   76 1   
    55   20   21 1   
    56   20   77 1   
    57   21   22 2   
    58   21   23 1   
    59   23   24 1   
    60   23   78 1   
    61   23   79 1   
    62   24   25 1   
    63   24   80 1   
    64   24   81 1   
    65   25   26 1   
    66   25   82 1   
    67   25   83 1   
    68   26   27 1   
    69   26   84 1   
    70   26   85 1   
    71   27   28 1   
    72   27   86 1   
    73   27   87 1   
    74   28   29 1   
    75   28   88 1   
    76   28   89 1   
    77   29   90 1   
    78   29   91 1   
    79   29   92 1   
    80   30   31 1   
    81   30   93 1   
    82   30   94 1   
    83   31   32 1   
    84   32   33 1   
    85   32   41 1   
    86   32   95 1   
    87   33   34 1   
    88   34   35 1   
    89   34   37 1   
    90   34   96 1   
    91   35   36 1   
    92   35   97 1   
    93   35   98 1   
    94   36   99 1   
    95   37   38 1   
    96   37   39 1   
    97   37  100 1   
    98   38  101 1   
    99   39   40 1   
   100   39   41 1   
   101   39  102 1   
   102   40  103 1   
   103   41   42 1   
   104   41  104 1   
   105   42  105 1   
@<TRIPOS>SUBSTRUCTURE
     1 PBS         1 TEMP              0 ****  ****    0 ROOT
