@<TRIPOS>MOLECULE
PBT
   36    37     1     0     0
SMALL
bcc


@<TRIPOS>ATOM
      1 P          -3.6690   -1.9450    3.1110 p5        1 PBT      1.334900
      2 O1P        -2.7640   -2.8080    2.2560 o         1 PBT     -0.928833
      3 O2P        -4.6410   -1.1210    2.3180 o         1 PBT     -0.928833
      4 O3P        -4.1260   -2.5300    4.4100 o         1 PBT     -0.928833
      5 O5'        -2.5240   -0.7170    3.5970 os        1 PBT     -0.549200
      6 C5'        -2.0020   -0.0370    2.5380 c3        1 PBT      0.233400
      7 C4'        -0.5230    0.3400    2.7870 c3        1 PBT      0.108100
      8 O4'         0.3600   -0.7980    2.7770 os        1 PBT     -0.389600
      9 C3'        -0.0250    1.3100    1.6960 c3        1 PBT      0.100100
     10 O3'         0.6390    2.3960    2.3340 oh        1 PBT     -0.602800
     11 C2'         0.9340    0.4960    0.8270 c3        1 PBT     -0.147400
     12 C1'         1.2020   -0.8050    1.6250 c3        1 PBT      0.325500
     13 N1          1.0330   -2.0260    0.8430 n         1 PBT     -0.456800
     14 C2          2.1660   -2.6110    0.3020 c         1 PBT      0.803500
     15 O2          3.3000   -2.0560    0.2850 o         1 PBT     -0.736500
     16 N3          2.0630   -3.8880   -0.3010 n         1 PBT     -0.612500
     17 C4          0.9490   -4.7180   -0.1570 c         1 PBT      0.698500
     18 O4          0.9900   -5.8350   -0.7080 o         1 PBT     -0.673500
     19 C5         -0.1960   -4.2070    0.6970 c3        1 PBT     -0.107700
     20 C5M        -1.5290   -4.7380    0.2230 c3        1 PBT     -0.112100
     21 C6         -0.2560   -2.6770    0.7450 c3        1 PBT      0.036000
     22 H5'1       -2.0840   -0.6290    1.5820 h1        1 PBT     -0.003800
     23 H5'2       -2.5270    0.9600    2.3970 h1        1 PBT     -0.003800
     24 H4'        -0.4060    0.7720    3.8160 h1        1 PBT      0.078700
     25 H3'        -0.8810    1.7100    1.0900 h1        1 PBT      0.051700
     26 HA          0.9190    2.9920    1.6310 ho        1 PBT      0.372000
     27 H2'1        0.4700    0.2860   -0.1670 hc        1 PBT      0.049700
     28 H2'2        1.8980    1.0350    0.6610 hc        1 PBT      0.049700
     29 H1'         2.2650   -0.8030    2.0200 h2        1 PBT      0.064700
     30 H3          2.8710   -4.2180   -0.7760 hn        1 PBT      0.315500
     31 H5         -0.0070   -4.5940    1.7400 hc        1 PBT      0.094700
     32 H5M1       -2.3330   -4.2870    0.8840 hc        1 PBT      0.066700
     33 H5M2       -1.7200   -4.4470   -0.8360 hc        1 PBT      0.066700
     34 H5M3       -1.5470   -5.8510    0.2950 hc        1 PBT      0.066700
     35 H6C1       -0.7590   -2.2990   -0.1910 h1        1 PBT      0.132200
     36 H6C2       -0.9380   -2.4020    1.6370 h1        1 PBT      0.132200
@<TRIPOS>BOND
     1    1    2 1   
     2    1    3 1   
     3    1    4 1   
     4    1    5 1   
     5    5    6 1   
     6    6    7 1   
     7    6   22 1   
     8    6   23 1   
     9    7    8 1   
    10    7    9 1   
    11    7   24 1   
    12    8   12 1   
    13    9   10 1   
    14    9   11 1   
    15    9   25 1   
    16   10   26 1   
    17   11   12 1   
    18   11   27 1   
    19   11   28 1   
    20   12   13 1   
    21   12   29 1   
    22   13   14 1   
    23   13   21 1   
    24   14   15 2   
    25   14   16 1   
    26   16   17 1   
    27   16   30 1   
    28   17   18 2   
    29   17   19 1   
    30   19   20 1   
    31   19   21 1   
    32   19   31 1   
    33   20   32 1   
    34   20   33 1   
    35   20   34 1   
    36   21   35 1   
    37   21   36 1   
@<TRIPOS>SUBSTRUCTURE
     1 PBT         1 TEMP              0 ****  ****    0 ROOT
