@<TRIPOS>MOLECULE
PBT
   36    36     1     0     0
SMALL
bcc


@<TRIPOS>ATOM
      1 P           4.5180    2.7400    0.3080 p4        1 PBT      1.699200
      2 O1P         4.5070    2.4220    1.7870 os        1 PBT     -1.229000
      3 O2P         3.6660    3.9680    0.0480 o         1 PBT     -0.934000
      4 O3P         5.9370    3.0090   -0.1390 o         1 PBT     -0.982800
      5 O5'         3.9270    1.5010   -0.5070 os        1 PBT     -0.574200
      6 C5'         2.6060    1.0990   -0.2460 c3        1 PBT      0.227400
      7 C4'         2.3990   -0.3360   -0.7460 c3        1 PBT      0.066100
      8 O4'         1.4200   -1.1140    0.2110 os        1 PBT     -0.434600
      9 C3'         1.8200   -0.3310   -1.8840 c3        1 PBT      0.131100
     10 O3'         2.2650   -1.5010   -2.6880 oh        1 PBT     -0.662800
     11 C2'         0.2280   -0.4360   -1.5850 c3        1 PBT     -0.124400
     12 C1'         0.1020   -1.2400   -0.5650 c3        1 PBT      0.321500
     13 N1         -1.0240   -0.8250    0.2720 n         1 PBT     -0.456800
     14 C2         -0.7930   -0.3840    1.6110 c         1 PBT      0.809500
     15 O2          0.2350   -0.7030    2.1900 o         1 PBT     -0.726500
     16 N3         -1.7310    0.4860    2.2480 n         1 PBT     -0.610500
     17 C4         -3.0500    0.5790    1.7620 c         1 PBT      0.703500
     18 O4         -3.8680    1.2970    2.3400 o         1 PBT     -0.676500
     19 C5         -3.5070   -0.3250    0.5970 c3        1 PBT     -0.123700
     20 C5M        -4.5100   -1.4160    1.1290 c3        1 PBT     -0.133100
     21 C6         -2.3480   -0.9680   -0.2050 c3        1 PBT      0.058000
     22 H5'1        2.4400    1.1360    0.7100 h1        1 PBT      0.001700
     23 H5'2        1.9850    1.6990   -0.7080 h1        1 PBT      0.001700
     24 H4'         3.2510   -0.7980   -0.8040 h1        1 PBT      0.024700
     25 H3'         2.0170    0.4900   -2.3540 h1        1 PBT      0.133700
     26 HA          2.5290   -1.2230   -3.4990 ho        1 PBT      0.482000
     27 H2'1       -0.2310   -0.8010   -2.3530 hc        1 PBT      0.048700
     28 H2'2       -0.1340    0.4490   -1.3640 hc        1 PBT      0.048700
     29 H1'        -0.0250   -2.1710   -0.8770 h2        1 PBT      0.062700
     30 H3         -1.4820    0.9680    2.9730 hn        1 PBT      0.316500
     31 H5         -4.0870    0.1720   -0.0100 hc        1 PBT      0.092700
     32 H5M1       -5.3030   -0.9740    1.5150 hc        1 PBT      0.074367
     33 H5M2       -4.7860   -1.9960    0.3890 hc        1 PBT      0.074367
     34 H5M3       -4.0650   -1.9600    1.8250 hc        1 PBT      0.074367
     35 H6C1       -2.5330   -1.9190   -0.2710 h1        1 PBT      0.108700
     36 H6C2       -2.3760   -0.5950   -1.1110 h1        1 PBT      0.108700
@<TRIPOS>BOND
     1    1    3 1   
     2    1    4 2   
     3    1    5 1   
     4    5    6 1   
     5    6    7 1   
     6    6   22 1   
     7    6   23 1   
     8    7    8 1   
     9    7    9 1   
    10    7   24 1   
    11    8   12 1   
    12    9   10 1   
    13    9   11 1   
    14    9   25 1   
    15   10   26 1   
    16   11   12 1   
    17   11   27 1   
    18   11   28 1   
    19   12   13 1   
    20   12   29 1   
    21   13   14 1   
    22   13   21 1   
    23   14   15 2   
    24   14   16 1   
    25   16   17 1   
    26   16   30 1   
    27   17   18 2   
    28   17   19 1   
    29   19   20 1   
    30   19   21 1   
    31   19   31 1   
    32   20   32 1   
    33   20   33 1   
    34   20   34 1   
    35   21   35 1   
    36   21   36 1   
@<TRIPOS>SUBSTRUCTURE
     1 PBT         1 TEMP              0 ****  ****    0 ROOT
