@<TRIPOS>MOLECULE
PBX
   15    12     1     0     0
SMALL
bcc


@<TRIPOS>ATOM
      1 BR         -3.4600   -0.0470   -0.3850 br        1 PBX     -0.174800
      2 C4         -1.5480   -0.0470   -0.3850 c1        1 PBX     -0.014200
      3 C3         -0.8550   -0.0470    0.8150 c1        1 PBX      0.084600
      4 O3         -1.5580   -0.0550    2.0340 oh        1 PBX     -0.492600
      5 C2          0.5310   -0.0470    0.8150 c1        1 PBX      0.093600
      6 O2          1.2350   -0.0590    2.0340 oh        1 PBX     -0.451600
      7 C1          1.2240   -0.0470   -0.3850 c1        1 PBX      0.093600
      8 O1          2.6310   -0.0680   -0.3850 oh        1 PBX     -0.451600
      9 C6          0.5310   -0.0470   -1.5850 c1        1 PBX     -0.083000
     10 C5         -0.8550   -0.0470   -1.5850 c1        1 PBX     -0.083000
     11 H1         -1.8250   -0.8810    2.2160 ho        1 PBX      0.444000
     12 H2          1.3320    0.7730    2.3270 ho        1 PBX      0.428000
     13 H3          2.9390    0.7160   -0.6680 ho        1 PBX      0.428000
     14 H4          1.0190   -0.0470   -2.4310 ha        1 PBX      0.090000
     15 H5         -1.3430   -0.0470   -2.4310 ha        1 PBX      0.090000
@<TRIPOS>BOND
     1    1    2 1   
     2    2    3 3   
     3    3    4 1   
     4    4   11 1   
     5    5    6 1   
     6    5    7 3   
     7    6   12 1   
     8    7    8 1   
     9    8   13 1   
    10    9   10 3   
    11    9   14 1   
    12   10   15 1   
@<TRIPOS>SUBSTRUCTURE
     1 PBX         1 TEMP              0 ****  ****    0 ROOT
