@<TRIPOS>MOLECULE
PBX
   15    15     1     0     0
SMALL
bcc


@<TRIPOS>ATOM
      1 BR          2.1910   -0.0530    0.0930 br        1 PBX     -0.081100
      2 C4          0.3450    0.2660    0.1050 ca        1 PBX     -0.113900
      3 C3         -0.5820   -0.7790    0.2380 ca        1 PBX      0.118100
      4 O3         -0.2610   -2.1100    0.3700 oh        1 PBX     -0.511100
      5 C2         -1.9630   -0.5020    0.2420 ca        1 PBX      0.015100
      6 O2         -2.9320   -1.4750    0.3690 oh        1 PBX     -0.512100
      7 C1         -2.4100    0.8270    0.1140 ca        1 PBX      0.153100
      8 O1         -3.7390    1.1610    0.1110 oh        1 PBX     -0.486100
      9 C6         -1.4790    1.8690   -0.0190 ca        1 PBX     -0.166000
     10 C5         -0.1200    1.5810   -0.0220 ca        1 PBX     -0.065000
     11 H1          0.7060   -2.1950    0.3550 ho        1 PBX      0.445000
     12 H2         -2.4850   -2.3320    0.4480 ho        1 PBX      0.449000
     13 H3         -4.2580    0.3460    0.2100 ho        1 PBX      0.443000
     14 H4         -1.8410    2.9020   -0.1190 ha        1 PBX      0.161000
     15 H5          0.6010    2.4080   -0.1270 ha        1 PBX      0.153000
@<TRIPOS>BOND
     1    1    2 1   
     2    2    3 ar  
     3    2   10 ar  
     4    3    4 1   
     5    3    5 ar  
     6    4   11 1   
     7    5    6 1   
     8    5    7 ar  
     9    6   12 1   
    10    7    8 1   
    11    7    9 ar  
    12    8   13 1   
    13    9   10 ar  
    14    9   14 1   
    15   10   15 1   
@<TRIPOS>SUBSTRUCTURE
     1 PBX         1 TEMP              0 ****  ****    0 ROOT
