@<TRIPOS>MOLECULE
PBX
   15    15     1     0     0
SMALL
bcc


@<TRIPOS>ATOM
      1 BR          0.0330    0.0610    0.1490 br        1 PBX     -0.081100
      2 C4          1.9030    0.0580    0.0460 ca        1 PBX     -0.113900
      3 C3          2.7040    0.0590    1.1990 ca        1 PBX      0.118100
      4 O3          2.2320    0.0620    2.4910 oh        1 PBX     -0.511100
      5 C2          4.1080    0.0560    1.0830 ca        1 PBX      0.015100
      6 O2          4.9580    0.0570    2.1690 oh        1 PBX     -0.512100
      7 C1          4.7050    0.0520   -0.1920 ca        1 PBX      0.153100
      8 O1          6.0630    0.0490   -0.3710 oh        1 PBX     -0.486100
      9 C6          3.8990    0.0510   -1.3420 ca        1 PBX     -0.166000
     10 C5          2.5160    0.0540   -1.2120 ca        1 PBX     -0.065000
     11 H1          1.2610    0.0640    2.4630 ho        1 PBX      0.445000
     12 H2          4.4160    0.0600    2.9730 ho        1 PBX      0.449000
     13 H3          6.4840    0.0500    0.5040 ho        1 PBX      0.443000
     14 H4          4.3770    0.0480   -2.3310 ha        1 PBX      0.161000
     15 H5          1.8950    0.0530   -2.1230 ha        1 PBX      0.153000
@<TRIPOS>BOND
     1    1    2 1   
     2    2    3 ar  
     3    2   10 ar  
     4    3    4 1   
     5    3    5 ar  
     6    4   11 1   
     7    5    6 1   
     8    5    7 ar  
     9    6   12 1   
    10    7    8 1   
    11    7    9 ar  
    12    8   13 1   
    13    9   10 ar  
    14    9   14 1   
    15   10   15 1   
@<TRIPOS>SUBSTRUCTURE
     1 PBX         1 TEMP              0 ****  ****    0 ROOT
