@<TRIPOS>MOLECULE
PBZ
   20    20     1     0     0
SMALL
bcc


@<TRIPOS>ATOM
      1 N2          2.7820    1.0620   -0.5260 nh        1 PBZ     -0.484100
      2 N3          2.7820   -1.0620    0.5260 nh        1 PBZ     -0.468200
      3 C7          2.1210   -0.0000   -0.0000 ce        1 PBZ      0.537400
      4 C4          0.6510   -0.0000   -0.0000 ca        1 PBZ     -0.353900
      5 C2         -1.4410    1.1900    0.2860 ca        1 PBZ     -0.225000
      6 C3         -0.0630    1.1820    0.2780 ca        1 PBZ     -0.013000
      7 C5         -0.0630   -1.1820   -0.2780 ca        1 PBZ     -0.013000
      8 C6         -1.4410   -1.1900   -0.2860 ca        1 PBZ     -0.225000
      9 C1         -2.1800   -0.0000   -0.0000 ca        1 PBZ      0.279600
     10 N1         -3.5370    0.0000   -0.0000 nh        1 PBZ     -0.834200
     11 HN21        2.2520    1.7970   -0.9420 hn        1 PBZ      0.321200
     12 HN22        3.7740    1.1390   -0.5230 hn        1 PBZ      0.321200
     13 HN31        2.2520   -1.7980    0.9410 hn        1 PBZ      0.321200
     14 HN32        3.7740   -1.1400    0.5230 hn        1 PBZ      0.321200
     15 H2         -1.9770    2.1240    0.5190 ha        1 PBZ      0.162000
     16 H3          0.4720    2.1150    0.5220 ha        1 PBZ      0.142000
     17 H5          0.4720   -2.1150   -0.5220 ha        1 PBZ      0.142000
     18 H6         -1.9770   -2.1240   -0.5190 ha        1 PBZ      0.162000
     19 HN11       -4.0400   -0.8300   -0.1980 hn        1 PBZ      0.454800
     20 HN12       -4.0400    0.8300    0.1980 hn        1 PBZ      0.454800
@<TRIPOS>BOND
     1    1    3 2   
     2    1   11 1   
     3    1   12 1   
     4    2    3 1   
     5    2   13 1   
     6    2   14 1   
     7    3    4 1   
     8    4    6 ar  
     9    4    7 ar  
    10    5    6 ar  
    11    5    9 ar  
    12    5   15 1   
    13    6   16 1   
    14    7    8 ar  
    15    7   17 1   
    16    8    9 ar  
    17    8   18 1   
    18    9   10 1   
    19   10   19 1   
    20   10   20 1   
@<TRIPOS>SUBSTRUCTURE
     1 PBZ         1 TEMP              0 ****  ****    0 ROOT
