@<TRIPOS>MOLECULE
PBZ
   20    20     1     0     0
SMALL
bcc


@<TRIPOS>ATOM
      1 N2         -0.0220   -0.1760    0.0040 nh        1 PBZ     -0.484100
      2 N3          2.0150    0.0990   -1.1770 nh        1 PBZ     -0.468200
      3 C7          1.3270   -0.0290   -0.0150 ce        1 PBZ      0.537400
      4 C4          2.0620   -0.0070    1.2580 ca        1 PBZ     -0.353900
      5 C2          2.2160    0.6940    3.5730 ca        1 PBZ     -0.225000
      6 C3          1.5320    0.6630    2.3780 ca        1 PBZ     -0.013000
      7 C5          3.3070   -0.6560    1.3750 ca        1 PBZ     -0.013000
      8 C6          4.0000   -0.6460    2.5660 ca        1 PBZ     -0.225000
      9 C1          3.4780    0.0350    3.7090 ca        1 PBZ      0.279600
     10 N1          4.1560    0.0550    4.8840 nh        1 PBZ     -0.834200
     11 HN21       -0.5810   -0.1620   -0.8200 hn        1 PBZ      0.321200
     12 HN22       -0.4770   -0.3110    0.8800 hn        1 PBZ      0.321200
     13 HN31        1.5810    0.0550   -2.0720 hn        1 PBZ      0.321200
     14 HN32        2.9990    0.2500   -1.1370 hn        1 PBZ      0.321200
     15 H2          1.7870    1.2360    4.4310 ha        1 PBZ      0.162000
     16 H3          0.5700    1.2000    2.3050 ha        1 PBZ      0.142000
     17 H5          3.7330   -1.2080    0.5200 ha        1 PBZ      0.142000
     18 H6          4.9660   -1.1720    2.6360 ha        1 PBZ      0.162000
     19 HN11        5.0310   -0.4040    4.9690 hn        1 PBZ      0.454800
     20 HN12        3.7850    0.5290    5.6720 hn        1 PBZ      0.454800
@<TRIPOS>BOND
     1    1    3 2   
     2    1   11 1   
     3    1   12 1   
     4    2    3 1   
     5    2   13 1   
     6    2   14 1   
     7    3    4 1   
     8    4    6 ar  
     9    4    7 ar  
    10    5    6 ar  
    11    5    9 ar  
    12    5   15 1   
    13    6   16 1   
    14    7    8 ar  
    15    7   17 1   
    16    8    9 ar  
    17    8   18 1   
    18    9   10 1   
    19   10   19 1   
    20   10   20 1   
@<TRIPOS>SUBSTRUCTURE
     1 PBZ         1 TEMP              0 ****  ****    0 ROOT
