@<TRIPOS>MOLECULE
PBZ
   20    17     1     0     0
SMALL
bcc


@<TRIPOS>ATOM
      1 N2         -2.3570   -0.6890   -1.9540 n3        1 PBZ     -0.330000
      2 N3         -0.4620    0.4960   -2.9350 n2        1 PBZ     -0.330000
      3 C7         -1.0120   -0.0460   -1.8610 c2        1 PBZ      0.360000
      4 C4         -0.2510   -0.0080   -0.4860 c2        1 PBZ     -0.270000
      5 C2          0.2630    1.0990    1.5550 c1        1 PBZ     -0.225000
      6 C3         -0.4110    1.0570    0.3490 c2        1 PBZ     -0.013000
      7 C5          0.5850   -1.0450   -0.1270 c1        1 PBZ     -0.013000
      8 C6          1.2520   -1.0020    1.0680 c1        1 PBZ     -0.225000
      9 C1          1.0880    0.0760    1.9100 c1        1 PBZ      0.198000
     10 N1          1.7600    0.1130    3.1380 n3        1 PBZ     -0.343000
     11 HN21       -2.8540   -0.6560   -2.7390 hn        1 PBZ      0.271500
     12 HN22       -2.7370   -1.0910   -1.1850 hn        1 PBZ      0.271500
     13 HN31       -0.9140    0.4730   -3.7290 DU        1 PBZ      0.263000
     14 HN32        0.3570    0.8930   -2.8940 hn        1 PBZ      0.280000
     15 H2          0.1520    1.8400    2.1350 ha        1 PBZ      0.162000
     16 H3         -0.9820    1.7660    0.1020 ha        1 PBZ      0.142000
     17 H5          0.7020   -1.8000   -0.7190 ha        1 PBZ      0.142000
     18 H6          1.8390   -1.7300    1.3210 ha        1 PBZ      0.162000
     19 HN11        1.4600    0.6320    3.7950 hn        1 PBZ      0.250000
     20 HN12        2.5200   -0.3770    3.2540 hn        1 PBZ      0.250000
@<TRIPOS>BOND
     1    1    3 1   
     2    1   11 1   
     3    1   12 1   
     4    2    3 1   
     5    2   14 1   
     6    3    4 1   
     7    4    6 1   
     8    4    7 1   
     9    5    6 1   
    10    5   15 1   
    11    6   16 1   
    12    7   17 1   
    13    8    9 1   
    14    8   18 1   
    15    9   10 1   
    16   10   19 1   
    17   10   20 1   
@<TRIPOS>SUBSTRUCTURE
     1 PBZ         1 TEMP              0 ****  ****    0 ROOT
