@<TRIPOS>MOLECULE
PC
   24    23     1     0     0
SMALL
bcc


@<TRIPOS>ATOM
      1 P1         -0.1330   -0.0390   -0.5800 p5        1 PC       1.894000
      2 O1          1.2130    0.5530   -0.7510 o         1 PC      -0.834000
      3 O3         -0.0290   -0.6720    0.9230 oh        1 PC      -0.816000
      4 O4         -0.8560   -0.9250   -1.5050 o         1 PC      -0.834000
      5 O2         -1.1460    1.2320   -0.2420 os        1 PC      -0.743000
      6 C1         -0.6250    2.2720    0.5200 c3        1 PC       0.040000
      7 C2         -0.5620    3.5710   -0.2930 c3        1 PC      -0.173000
      8 N1         -1.9010    4.2600   -0.4900 n4        1 PC       0.235000
      9 C3         -2.3480    4.9490    0.6600 c2        1 PC      -0.854000
     10 C4         -2.9100    3.2580   -0.9350 c3        1 PC      -0.160000
     11 C5         -1.7020    5.2440   -1.6070 c3        1 PC      -0.160000
     12 H11        -1.2810    2.4250    1.4240 h1        1 PC       0.081000
     13 H12         0.4250    2.0270    0.8490 h1        1 PC       0.081000
     14 H21        -0.1150    3.3480   -1.2990 hx        1 PC       0.098500
     15 H22         0.0930    4.3010    0.2540 hx        1 PC       0.098500
     16 H31        -1.7120    5.7380    1.0420 hx        1 PC       0.111500
     17 H32         0.7940   -0.4480    1.3430 ho        1 PC       0.224000
     18 H33        -3.1200    4.4900    1.2640 hx        1 PC       0.111500
     19 H41        -3.8550    3.7910   -1.2090 hx        1 PC       0.100000
     20 H42        -3.1080    2.5400   -0.0950 hx        1 PC       0.100000
     21 H43        -2.5080    2.6800   -1.8060 hx        1 PC       0.100000
     22 H51        -0.8860    5.9530   -1.3210 hx        1 PC       0.100000
     23 H52        -1.4310    4.7100   -2.5530 hx        1 PC       0.100000
     24 H53        -2.6530    5.8170   -1.7450 hx        1 PC       0.100000
@<TRIPOS>BOND
     1    1    2 1   
     2    1    3 1   
     3    1    4 1   
     4    1    5 1   
     5    3   17 1   
     6    5    6 1   
     7    6    7 1   
     8    6   12 1   
     9    6   13 1   
    10    7    8 1   
    11    7   14 1   
    12    7   15 1   
    13    8    9 1   
    14    8   10 1   
    15    8   11 1   
    16    9   16 1   
    17    9   18 1   
    18   10   19 1   
    19   10   20 1   
    20   10   21 1   
    21   11   22 1   
    22   11   23 1   
    23   11   24 1   
@<TRIPOS>SUBSTRUCTURE
     1 PC          1 TEMP              0 ****  ****    0 ROOT
