@<TRIPOS>MOLECULE
PC
   24    23     1     0     0
SMALL
bcc


@<TRIPOS>ATOM
      1 P1         -0.1540   -0.0420   -0.6310 p5        1 PC       1.894000
      2 O1          1.1900    0.5460   -0.8310 o         1 PC      -0.834000
      3 O3         -0.0150   -0.6880    0.8630 oh        1 PC      -0.816000
      4 O4         -0.9030   -0.9180   -1.5450 o         1 PC      -0.834000
      5 O2         -1.1520    1.2310   -0.2580 os        1 PC      -0.743000
      6 C1         -0.6090    2.2620    0.5000 c3        1 PC       0.040000
      7 C2         -0.5590    3.5670   -0.3040 c3        1 PC      -0.173000
      8 N1         -1.8980    4.2640   -0.4640 n4        1 PC       0.235000
      9 C3         -2.3140    4.9450    0.7020 c2        1 PC      -0.854000
     10 C4         -2.9220    3.2700   -0.8930 c3        1 PC      -0.160000
     11 C5         -1.7210    5.2570   -1.5770 c3        1 PC      -0.160000
     12 H11        -1.2420    2.4110    1.4200 h1        1 PC       0.081000
     13 H12         0.4480    2.0100    0.8010 h1        1 PC       0.081000
     14 H21        -0.1360    3.3510   -1.3230 hx        1 PC       0.098500
     15 H22         0.1130    4.2900    0.2330 hx        1 PC       0.098500
     16 H31        -1.6650    5.7280    1.0760 hx        1 PC       0.111500
     17 H32         0.8190   -0.4700    1.2640 ho        1 PC       0.224000
     18 H33        -3.0750    4.4860    1.3200 hx        1 PC       0.111500
     19 H41        -3.8700    3.8100   -1.1410 hx        1 PC       0.100000
     20 H42        -3.1040    2.5470   -0.0560 hx        1 PC       0.100000
     21 H43        -2.5430    2.6990   -1.7790 hx        1 PC       0.100000
     22 H51        -0.8940    5.9600   -1.3040 hx        1 PC       0.100000
     23 H52        -1.4740    4.7300   -2.5330 hx        1 PC       0.100000
     24 H53        -2.6720    5.8360   -1.6880 hx        1 PC       0.100000
@<TRIPOS>BOND
     1    1    2 1   
     2    1    3 1   
     3    1    4 1   
     4    1    5 1   
     5    3   17 1   
     6    5    6 1   
     7    6    7 1   
     8    6   12 1   
     9    6   13 1   
    10    7    8 1   
    11    7   14 1   
    12    7   15 1   
    13    8    9 1   
    14    8   10 1   
    15    8   11 1   
    16    9   16 1   
    17    9   18 1   
    18   10   19 1   
    19   10   20 1   
    20   10   21 1   
    21   11   22 1   
    22   11   23 1   
    23   11   24 1   
@<TRIPOS>SUBSTRUCTURE
     1 PC          1 TEMP              0 ****  ****    0 ROOT
