@<TRIPOS>MOLECULE
PC
   24    23     1     0     0
SMALL
bcc


@<TRIPOS>ATOM
      1 P1         -0.1400   -0.0400   -0.5950 p5        1 PC       1.894000
      2 O1          1.1890    0.5530   -0.8670 o         1 PC      -0.834000
      3 O3          0.0660   -0.6430    0.9100 oh        1 PC      -0.816000
      4 O4         -0.9180   -0.9470   -1.4520 o         1 PC      -0.834000
      5 O2         -1.1340    1.2340   -0.2160 os        1 PC      -0.743000
      6 C1         -0.5690    2.2900    0.4910 c3        1 PC       0.040000
      7 C2         -0.5630    3.5740   -0.3490 c3        1 PC      -0.173000
      8 N1         -1.9140    4.2550   -0.4740 n4        1 PC       0.235000
      9 C3         -2.2890    4.9650    0.6900 c2        1 PC      -0.854000
     10 C4         -2.9460    3.2420   -0.8340 c3        1 PC      -0.160000
     11 C5         -1.7910    5.2180   -1.6190 c3        1 PC      -0.160000
     12 H11        -1.1660    2.4590    1.4320 h1        1 PC       0.081000
     13 H12         0.5010    2.0540    0.7560 h1        1 PC       0.081000
     14 H21        -0.1800    3.3320   -1.3780 hx        1 PC       0.098500
     15 H22         0.1230    4.3160    0.1400 hx        1 PC       0.098500
     16 H31        -1.6320    5.7620    1.0160 hx        1 PC       0.111500
     17 H32         0.9140   -0.4080    1.2700 ho        1 PC       0.224000
     18 H33        -3.0200    4.5160    1.3500 hx        1 PC       0.111500
     19 H41        -3.9080    3.7670   -1.0570 hx        1 PC       0.100000
     20 H42        -3.0870    2.5400    0.0300 hx        1 PC       0.100000
     21 H43        -2.5980    2.6490   -1.7180 hx        1 PC       0.100000
     22 H51        -0.9610    5.9350   -1.4000 hx        1 PC       0.100000
     23 H52        -1.5790    4.6670   -2.5700 hx        1 PC       0.100000
     24 H53        -2.7510    5.7860   -1.7070 hx        1 PC       0.100000
@<TRIPOS>BOND
     1    1    2 1   
     2    1    3 1   
     3    1    4 1   
     4    1    5 1   
     5    3   17 1   
     6    5    6 1   
     7    6    7 1   
     8    6   12 1   
     9    6   13 1   
    10    7    8 1   
    11    7   14 1   
    12    7   15 1   
    13    8    9 1   
    14    8   10 1   
    15    8   11 1   
    16    9   16 1   
    17    9   18 1   
    18   10   19 1   
    19   10   20 1   
    20   10   21 1   
    21   11   22 1   
    22   11   23 1   
    23   11   24 1   
@<TRIPOS>SUBSTRUCTURE
     1 PC          1 TEMP              0 ****  ****    0 ROOT
