@<TRIPOS>MOLECULE
PC
   24    22     1     0     0
SMALL
bcc


@<TRIPOS>ATOM
      1 P1          0.4370   -3.7320    0.2920 p4        1 PC       1.707200
      2 O1          1.9490   -3.7320    0.2920 o         1 PC      -0.653500
      3 O3         -0.0660   -3.7320    1.7170 os        1 PC      -1.177000
      4 O4         -0.0670   -4.9650   -0.4200 o         1 PC      -0.702300
      5 O2         -0.0930   -2.4310   -0.4590 os        1 PC      -0.579200
      6 C1          0.1540   -1.1600    0.1310 c3        1 PC       0.181400
      7 C2         -0.2680   -0.0520   -0.8460 c3        1 PC       0.050800
      8 N1         -0.1800    1.2470   -0.1790 n4        1 PC      -0.395800
      9 C3         -1.0970    1.2790    0.9380 c3        1 PC      -0.113233
     10 C4         -0.5240    2.2940   -1.1140 c3        1 PC      -0.113233
     11 C5          1.1690    1.4530    0.3000 c3        1 PC      -0.113233
     12 H11         1.1050   -1.0740    0.3310 h1        1 PC       0.049200
     13 H12        -0.3610   -1.0800    0.9570 h1        1 PC       0.049200
     14 H21        -1.1870   -0.2070   -1.1360 hx        1 PC       0.058700
     15 H22         0.3240   -0.0600   -1.6220 hx        1 PC       0.058700
     16 H31        -0.6830    0.8510    1.7120 hx        1 PC       0.076922
     17 H32        -1.9150    0.8020    0.7020 hx        1 PC       0.076922
     18 H33        -1.3120    2.2060    1.1560 hx        1 PC       0.076922
     19 H41        -1.4340    2.1550   -1.4390 hx        1 PC       0.076922
     20 H42        -0.4670    3.1610   -0.6680 hx        1 PC       0.076922
     21 H43         0.0970    2.2750   -1.8680 hx        1 PC       0.076922
     22 H51         1.8040    1.1440   -0.3740 hx        1 PC       0.076922
     23 H52         1.3010    0.9520    1.1270 hx        1 PC       0.076922
     24 H53         1.3120    2.4040    0.4690 hx        1 PC       0.076922
@<TRIPOS>BOND
     1    1    2 1   
     2    1    4 2   
     3    1    5 1   
     4    5    6 1   
     5    6    7 1   
     6    6   12 1   
     7    6   13 1   
     8    7    8 1   
     9    7   14 1   
    10    7   15 1   
    11    8    9 1   
    12    8   10 1   
    13    8   11 1   
    14    9   16 1   
    15    9   17 1   
    16    9   18 1   
    17   10   19 1   
    18   10   20 1   
    19   10   21 1   
    20   11   22 1   
    21   11   23 1   
    22   11   24 1   
@<TRIPOS>SUBSTRUCTURE
     1 PC          1 TEMP              0 ****  ****    0 ROOT
