@<TRIPOS>MOLECULE
PC
   24    23     1     0     0
SMALL
bcc


@<TRIPOS>ATOM
      1 P1          1.8240    0.2570    0.5040 p5        1 PC       1.894000
      2 O1          1.8130   -1.1560    0.9440 o         1 PC      -0.834000
      3 O3          2.6000    0.1520   -0.9300 oh        1 PC      -0.816000
      4 O4          2.2390    1.4410    1.2720 o         1 PC      -0.834000
      5 O2          0.2950    0.5650   -0.0660 os        1 PC      -0.743000
      6 C1         -0.3570   -0.4730   -0.7220 c3        1 PC       0.040000
      7 C2         -1.5970   -0.9240    0.0590 c3        1 PC      -0.173000
      8 N1         -2.7860    0.0140   -0.0430 n4        1 PC       0.235000
      9 C3         -3.4710   -0.0870   -1.2750 c2        1 PC      -0.854000
     10 C4         -2.3330    1.4130    0.2010 c3        1 PC      -0.160000
     11 C5         -3.7180   -0.3710    1.0710 c3        1 PC      -0.160000
     12 H11         0.3260   -1.3650   -0.8180 h1        1 PC       0.081000
     13 H12        -0.6660   -0.1190   -1.7470 h1        1 PC       0.081000
     14 H21        -1.3200   -1.0460    1.1420 hx        1 PC       0.098500
     15 H22        -1.9360   -1.9130   -0.3520 hx        1 PC       0.098500
     16 H31         2.7750   -0.7510   -1.1700 ho        1 PC       0.224000
     17 H32        -3.8880   -1.0530   -1.5310 hx        1 PC       0.111500
     18 H33        -3.3040    0.6830   -2.0180 hx        1 PC       0.111500
     19 H41        -3.2290    2.0800    0.2600 hx        1 PC       0.100000
     20 H42        -1.7380    1.4550    1.1490 hx        1 PC       0.100000
     21 H43        -1.6720    1.7360   -0.6470 hx        1 PC       0.100000
     22 H51        -4.0000   -1.4470    0.9480 hx        1 PC       0.100000
     23 H52        -3.2230   -0.2170    2.0630 hx        1 PC       0.100000
     24 H53        -4.6380    0.2600    0.9950 hx        1 PC       0.100000
@<TRIPOS>BOND
     1    1    2 1   
     2    1    3 1   
     3    1    4 1   
     4    1    5 1   
     5    3   16 1   
     6    5    6 1   
     7    6    7 1   
     8    6   12 1   
     9    6   13 1   
    10    7    8 1   
    11    7   14 1   
    12    7   15 1   
    13    8    9 1   
    14    8   10 1   
    15    8   11 1   
    16    9   17 1   
    17    9   18 1   
    18   10   19 1   
    19   10   20 1   
    20   10   21 1   
    21   11   22 1   
    22   11   23 1   
    23   11   24 1   
@<TRIPOS>SUBSTRUCTURE
     1 PC          1 TEMP              0 ****  ****    0 ROOT
