@<TRIPOS>MOLECULE
PC1
  142   141     1     0     0
SMALL
bcc


@<TRIPOS>ATOM
      1 O12         1.6380   -0.6800   -0.4090 o         1 PC1     -0.824000
      2 P           0.1850   -0.6630   -0.0490 p5        1 PC1      1.449800
      3 O14        -0.5590   -1.6630   -0.9080 o         1 PC1     -0.824000
      4 O13         0.0150   -1.0490    1.4790 os        1 PC1     -0.570200
      5 C11         0.7810   -2.1530    2.0030 c3        1 PC1      0.199400
      6 C12         0.1560   -2.6250    3.3330 c3        1 PC1      0.090800
      7 N           0.9980   -3.6680    3.9300 n4        1 PC1     -0.581800
      8 C13         2.2150   -3.0610    4.4670 c3        1 PC1      0.079100
      9 C14         0.2810   -4.3130    4.9870 c3        1 PC1      0.079100
     10 C15         1.3390   -4.6240    2.9390 c3        1 PC1      0.079100
     11 O11        -0.4220    0.8310   -0.3020 os        1 PC1     -0.580200
     12 C1         -1.0090    1.1130   -1.5450 c3        1 PC1      0.173400
     13 C2         -0.9870    2.6090   -1.7830 c3        1 PC1      0.109100
     14 O21        -2.2270    3.1640   -1.4050 os        1 PC1     -0.436900
     15 C21        -2.1320    4.1430   -0.3320 c         1 PC1      0.631100
     16 O22        -1.1150    4.2160    0.3350 o         1 PC1     -0.543000
     17 C22        -3.3620    5.0030    0.0420 c3        1 PC1     -0.128400
     18 C23        -3.4360    5.1510    1.5550 c3        1 PC1     -0.079400
     19 C24        -4.8660    5.6630    1.9640 c3        1 PC1     -0.078400
     20 C25        -5.0140    5.6060    3.5080 c3        1 PC1     -0.079400
     21 C26        -6.5270    5.7460    3.8960 c3        1 PC1     -0.079400
     22 C27        -6.7240    5.3150    5.3690 c3        1 PC1     -0.079400
     23 C28        -8.2410    5.3600    5.7260 c3        1 PC1     -0.079400
     24 C29        -8.4750    4.6630    7.1280 c3        1 PC1     -0.079400
     25 C2A        -9.9600    4.7170    7.4810 c3        1 PC1     -0.079400
     26 C2B       -10.2360    3.8040    8.7080 c3        1 PC1     -0.079400
     27 C2C       -11.7540    3.8100    9.0250 c3        1 PC1     -0.079400
     28 C2D       -12.0340    2.8860   10.2230 c3        1 PC1     -0.079400
     29 C2E       -13.5400    2.9110   10.5520 c3        1 PC1     -0.079400
     30 C2F       -13.8200    1.9910   11.7800 c3        1 PC1     -0.079400
     31 C2G       -15.3440    1.9880   12.0890 c3        1 PC1     -0.079400
     32 C2H       -15.6240    1.0700   13.2960 c3        1 PC1     -0.080400
     33 C2I       -17.1040    1.1170   13.6340 c3        1 PC1     -0.092100
     34 C3         -0.7360    2.8830   -3.2490 c3        1 PC1      0.109400
     35 O31         0.5730    2.4960   -3.5780 os        1 PC1     -0.435900
     36 C31         0.8440    2.4840   -5.0150 c         1 PC1      0.649100
     37 O32        -0.0680    2.4900   -5.7960 o         1 PC1     -0.554000
     38 C32         2.3030    2.6190   -5.5270 c3        1 PC1     -0.114400
     39 C33         2.5510    1.5900   -6.6700 c3        1 PC1     -0.103400
     40 C34         4.0080    1.7210   -7.1780 c3        1 PC1     -0.069400
     41 C35         4.3940    0.4490   -7.9400 c3        1 PC1     -0.079400
     42 C36         5.9150    0.4470   -8.2130 c3        1 PC1     -0.078400
     43 C37         6.3360   -0.9260   -8.7120 c3        1 PC1     -0.078400
     44 C38         7.8900   -1.0310   -8.6990 c3        1 PC1     -0.079400
     45 C39         8.3170   -2.4800   -9.0460 c3        1 PC1     -0.078400
     46 C3A         9.8740   -2.6150   -8.8900 c3        1 PC1     -0.079400
     47 C3B        10.2790   -4.1080   -8.9820 c3        1 PC1     -0.078400
     48 C3C        11.8150   -4.2420   -8.7420 c3        1 PC1     -0.079400
     49 C3D        12.2260   -5.7320   -8.8450 c3        1 PC1     -0.078400
     50 C3E        13.7350   -5.8710   -8.5530 c3        1 PC1     -0.079400
     51 C3F        14.1310   -7.3380   -8.6300 c3        1 PC1     -0.079400
     52 C3G        15.6270   -7.4880   -8.2960 c3        1 PC1     -0.079400
     53 C3H        16.0280   -8.9840   -8.3910 c3        1 PC1     -0.080400
     54 C3I        17.5310   -9.1310   -8.1190 c3        1 PC1     -0.092100
     55 H111        1.7100   -1.8630    2.1610 h1        1 PC1      0.055200
     56 H112        0.7740   -2.8990    1.3510 h1        1 PC1      0.055200
     57 H121        0.0910   -1.8720    3.9460 hx        1 PC1      0.080200
     58 H122       -0.7420   -2.9860    3.1630 hx        1 PC1      0.080200
     59 H131        1.9910   -2.2180    4.9050 hx        1 PC1      0.100033
     60 H132        2.6270   -3.6760    5.1270 hx        1 PC1      0.100033
     61 H133        2.8540   -2.8910    3.7300 hx        1 PC1      0.100033
     62 H141       -0.5010   -4.7880    4.6130 hx        1 PC1      0.100033
     63 H142       -0.0240   -3.6350    5.6370 hx        1 PC1      0.100033
     64 H143        0.8680   -4.9530    5.4340 hx        1 PC1      0.100033
     65 H151        1.6890   -5.4310    3.3720 hx        1 PC1      0.100033
     66 H152        0.5420   -4.8530    2.4190 hx        1 PC1      0.100033
     67 H153        2.0270   -4.2480    2.3390 hx        1 PC1      0.100033
     68 H11        -0.5020    0.6600   -2.2580 h1        1 PC1      0.063700
     69 H12        -1.9500    0.7890   -1.5490 h1        1 PC1      0.063700
     70 H2         -0.2690    3.0170   -1.2460 h1        1 PC1      0.095700
     71 H221       -3.2790    5.8810   -0.3670 hc        1 PC1      0.074200
     72 H222       -4.1660    4.5730   -0.2790 hc        1 PC1      0.074200
     73 H231       -2.7580    5.7980    1.8540 hc        1 PC1      0.057200
     74 H232       -3.2680    4.2860    1.9750 hc        1 PC1      0.057200
     75 H241       -5.5480    5.0950    1.5490 hc        1 PC1      0.039700
     76 H242       -4.9830    6.5900    1.6590 hc        1 PC1      0.039700
     77 H251       -4.6750    4.7590    3.8340 hc        1 PC1      0.042200
     78 H252       -4.5000    6.3450    3.9150 hc        1 PC1      0.042200
     79 H261       -6.8080    6.6820    3.7880 hc        1 PC1      0.039200
     80 H262       -7.0630    5.1780    3.3190 hc        1 PC1      0.039200
     81 H271       -6.2330    5.9230    5.9540 hc        1 PC1      0.040200
     82 H272       -6.3920    4.4160    5.4880 hc        1 PC1      0.040200
     83 H281       -8.5440    6.3090    5.7720 hc        1 PC1      0.039700
     84 H282       -8.7540    4.8860    5.0340 hc        1 PC1      0.039700
     85 H291       -7.9550    5.1350    7.8210 hc        1 PC1      0.039700
     86 H292       -8.1840    3.7290    7.0820 hc        1 PC1      0.039700
     87 H2A1      -10.4850    4.4080    6.7240 hc        1 PC1      0.039200
     88 H2A2      -10.2120    5.6420    7.6970 hc        1 PC1      0.039200
     89 H2B1       -9.7340    4.1420    9.4890 hc        1 PC1      0.039200
     90 H2B2       -9.9460    2.8820    8.5040 hc        1 PC1      0.039200
     91 H2C1      -12.2480    3.4940    8.2490 hc        1 PC1      0.039200
     92 H2C2      -12.0390    4.7300    9.2450 hc        1 PC1      0.039200
     93 H2D1      -11.7650    1.9750   10.0010 hc        1 PC1      0.039200
     94 H2D2      -11.5270    3.1950   10.9970 hc        1 PC1      0.039200
     95 H2E1      -13.8130    3.8250   10.7620 hc        1 PC1      0.039200
     96 H2E2      -14.0530    2.5860    9.7750 hc        1 PC1      0.039200
     97 H2F1      -13.5230    1.0700   11.5760 hc        1 PC1      0.039200
     98 H2F2      -13.3280    2.3270   12.5600 hc        1 PC1      0.039200
     99 H2G1      -15.8390    1.6560   11.3040 hc        1 PC1      0.039200
    100 H2G2      -15.6350    2.8940   12.2970 hc        1 PC1      0.039200
    101 H2H1      -15.1080    1.3720   14.0590 hc        1 PC1      0.038200
    102 H2H2      -15.3680    0.1450   13.0720 hc        1 PC1      0.038200
    103 H2I1      -17.2960    0.4840   14.3520 hc        1 PC1      0.032700
    104 H2I2      -17.6280    0.8790   12.8390 hc        1 PC1      0.032700
    105 H2I3      -17.3430    2.0200   13.9230 hc        1 PC1      0.032700
    106 H31        -0.8470    3.8400   -3.4260 h1        1 PC1      0.072700
    107 H32        -1.3740    2.3720   -3.7920 h1        1 PC1      0.072700
    108 H321        2.9300    2.4440   -4.7840 hc        1 PC1      0.069700
    109 H322        2.4460    3.5330   -5.8710 hc        1 PC1      0.069700
    110 H331        1.9270    1.7670   -7.4130 hc        1 PC1      0.088200
    111 H332        2.4050    0.6830   -6.3290 hc        1 PC1      0.088200
    112 H341        4.6060    1.8420   -6.4210 hc        1 PC1      0.031700
    113 H342        4.0770    2.4870   -7.7730 hc        1 PC1      0.031700
    114 H351        4.1570   -0.3380   -7.4020 hc        1 PC1      0.046200
    115 H352        3.9090    0.4190   -8.7940 hc        1 PC1      0.046200
    116 H361        6.3920    0.6540   -7.3900 hc        1 PC1      0.036700
    117 H362        6.1260    1.1190   -8.8910 hc        1 PC1      0.036700
    118 H371        6.0100   -1.0550   -9.6200 hc        1 PC1      0.038700
    119 H372        5.9590   -1.6130   -8.1300 hc        1 PC1      0.038700
    120 H381        8.2660   -0.4110   -9.3640 hc        1 PC1      0.038700
    121 H382        8.2250   -0.7960   -7.8070 hc        1 PC1      0.038700
    122 H391        8.0610   -2.6840   -9.9700 hc        1 PC1      0.038700
    123 H392        7.8710   -3.1070   -8.4370 hc        1 PC1      0.038700
    124 H3A1       10.3220   -2.1070   -9.6110 hc        1 PC1      0.039700
    125 H3A2       10.1470   -2.2570   -8.0220 hc        1 PC1      0.039700
    126 H3B1       10.0560   -4.4530   -9.8720 hc        1 PC1      0.038700
    127 H3B2        9.7970   -4.6200   -8.3030 hc        1 PC1      0.038700
    128 H3C1       12.0360   -3.9040   -7.8520 hc        1 PC1      0.039700
    129 H3C2       12.3020   -3.7180   -9.4240 hc        1 PC1      0.039700
    130 H3D1       11.7180   -6.2560   -8.1920 hc        1 PC1      0.038700
    131 H3D2       12.0330   -6.0660   -9.7590 hc        1 PC1      0.038700
    132 H3E1       13.9250   -5.5310   -7.6680 hc        1 PC1      0.039700
    133 H3E2       14.2430   -5.3610   -9.2150 hc        1 PC1      0.039700
    134 H3F1       13.6060   -7.8480   -7.9940 hc        1 PC1      0.038700
    135 H3F2       13.9630   -7.6760   -9.5410 hc        1 PC1      0.038700
    136 H3G1       15.7920   -7.1650   -7.3980 hc        1 PC1      0.039700
    137 H3G2       16.1600   -6.9640   -8.9360 hc        1 PC1      0.039700
    138 H3H1       15.8220   -9.3250   -9.2970 hc        1 PC1      0.037700
    139 H3H2       15.5260   -9.4980   -7.7280 hc        1 PC1      0.037700
    140 H3I1       17.7400   -8.7680   -7.2350 hc        1 PC1      0.032367
    141 H3I2       17.7740  -10.0750   -8.1480 hc        1 PC1      0.032367
    142 H3I3       18.0410   -8.6380   -8.8060 hc        1 PC1      0.032367
@<TRIPOS>BOND
     1    1    2 1   
     2    2    3 1   
     3    2    4 1   
     4    2   11 1   
     5    4    5 1   
     6    5    6 1   
     7    5   55 1   
     8    5   56 1   
     9    6    7 1   
    10    6   57 1   
    11    6   58 1   
    12    7    8 1   
    13    7    9 1   
    14    7   10 1   
    15    8   59 1   
    16    8   60 1   
    17    8   61 1   
    18    9   62 1   
    19    9   63 1   
    20    9   64 1   
    21   10   65 1   
    22   10   66 1   
    23   10   67 1   
    24   11   12 1   
    25   12   13 1   
    26   12   68 1   
    27   12   69 1   
    28   13   14 1   
    29   13   34 1   
    30   13   70 1   
    31   14   15 1   
    32   15   16 2   
    33   15   17 1   
    34   17   18 1   
    35   17   71 1   
    36   17   72 1   
    37   18   19 1   
    38   18   73 1   
    39   18   74 1   
    40   19   20 1   
    41   19   75 1   
    42   19   76 1   
    43   20   21 1   
    44   20   77 1   
    45   20   78 1   
    46   21   22 1   
    47   21   79 1   
    48   21   80 1   
    49   22   23 1   
    50   22   81 1   
    51   22   82 1   
    52   23   24 1   
    53   23   83 1   
    54   23   84 1   
    55   24   25 1   
    56   24   85 1   
    57   24   86 1   
    58   25   26 1   
    59   25   87 1   
    60   25   88 1   
    61   26   27 1   
    62   26   89 1   
    63   26   90 1   
    64   27   28 1   
    65   27   91 1   
    66   27   92 1   
    67   28   29 1   
    68   28   93 1   
    69   28   94 1   
    70   29   30 1   
    71   29   95 1   
    72   29   96 1   
    73   30   31 1   
    74   30   97 1   
    75   30   98 1   
    76   31   32 1   
    77   31   99 1   
    78   31  100 1   
    79   32   33 1   
    80   32  101 1   
    81   32  102 1   
    82   33  103 1   
    83   33  104 1   
    84   33  105 1   
    85   34   35 1   
    86   34  106 1   
    87   34  107 1   
    88   35   36 1   
    89   36   37 2   
    90   36   38 1   
    91   38   39 1   
    92   38  108 1   
    93   38  109 1   
    94   39   40 1   
    95   39  110 1   
    96   39  111 1   
    97   40   41 1   
    98   40  112 1   
    99   40  113 1   
   100   41   42 1   
   101   41  114 1   
   102   41  115 1   
   103   42   43 1   
   104   42  116 1   
   105   42  117 1   
   106   43   44 1   
   107   43  118 1   
   108   43  119 1   
   109   44   45 1   
   110   44  120 1   
   111   44  121 1   
   112   45   46 1   
   113   45  122 1   
   114   45  123 1   
   115   46   47 1   
   116   46  124 1   
   117   46  125 1   
   118   47   48 1   
   119   47  126 1   
   120   47  127 1   
   121   48   49 1   
   122   48  128 1   
   123   48  129 1   
   124   49   50 1   
   125   49  130 1   
   126   49  131 1   
   127   50   51 1   
   128   50  132 1   
   129   50  133 1   
   130   51   52 1   
   131   51  134 1   
   132   51  135 1   
   133   52   53 1   
   134   52  136 1   
   135   52  137 1   
   136   53   54 1   
   137   53  138 1   
   138   53  139 1   
   139   54  140 1   
   140   54  141 1   
   141   54  142 1   
@<TRIPOS>SUBSTRUCTURE
     1 PC1         1 TEMP              0 ****  ****    0 ROOT
