@<TRIPOS>MOLECULE
PC1
  142   141     1     0     0
SMALL
bcc


@<TRIPOS>ATOM
      1 O12         1.0320    0.5250   -1.4300 o         1 PC1     -0.819000
      2 P           2.1640   -0.0350   -0.6520 p5        1 PC1      1.446800
      3 O14         2.4360    0.0590    0.7810 o         1 PC1     -0.819000
      4 O13         2.1560   -1.6150   -1.1890 os        1 PC1     -0.558200
      5 C11         0.9700   -2.1250   -1.6780 c3        1 PC1      0.196400
      6 C12         1.0830   -2.4770   -3.1760 c3        1 PC1      0.088800
      7 N           0.8580   -1.3760   -4.1810 n4        1 PC1     -0.580800
      8 C13         2.0130   -0.4320   -4.2090 c3        1 PC1      0.074767
      9 C14         0.7360   -2.0100   -5.5290 c3        1 PC1      0.074767
     10 C15        -0.3960   -0.6220   -3.8910 c3        1 PC1      0.074767
     11 O11         3.5030    0.3580   -1.5240 os        1 PC1     -0.589200
     12 C1          4.3580    1.3320   -1.0110 c3        1 PC1      0.174400
     13 C2          4.3370    2.6100   -1.8810 c3        1 PC1      0.110100
     14 O21         3.5070    3.5750   -1.2110 os        1 PC1     -0.437900
     15 C21         4.0770    4.7160   -0.7220 c         1 PC1      0.642100
     16 O22         5.2860    4.9020   -0.8710 o         1 PC1     -0.549000
     17 C22         3.0670    5.6040   -0.0590 c3        1 PC1     -0.128400
     18 C23         3.6420    6.2370    1.1910 c3        1 PC1     -0.079400
     19 C24         2.6700    7.2370    1.7800 c3        1 PC1     -0.078400
     20 C25         3.2300    7.8610    3.0400 c3        1 PC1     -0.079400
     21 C26         2.2640    8.8660    3.6300 c3        1 PC1     -0.078400
     22 C27         2.8230    9.4900    4.8910 c3        1 PC1     -0.079400
     23 C28         1.8570   10.4960    5.4810 c3        1 PC1     -0.078400
     24 C29         2.4160   11.1190    6.7420 c3        1 PC1     -0.079400
     25 C2A         1.4510   12.1250    7.3320 c3        1 PC1     -0.078400
     26 C2B         2.0100   12.7490    8.5920 c3        1 PC1     -0.079400
     27 C2C         1.0450   13.7550    9.1820 c3        1 PC1     -0.078400
     28 C2D         1.6040   14.3780   10.4430 c3        1 PC1     -0.079400
     29 C2E         0.6390   15.3840   11.0330 c3        1 PC1     -0.078400
     30 C2F         1.1980   16.0080   12.2940 c3        1 PC1     -0.079400
     31 C2G         0.2330   17.0140   12.8840 c3        1 PC1     -0.079400
     32 C2H         0.7910   17.6380   14.1460 c3        1 PC1     -0.080400
     33 C2I        -0.1670   18.6410   14.7370 c3        1 PC1     -0.092100
     34 C3          3.6930    2.3340   -3.2360 c3        1 PC1      0.131400
     35 O31         4.1600    3.3470   -4.1460 os        1 PC1     -0.433900
     36 C31         3.7560    3.2260   -5.4420 c         1 PC1      0.646100
     37 O32         3.0430    2.2640   -5.7510 o         1 PC1     -0.589000
     38 C32         4.2880    4.3160   -6.3210 c3        1 PC1     -0.130400
     39 C33         3.2460    4.7640   -7.3240 c3        1 PC1     -0.077400
     40 C34         3.8320    5.7710   -8.2910 c3        1 PC1     -0.079400
     41 C35         2.7900    6.2400   -9.2850 c3        1 PC1     -0.078400
     42 C36         3.3740    7.2430  -10.2570 c3        1 PC1     -0.079400
     43 C37         2.3330    7.7140  -11.2500 c3        1 PC1     -0.078400
     44 C38         2.9160    8.7160  -12.2230 c3        1 PC1     -0.079400
     45 C39         1.8750    9.1880  -13.2160 c3        1 PC1     -0.078400
     46 C3A         2.4580   10.1900  -14.1880 c3        1 PC1     -0.079400
     47 C3B         1.4180   10.6620  -15.1810 c3        1 PC1     -0.078400
     48 C3C         2.0010   11.6640  -16.1540 c3        1 PC1     -0.079400
     49 C3D         0.9600   12.1360  -17.1470 c3        1 PC1     -0.079400
     50 C3E         1.5440   13.1380  -18.1200 c3        1 PC1     -0.079400
     51 C3F         0.5030   13.6100  -19.1130 c3        1 PC1     -0.079400
     52 C3G         1.0860   14.6120  -20.0860 c3        1 PC1     -0.079400
     53 C3H         0.0460   15.0850  -21.0790 c3        1 PC1     -0.080400
     54 C3I         0.6230   16.0820  -22.0500 c3        1 PC1     -0.092100
     55 H111        0.7840   -3.1180   -1.1680 h1        1 PC1      0.057700
     56 H112        0.1040   -1.4350   -1.4820 h1        1 PC1      0.057700
     57 H121        2.1190   -2.8810   -3.3570 hx        1 PC1      0.080700
     58 H122        0.3190   -3.2740   -3.3970 hx        1 PC1      0.080700
     59 H131        2.9560   -1.0030   -4.4080 hx        1 PC1      0.102033
     60 H132        2.0850    0.0780   -3.1990 hx        1 PC1      0.102033
     61 H133        1.8550    0.3470   -5.0030 hx        1 PC1      0.102033
     62 H141       -0.1790   -2.6570   -5.5600 hx        1 PC1      0.102033
     63 H142        0.6540   -1.2080   -6.3090 hx        1 PC1      0.102033
     64 H143        1.6470   -2.6320   -5.7300 hx        1 PC1      0.102033
     65 H151       -0.2420    0.0440   -2.9860 hx        1 PC1      0.102033
     66 H152       -1.2250   -1.3490   -3.6980 hx        1 PC1      0.102033
     67 H153       -0.6450    0.0210   -4.7750 hx        1 PC1      0.102033
     68 H11         5.4050    0.9190   -1.0380 h1        1 PC1      0.060200
     69 H12         4.0770    1.5810    0.0510 h1        1 PC1      0.060200
     70 H2          5.3800    3.0090   -2.0090 h1        1 PC1      0.096700
     71 H221        2.1470    5.0100    0.1870 hc        1 PC1      0.079200
     72 H222        2.7800    6.3950   -0.8030 hc        1 PC1      0.079200
     73 H231        4.6120    6.7440    0.9420 hc        1 PC1      0.058200
     74 H232        3.8680    5.4390    1.9460 hc        1 PC1      0.058200
     75 H241        1.6980    6.7270    2.0120 hc        1 PC1      0.040700
     76 H242        2.4520    8.0400    1.0280 hc        1 PC1      0.040700
     77 H251        4.2050    8.3660    2.8090 hc        1 PC1      0.043200
     78 H252        3.4440    7.0580    3.7940 hc        1 PC1      0.043200
     79 H261        1.2890    8.3610    3.8610 hc        1 PC1      0.039200
     80 H262        2.0490    9.6690    2.8760 hc        1 PC1      0.039200
     81 H271        3.0370    8.6870    5.6440 hc        1 PC1      0.040700
     82 H272        3.7980    9.9950    4.6600 hc        1 PC1      0.040700
     83 H281        1.6430   11.2990    4.7270 hc        1 PC1      0.039200
     84 H282        0.8830    9.9900    5.7110 hc        1 PC1      0.039200
     85 H291        3.3920   11.6240    6.5110 hc        1 PC1      0.040200
     86 H292        2.6300   10.3160    7.4950 hc        1 PC1      0.040200
     87 H2A1        0.4760   11.6200    7.5620 hc        1 PC1      0.039200
     88 H2A2        1.2370   12.9280    6.5780 hc        1 PC1      0.039200
     89 H2B1        2.2240   11.9460    9.3460 hc        1 PC1      0.039700
     90 H2B2        2.9850   13.2540    8.3620 hc        1 PC1      0.039700
     91 H2C1        0.8310   14.5580    8.4280 hc        1 PC1      0.039200
     92 H2C2        0.0700   13.2500    9.4130 hc        1 PC1      0.039200
     93 H2D1        2.5790   14.8830   10.2130 hc        1 PC1      0.039700
     94 H2D2        1.8180   13.5750   11.1970 hc        1 PC1      0.039700
     95 H2E1        0.4250   16.1870   10.2800 hc        1 PC1      0.039200
     96 H2E2       -0.3360   14.8800   11.2640 hc        1 PC1      0.039200
     97 H2F1        2.1730   16.5120   12.0640 hc        1 PC1      0.039700
     98 H2F2        1.4120   15.2050   13.0480 hc        1 PC1      0.039700
     99 H2G1        0.0190   17.8170   12.1310 hc        1 PC1      0.039200
    100 H2G2       -0.7420   16.5090   13.1150 hc        1 PC1      0.039200
    101 H2H1        1.0050   16.8330   14.8970 hc        1 PC1      0.038700
    102 H2H2        1.7670   18.1410   13.9140 hc        1 PC1      0.038700
    103 H2I1       -1.1370   18.1530   14.9980 hc        1 PC1      0.032367
    104 H2I2        0.2640   19.0880   15.6650 hc        1 PC1      0.032367
    105 H2I3       -0.3730   19.4640   14.0110 hc        1 PC1      0.032367
    106 H31         2.5750    2.3880   -3.1760 h1        1 PC1      0.075200
    107 H32         4.0090    1.3270   -3.6190 h1        1 PC1      0.075200
    108 H321        4.6240    5.1790   -5.6880 hc        1 PC1      0.081200
    109 H322        5.1900    3.9070   -6.8510 hc        1 PC1      0.081200
    110 H331        2.3760    5.2210   -6.7830 hc        1 PC1      0.054200
    111 H332        2.8580    3.8730   -7.8840 hc        1 PC1      0.054200
    112 H341        4.6940    5.3090   -8.8400 hc        1 PC1      0.042700
    113 H342        4.2330    6.6510   -7.7230 hc        1 PC1      0.042700
    114 H351        2.3860    5.3590   -9.8500 hc        1 PC1      0.041200
    115 H352        1.9290    6.7050   -8.7360 hc        1 PC1      0.041200
    116 H361        4.2340    6.7780  -10.8060 hc        1 PC1      0.040700
    117 H362        3.7790    8.1230   -9.6910 hc        1 PC1      0.040700
    118 H371        1.9270    6.8340  -11.8150 hc        1 PC1      0.039700
    119 H372        1.4720    8.1790  -10.7010 hc        1 PC1      0.039700
    120 H381        3.3220    9.5960  -11.6570 hc        1 PC1      0.040200
    121 H382        3.7760    8.2510  -12.7720 hc        1 PC1      0.040200
    122 H391        1.0150    9.6530  -12.6660 hc        1 PC1      0.039200
    123 H392        1.4690    8.3080  -13.7810 hc        1 PC1      0.039200
    124 H3A1        3.3190    9.7240  -14.7380 hc        1 PC1      0.039700
    125 H3A2        2.8650   11.0700  -13.6230 hc        1 PC1      0.039700
    126 H3B1        0.5580   11.1280  -14.6320 hc        1 PC1      0.039200
    127 H3B2        1.0110    9.7820  -15.7460 hc        1 PC1      0.039200
    128 H3C1        2.8610   11.1980  -16.7040 hc        1 PC1      0.039700
    129 H3C2        2.4080   12.5430  -15.5890 hc        1 PC1      0.039700
    130 H3D1        0.5530   11.2560  -17.7120 hc        1 PC1      0.039200
    131 H3D2        0.1010   12.6020  -16.5970 hc        1 PC1      0.039200
    132 H3E1        2.4040   12.6710  -18.6700 hc        1 PC1      0.039700
    133 H3E2        1.9510   14.0170  -17.5550 hc        1 PC1      0.039700
    134 H3F1       -0.3570   14.0760  -18.5630 hc        1 PC1      0.039200
    135 H3F2        0.0960   12.7300  -19.6770 hc        1 PC1      0.039200
    136 H3G1        1.9460   14.1460  -20.6360 hc        1 PC1      0.039700
    137 H3G2        1.4940   15.4920  -19.5210 hc        1 PC1      0.039700
    138 H3H1       -0.8130   15.5490  -20.5270 hc        1 PC1      0.038200
    139 H3H2       -0.3610   14.2030  -21.6420 hc        1 PC1      0.038200
    140 H3I1        1.0120   16.9790  -21.5100 hc        1 PC1      0.032700
    141 H3I2        1.4650   15.6300  -22.6270 hc        1 PC1      0.032700
    142 H3I3       -0.1600   16.4180  -22.7730 hc        1 PC1      0.032700
@<TRIPOS>BOND
     1    1    2 1   
     2    2    3 1   
     3    2    4 1   
     4    2   11 1   
     5    4    5 1   
     6    5    6 1   
     7    5   55 1   
     8    5   56 1   
     9    6    7 1   
    10    6   57 1   
    11    6   58 1   
    12    7    8 1   
    13    7    9 1   
    14    7   10 1   
    15    8   59 1   
    16    8   60 1   
    17    8   61 1   
    18    9   62 1   
    19    9   63 1   
    20    9   64 1   
    21   10   65 1   
    22   10   66 1   
    23   10   67 1   
    24   11   12 1   
    25   12   13 1   
    26   12   68 1   
    27   12   69 1   
    28   13   14 1   
    29   13   34 1   
    30   13   70 1   
    31   14   15 1   
    32   15   16 2   
    33   15   17 1   
    34   17   18 1   
    35   17   71 1   
    36   17   72 1   
    37   18   19 1   
    38   18   73 1   
    39   18   74 1   
    40   19   20 1   
    41   19   75 1   
    42   19   76 1   
    43   20   21 1   
    44   20   77 1   
    45   20   78 1   
    46   21   22 1   
    47   21   79 1   
    48   21   80 1   
    49   22   23 1   
    50   22   81 1   
    51   22   82 1   
    52   23   24 1   
    53   23   83 1   
    54   23   84 1   
    55   24   25 1   
    56   24   85 1   
    57   24   86 1   
    58   25   26 1   
    59   25   87 1   
    60   25   88 1   
    61   26   27 1   
    62   26   89 1   
    63   26   90 1   
    64   27   28 1   
    65   27   91 1   
    66   27   92 1   
    67   28   29 1   
    68   28   93 1   
    69   28   94 1   
    70   29   30 1   
    71   29   95 1   
    72   29   96 1   
    73   30   31 1   
    74   30   97 1   
    75   30   98 1   
    76   31   32 1   
    77   31   99 1   
    78   31  100 1   
    79   32   33 1   
    80   32  101 1   
    81   32  102 1   
    82   33  103 1   
    83   33  104 1   
    84   33  105 1   
    85   34   35 1   
    86   34  106 1   
    87   34  107 1   
    88   35   36 1   
    89   36   37 2   
    90   36   38 1   
    91   38   39 1   
    92   38  108 1   
    93   38  109 1   
    94   39   40 1   
    95   39  110 1   
    96   39  111 1   
    97   40   41 1   
    98   40  112 1   
    99   40  113 1   
   100   41   42 1   
   101   41  114 1   
   102   41  115 1   
   103   42   43 1   
   104   42  116 1   
   105   42  117 1   
   106   43   44 1   
   107   43  118 1   
   108   43  119 1   
   109   44   45 1   
   110   44  120 1   
   111   44  121 1   
   112   45   46 1   
   113   45  122 1   
   114   45  123 1   
   115   46   47 1   
   116   46  124 1   
   117   46  125 1   
   118   47   48 1   
   119   47  126 1   
   120   47  127 1   
   121   48   49 1   
   122   48  128 1   
   123   48  129 1   
   124   49   50 1   
   125   49  130 1   
   126   49  131 1   
   127   50   51 1   
   128   50  132 1   
   129   50  133 1   
   130   51   52 1   
   131   51  134 1   
   132   51  135 1   
   133   52   53 1   
   134   52  136 1   
   135   52  137 1   
   136   53   54 1   
   137   53  138 1   
   138   53  139 1   
   139   54  140 1   
   140   54  141 1   
   141   54  142 1   
@<TRIPOS>SUBSTRUCTURE
     1 PC1         1 TEMP              0 ****  ****    0 ROOT
