@<TRIPOS>MOLECULE
PC1
  142   141     1     0     0
SMALL
bcc


@<TRIPOS>ATOM
      1 O12         1.0100    0.6920   -1.4060 o         1 PC1     -0.819000
      2 P           2.1480    0.1330   -0.6370 p5        1 PC1      1.446800
      3 O14         2.4340    0.2320    0.7930 o         1 PC1     -0.819000
      4 O13         2.1330   -1.4480   -1.1680 os        1 PC1     -0.558200
      5 C11         0.9430   -1.9590   -1.6440 c3        1 PC1      0.196400
      6 C12         1.0410   -2.3150   -3.1420 c3        1 PC1      0.088800
      7 N           0.8070   -1.2180   -4.1490 n4        1 PC1     -0.580800
      8 C13         1.9640   -0.2750   -4.1910 c3        1 PC1      0.074767
      9 C14         0.6730   -1.8560   -5.4940 c3        1 PC1      0.074767
     10 C15        -0.4430   -0.4620   -3.8500 c3        1 PC1      0.074767
     11 O11         3.4800    0.5220   -1.5230 os        1 PC1     -0.589200
     12 C1          4.3410    1.4960   -1.0220 c3        1 PC1      0.174400
     13 C2          4.3140    2.7710   -1.8940 c3        1 PC1      0.110100
     14 O21         3.4910    3.7390   -1.2200 os        1 PC1     -0.437900
     15 C21         4.0700    4.8730   -0.7230 c         1 PC1      0.642100
     16 O22         5.2800    5.0510   -0.8740 o         1 PC1     -0.549000
     17 C22         3.0690    5.7640   -0.0530 c3        1 PC1     -0.127400
     18 C23         3.6370    6.3500    1.2230 c3        1 PC1     -0.079400
     19 C24         2.6780    7.3540    1.8260 c3        1 PC1     -0.078400
     20 C25         3.2300    7.9290    3.1120 c3        1 PC1     -0.079400
     21 C26         2.2760    8.9370    3.7160 c3        1 PC1     -0.078400
     22 C27         2.8280    9.5110    5.0040 c3        1 PC1     -0.079400
     23 C28         1.8740   10.5190    5.6090 c3        1 PC1     -0.078400
     24 C29         2.4250   11.0920    6.8970 c3        1 PC1     -0.079400
     25 C2A         1.4710   12.1000    7.5020 c3        1 PC1     -0.078400
     26 C2B         2.0220   12.6720    8.7910 c3        1 PC1     -0.079400
     27 C2C         1.0680   13.6790    9.3970 c3        1 PC1     -0.078400
     28 C2D         1.6190   14.2510   10.6850 c3        1 PC1     -0.079400
     29 C2E         0.6650   15.2570   11.2920 c3        1 PC1     -0.078400
     30 C2F         1.2150   15.8290   12.5810 c3        1 PC1     -0.079400
     31 C2G         0.2610   16.8350   13.1880 c3        1 PC1     -0.079400
     32 C2H         0.8100   17.4080   14.4770 c3        1 PC1     -0.080400
     33 C2I        -0.1360   18.4100   15.0850 c3        1 PC1     -0.092100
     34 C3          3.6560    2.4930   -3.2430 c3        1 PC1      0.132400
     35 O31         4.1180    3.5020   -4.1600 os        1 PC1     -0.433900
     36 C31         3.7050    3.3750   -5.4530 c         1 PC1      0.646100
     37 O32         2.9870    2.4130   -5.7520 o         1 PC1     -0.589000
     38 C32         4.2330    4.4590   -6.3400 c3        1 PC1     -0.130400
     39 C33         3.2030    4.8730   -7.3700 c3        1 PC1     -0.077400
     40 C34         3.7900    5.8700   -8.3450 c3        1 PC1     -0.079400
     41 C35         2.7610    6.3020   -9.3680 c3        1 PC1     -0.078400
     42 C36         3.3470    7.2940  -10.3500 c3        1 PC1     -0.079400
     43 C37         2.3190    7.7250  -11.3740 c3        1 PC1     -0.078400
     44 C38         2.9050    8.7150  -12.3570 c3        1 PC1     -0.079400
     45 C39         1.8780    9.1460  -13.3820 c3        1 PC1     -0.078400
     46 C3A         2.4650   10.1340  -14.3660 c3        1 PC1     -0.079400
     47 C3B         1.4380   10.5640  -15.3920 c3        1 PC1     -0.078400
     48 C3C         2.0250   11.5520  -16.3770 c3        1 PC1     -0.079400
     49 C3D         0.9980   11.9810  -17.4030 c3        1 PC1     -0.079400
     50 C3E         1.5850   12.9690  -18.3880 c3        1 PC1     -0.079400
     51 C3F         0.5590   13.3980  -19.4150 c3        1 PC1     -0.079400
     52 C3G         1.1460   14.3850  -20.4000 c3        1 PC1     -0.079400
     53 C3H         0.1200   14.8150  -21.4270 c3        1 PC1     -0.080400
     54 C3I         0.7000   15.7980  -22.4100 c3        1 PC1     -0.092100
     55 H111        0.7600   -2.9500   -1.1300 h1        1 PC1      0.057700
     56 H112        0.0790   -1.2670   -1.4430 h1        1 PC1      0.057700
     57 H121        2.0750   -2.7200   -3.3320 hx        1 PC1      0.080700
     58 H122        0.2750   -3.1120   -3.3540 hx        1 PC1      0.080700
     59 H131        2.9040   -0.8470   -4.3960 hx        1 PC1      0.102033
     60 H132        2.0440    0.2390   -3.1830 hx        1 PC1      0.102033
     61 H133        1.7990    0.5010   -4.9860 hx        1 PC1      0.102033
     62 H141       -0.2420   -2.5020   -5.5140 hx        1 PC1      0.102033
     63 H142        0.5840   -1.0570   -6.2760 hx        1 PC1      0.102033
     64 H143        1.5810   -2.4790   -5.7010 hx        1 PC1      0.102033
     65 H151       -0.2800    0.2070   -2.9480 hx        1 PC1      0.102033
     66 H152       -1.2700   -1.1870   -3.6470 hx        1 PC1      0.102033
     67 H153       -0.6990    0.1790   -4.7330 hx        1 PC1      0.102033
     68 H11         5.3880    1.0800   -1.0590 h1        1 PC1      0.060200
     69 H12         4.0720    1.7480    0.0420 h1        1 PC1      0.060200
     70 H2          5.3560    3.1690   -2.0330 h1        1 PC1      0.096700
     71 H221        2.1320    5.1840    0.1640 hc        1 PC1      0.079200
     72 H222        2.8100    6.5810   -0.7780 hc        1 PC1      0.079200
     73 H231        4.6210    6.8430    1.0020 hc        1 PC1      0.058700
     74 H232        3.8350    5.5260    1.9580 hc        1 PC1      0.058700
     75 H241        1.6920    6.8580    2.0280 hc        1 PC1      0.040700
     76 H242        2.4890    8.1820    1.0940 hc        1 PC1      0.040700
     77 H251        4.2190    8.4190    2.9110 hc        1 PC1      0.043200
     78 H252        3.4160    7.1000    3.8450 hc        1 PC1      0.043200
     79 H261        1.2880    8.4460    3.9170 hc        1 PC1      0.039200
     80 H262        2.0910    9.7660    2.9830 hc        1 PC1      0.039200
     81 H271        3.0130    8.6820    5.7360 hc        1 PC1      0.040700
     82 H272        3.8170   10.0020    4.8030 hc        1 PC1      0.040700
     83 H281        1.6900   11.3490    4.8760 hc        1 PC1      0.039200
     84 H282        0.8850   10.0280    5.8080 hc        1 PC1      0.039200
     85 H291        3.4140   11.5830    6.6970 hc        1 PC1      0.040200
     86 H292        2.6100   10.2620    7.6290 hc        1 PC1      0.040200
     87 H2A1        0.4820   11.6090    7.7010 hc        1 PC1      0.039200
     88 H2A2        1.2870   12.9300    6.7710 hc        1 PC1      0.039200
     89 H2B1        2.2070   11.8420    9.5220 hc        1 PC1      0.039700
     90 H2B2        3.0110   13.1630    8.5920 hc        1 PC1      0.039700
     91 H2C1        0.8830   14.5090    8.6650 hc        1 PC1      0.039200
     92 H2C2        0.0790   13.1880    9.5960 hc        1 PC1      0.039200
     93 H2D1        2.6070   14.7420   10.4870 hc        1 PC1      0.039700
     94 H2D2        1.8040   13.4200   11.4170 hc        1 PC1      0.039700
     95 H2E1        0.4790   16.0880   10.5610 hc        1 PC1      0.039200
     96 H2E2       -0.3240   14.7660   11.4910 hc        1 PC1      0.039200
     97 H2F1        2.2040   16.3210   12.3820 hc        1 PC1      0.039700
     98 H2F2        1.4010   14.9980   13.3120 hc        1 PC1      0.039700
     99 H2G1        0.0750   17.6660   12.4570 hc        1 PC1      0.039200
    100 H2G2       -0.7280   16.3440   13.3870 hc        1 PC1      0.039200
    101 H2H1        0.9970   16.5750   15.2060 hc        1 PC1      0.038700
    102 H2H2        1.8000   17.8980   14.2760 hc        1 PC1      0.038700
    103 H2I1       -1.1200   17.9340   15.3150 hc        1 PC1      0.032367
    104 H2I2        0.2880   18.8190   16.0340 hc        1 PC1      0.032367
    105 H2I3       -0.3150   19.2600   14.3830 hc        1 PC1      0.032367
    106 H31         2.5390    2.5500   -3.1720 h1        1 PC1      0.075200
    107 H32         3.9660    1.4840   -3.6250 h1        1 PC1      0.075200
    108 H321        4.5430    5.3390   -5.7160 hc        1 PC1      0.081700
    109 H322        5.1530    4.0580   -6.8460 hc        1 PC1      0.081700
    110 H331        2.3160    5.3250   -6.8530 hc        1 PC1      0.054200
    111 H332        2.8390    3.9650   -7.9200 hc        1 PC1      0.054200
    112 H341        4.6710    5.4130   -8.8680 hc        1 PC1      0.042700
    113 H342        4.1660    6.7680   -7.7870 hc        1 PC1      0.042700
    114 H351        2.3810    5.4030   -9.9220 hc        1 PC1      0.041200
    115 H352        1.8820    6.7640   -8.8460 hc        1 PC1      0.041200
    116 H361        4.2270    6.8320  -10.8720 hc        1 PC1      0.040700
    117 H362        3.7260    8.1930   -9.7960 hc        1 PC1      0.040700
    118 H371        1.9390    6.8260  -11.9270 hc        1 PC1      0.039700
    119 H372        1.4400    8.1880  -10.8520 hc        1 PC1      0.039700
    120 H381        3.2850    9.6150  -11.8040 hc        1 PC1      0.040200
    121 H382        3.7850    8.2520  -12.8780 hc        1 PC1      0.040200
    122 H391        0.9990    9.6100  -12.8610 hc        1 PC1      0.039200
    123 H392        1.4980    8.2460  -13.9340 hc        1 PC1      0.039200
    124 H3A1        3.3450    9.6710  -14.8860 hc        1 PC1      0.039700
    125 H3A2        2.8440   11.0340  -13.8140 hc        1 PC1      0.039700
    126 H3B1        0.5590   11.0280  -14.8720 hc        1 PC1      0.039200
    127 H3B2        1.0580    9.6640  -15.9440 hc        1 PC1      0.039200
    128 H3C1        2.9050   11.0880  -16.8960 hc        1 PC1      0.039700
    129 H3C2        2.4040   12.4530  -15.8250 hc        1 PC1      0.039700
    130 H3D1        0.6190   11.0810  -17.9540 hc        1 PC1      0.039200
    131 H3D2        0.1190   12.4460  -16.8840 hc        1 PC1      0.039200
    132 H3E1        2.4650   12.5050  -18.9070 hc        1 PC1      0.039700
    133 H3E2        1.9650   13.8700  -17.8370 hc        1 PC1      0.039700
    134 H3F1       -0.3210   13.8620  -18.8950 hc        1 PC1      0.039200
    135 H3F2        0.1790   12.4970  -19.9660 hc        1 PC1      0.039200
    136 H3G1        2.0250   13.9210  -20.9190 hc        1 PC1      0.039700
    137 H3G2        1.5250   15.2860  -19.8490 hc        1 PC1      0.039700
    138 H3H1       -0.7590   15.2770  -20.9060 hc        1 PC1      0.038200
    139 H3H2       -0.2590   13.9130  -21.9760 hc        1 PC1      0.038200
    140 H3I1        1.0610   16.7150  -21.8850 hc        1 PC1      0.032700
    141 H3I2        1.5630   15.3470  -22.9580 hc        1 PC1      0.032700
    142 H3I3       -0.0720   16.1020  -23.1580 hc        1 PC1      0.032700
@<TRIPOS>BOND
     1    1    2 1   
     2    2    3 1   
     3    2    4 1   
     4    2   11 1   
     5    4    5 1   
     6    5    6 1   
     7    5   55 1   
     8    5   56 1   
     9    6    7 1   
    10    6   57 1   
    11    6   58 1   
    12    7    8 1   
    13    7    9 1   
    14    7   10 1   
    15    8   59 1   
    16    8   60 1   
    17    8   61 1   
    18    9   62 1   
    19    9   63 1   
    20    9   64 1   
    21   10   65 1   
    22   10   66 1   
    23   10   67 1   
    24   11   12 1   
    25   12   13 1   
    26   12   68 1   
    27   12   69 1   
    28   13   14 1   
    29   13   34 1   
    30   13   70 1   
    31   14   15 1   
    32   15   16 2   
    33   15   17 1   
    34   17   18 1   
    35   17   71 1   
    36   17   72 1   
    37   18   19 1   
    38   18   73 1   
    39   18   74 1   
    40   19   20 1   
    41   19   75 1   
    42   19   76 1   
    43   20   21 1   
    44   20   77 1   
    45   20   78 1   
    46   21   22 1   
    47   21   79 1   
    48   21   80 1   
    49   22   23 1   
    50   22   81 1   
    51   22   82 1   
    52   23   24 1   
    53   23   83 1   
    54   23   84 1   
    55   24   25 1   
    56   24   85 1   
    57   24   86 1   
    58   25   26 1   
    59   25   87 1   
    60   25   88 1   
    61   26   27 1   
    62   26   89 1   
    63   26   90 1   
    64   27   28 1   
    65   27   91 1   
    66   27   92 1   
    67   28   29 1   
    68   28   93 1   
    69   28   94 1   
    70   29   30 1   
    71   29   95 1   
    72   29   96 1   
    73   30   31 1   
    74   30   97 1   
    75   30   98 1   
    76   31   32 1   
    77   31   99 1   
    78   31  100 1   
    79   32   33 1   
    80   32  101 1   
    81   32  102 1   
    82   33  103 1   
    83   33  104 1   
    84   33  105 1   
    85   34   35 1   
    86   34  106 1   
    87   34  107 1   
    88   35   36 1   
    89   36   37 2   
    90   36   38 1   
    91   38   39 1   
    92   38  108 1   
    93   38  109 1   
    94   39   40 1   
    95   39  110 1   
    96   39  111 1   
    97   40   41 1   
    98   40  112 1   
    99   40  113 1   
   100   41   42 1   
   101   41  114 1   
   102   41  115 1   
   103   42   43 1   
   104   42  116 1   
   105   42  117 1   
   106   43   44 1   
   107   43  118 1   
   108   43  119 1   
   109   44   45 1   
   110   44  120 1   
   111   44  121 1   
   112   45   46 1   
   113   45  122 1   
   114   45  123 1   
   115   46   47 1   
   116   46  124 1   
   117   46  125 1   
   118   47   48 1   
   119   47  126 1   
   120   47  127 1   
   121   48   49 1   
   122   48  128 1   
   123   48  129 1   
   124   49   50 1   
   125   49  130 1   
   126   49  131 1   
   127   50   51 1   
   128   50  132 1   
   129   50  133 1   
   130   51   52 1   
   131   51  134 1   
   132   51  135 1   
   133   52   53 1   
   134   52  136 1   
   135   52  137 1   
   136   53   54 1   
   137   53  138 1   
   138   53  139 1   
   139   54  140 1   
   140   54  141 1   
   141   54  142 1   
@<TRIPOS>SUBSTRUCTURE
     1 PC1         1 TEMP              0 ****  ****    0 ROOT
