@<TRIPOS>MOLECULE
PC1
  142   141     1     0     0
SMALL
bcc


@<TRIPOS>ATOM
      1 O12        -6.2400    9.3750   -7.8630 o         1 PC1     -0.819000
      2 P          -7.0410   10.4750   -8.4520 p5        1 PC1      1.446800
      3 O14        -6.6810   11.8790   -8.6470 o         1 PC1     -0.819000
      4 O13        -7.5600    9.7570   -9.8660 os        1 PC1     -0.558200
      5 C11        -6.8010    8.7270  -10.3840 c3        1 PC1      0.196400
      6 C12        -7.5810    7.3960  -10.3820 c3        1 PC1      0.088800
      7 N          -7.5760    6.5730   -9.1190 n4        1 PC1     -0.580800
      8 C13        -8.4350    7.1980   -8.0700 c3        1 PC1      0.074767
      9 C14        -8.1410    5.2300   -9.4500 c3        1 PC1      0.074767
     10 C15        -6.1930    6.3950   -8.5910 c3        1 PC1      0.074767
     11 O11        -8.5150   10.3500   -7.7310 os        1 PC1     -0.589200
     12 C1         -8.8790   11.3260   -6.8060 c3        1 PC1      0.174400
     13 C2         -8.9670   10.7400   -5.3790 c3        1 PC1      0.110100
     14 O21        -7.7670   11.1160   -4.6820 os        1 PC1     -0.437900
     15 C21        -7.8540   11.9710   -3.6190 c         1 PC1      0.642100
     16 O22        -8.9580   12.3950   -3.2730 o         1 PC1     -0.549000
     17 C22        -6.5110   12.2510   -3.0160 c3        1 PC1     -0.128400
     18 C23        -6.3930   13.7040   -2.6100 c3        1 PC1     -0.079400
     19 C24        -5.0910   13.9520   -1.8780 c3        1 PC1     -0.078400
     20 C25        -4.9580   15.4080   -1.4850 c3        1 PC1     -0.079400
     21 C26        -3.6600   15.6590   -0.7470 c3        1 PC1     -0.078400
     22 C27        -3.5260   17.1150   -0.3540 c3        1 PC1     -0.079400
     23 C28        -2.2290   17.3670    0.3850 c3        1 PC1     -0.078400
     24 C29        -2.0950   18.8230    0.7780 c3        1 PC1     -0.079400
     25 C2A        -0.7980   19.0750    1.5170 c3        1 PC1     -0.078400
     26 C2B        -0.6640   20.5310    1.9100 c3        1 PC1     -0.079400
     27 C2C         0.6330   20.7840    2.6490 c3        1 PC1     -0.078400
     28 C2D         0.7670   22.2390    3.0420 c3        1 PC1     -0.079400
     29 C2E         2.0630   22.4920    3.7810 c3        1 PC1     -0.078400
     30 C2F         2.1970   23.9480    4.1730 c3        1 PC1     -0.079400
     31 C2G         3.4940   24.2000    4.9130 c3        1 PC1     -0.079400
     32 C2H         3.6290   25.6560    5.3060 c3        1 PC1     -0.080400
     33 C2I         4.9180   25.9130    6.0430 c3        1 PC1     -0.092100
     34 C3         -8.9990    9.2150   -5.4180 c3        1 PC1      0.131400
     35 O31        -9.5900    8.7660   -4.1840 os        1 PC1     -0.433900
     36 C31        -9.7820    7.4230   -4.0610 c         1 PC1      0.646100
     37 O32        -9.4600    6.6910   -5.0040 o         1 PC1     -0.589000
     38 C32       -10.4040    7.0420   -2.7530 c3        1 PC1     -0.130400
     39 C33        -9.8010    5.7620   -2.2150 c3        1 PC1     -0.077400
     40 C34       -10.5220    5.3150   -0.9620 c3        1 PC1     -0.079400
     41 C35        -9.9120    4.0460   -0.4060 c3        1 PC1     -0.078400
     42 C36       -10.6350    3.5930    0.8450 c3        1 PC1     -0.079400
     43 C37       -10.0250    2.3250    1.4020 c3        1 PC1     -0.078400
     44 C38       -10.7470    1.8710    2.6530 c3        1 PC1     -0.079400
     45 C39       -10.1370    0.6040    3.2100 c3        1 PC1     -0.078400
     46 C3A       -10.8600    0.1500    4.4610 c3        1 PC1     -0.079400
     47 C3B       -10.2500   -1.1180    5.0190 c3        1 PC1     -0.078400
     48 C3C       -10.9730   -1.5710    6.2690 c3        1 PC1     -0.079400
     49 C3D       -10.3630   -2.8390    6.8270 c3        1 PC1     -0.079400
     50 C3E       -11.0850   -3.2930    8.0780 c3        1 PC1     -0.079400
     51 C3F       -10.4750   -4.5610    8.6360 c3        1 PC1     -0.079400
     52 C3G       -11.1980   -5.0140    9.8860 c3        1 PC1     -0.079400
     53 C3H       -10.5890   -6.2820   10.4450 c3        1 PC1     -0.080400
     54 C3I       -11.3050   -6.7370   11.6900 c3        1 PC1     -0.092100
     55 H111       -5.8140    8.6260   -9.8540 h1        1 PC1      0.057700
     56 H112       -6.6200    8.9470  -11.4790 h1        1 PC1      0.057700
     57 H121       -7.1450    6.7440  -11.1900 hx        1 PC1      0.080700
     58 H122       -8.6580    7.6280  -10.6190 hx        1 PC1      0.080700
     59 H131       -9.4680    7.3480   -8.4760 hx        1 PC1      0.102033
     60 H132       -8.4660    6.5430   -7.1590 hx        1 PC1      0.102033
     61 H133       -7.9870    8.2010   -7.7910 hx        1 PC1      0.102033
     62 H141       -8.2300    4.6230   -8.5100 hx        1 PC1      0.102033
     63 H142       -9.1560    5.3560   -9.9080 hx        1 PC1      0.102033
     64 H143       -7.4630    4.7040  -10.1710 hx        1 PC1      0.102033
     65 H151       -5.5170    6.0920   -9.4290 hx        1 PC1      0.102033
     66 H152       -5.8310    7.3650   -8.1280 hx        1 PC1      0.102033
     67 H153       -6.2070    5.6000   -7.8000 hx        1 PC1      0.102033
     68 H11        -8.1460   12.1810   -6.8290 h1        1 PC1      0.060200
     69 H12        -9.9050   11.6980   -7.0850 h1        1 PC1      0.060200
     70 H2         -9.8730   11.1430   -4.8490 h1        1 PC1      0.096700
     71 H221       -5.7050   11.9790   -3.7490 hc        1 PC1      0.079200
     72 H222       -6.4020   11.5830   -2.1200 hc        1 PC1      0.079200
     73 H231       -6.4430   14.3540   -3.5230 hc        1 PC1      0.058200
     74 H232       -7.2620   13.9820   -1.9560 hc        1 PC1      0.058200
     75 H241       -4.2290   13.6590   -2.5330 hc        1 PC1      0.040700
     76 H242       -5.0460   13.3090   -0.9600 hc        1 PC1      0.040700
     77 H251       -4.9990   16.0510   -2.4030 hc        1 PC1      0.043200
     78 H252       -5.8240   15.7030   -0.8350 hc        1 PC1      0.043200
     79 H261       -3.6190   15.0170    0.1720 hc        1 PC1      0.039200
     80 H262       -2.7950   15.3640   -1.3970 hc        1 PC1      0.039200
     81 H271       -4.3920   17.4110    0.2950 hc        1 PC1      0.040700
     82 H272       -3.5670   17.7580   -1.2720 hc        1 PC1      0.040700
     83 H281       -2.1880   16.7240    1.3030 hc        1 PC1      0.039200
     84 H282       -1.3630   17.0720   -0.2640 hc        1 PC1      0.039200
     85 H291       -2.9610   19.1190    1.4270 hc        1 PC1      0.040200
     86 H292       -2.1360   19.4660   -0.1410 hc        1 PC1      0.040200
     87 H2A1       -0.7570   18.4330    2.4350 hc        1 PC1      0.039200
     88 H2A2        0.0680   18.7800    0.8680 hc        1 PC1      0.039200
     89 H2B1       -0.7050   21.1740    0.9910 hc        1 PC1      0.039700
     90 H2B2       -1.5300   20.8270    2.5580 hc        1 PC1      0.039700
     91 H2C1        1.4990   20.4880    2.0000 hc        1 PC1      0.039200
     92 H2C2        0.6730   20.1410    3.5670 hc        1 PC1      0.039200
     93 H2D1        0.7260   22.8820    2.1230 hc        1 PC1      0.039700
     94 H2D2       -0.1000   22.5350    3.6900 hc        1 PC1      0.039700
     95 H2E1        2.1040   21.8490    4.6990 hc        1 PC1      0.039200
     96 H2E2        2.9300   22.1960    3.1320 hc        1 PC1      0.039200
     97 H2F1        2.1570   24.5900    3.2550 hc        1 PC1      0.039700
     98 H2F2        1.3310   24.2430    4.8220 hc        1 PC1      0.039700
     99 H2G1        3.5340   23.5580    5.8320 hc        1 PC1      0.039200
    100 H2G2        4.3600   23.9050    4.2650 hc        1 PC1      0.039200
    101 H2H1        2.7600   25.9500    5.9530 hc        1 PC1      0.038700
    102 H2H2        3.5870   26.2970    4.3860 hc        1 PC1      0.038700
    103 H2I1        4.9980   26.9910    6.3230 hc        1 PC1      0.032367
    104 H2I2        5.7960   25.6480    5.4050 hc        1 PC1      0.032367
    105 H2I3        4.9680   25.3010    6.9760 hc        1 PC1      0.032367
    106 H31        -7.9660    8.7870   -5.5030 h1        1 PC1      0.075200
    107 H32        -9.6330    8.8620   -6.2750 h1        1 PC1      0.075200
    108 H321      -11.5050    6.9110   -2.9320 hc        1 PC1      0.081200
    109 H322      -10.2740    7.8800   -2.0170 hc        1 PC1      0.081200
    110 H331       -9.8600    4.9620   -2.9990 hc        1 PC1      0.054200
    111 H332       -8.7140    5.9250   -1.9880 hc        1 PC1      0.054200
    112 H341      -11.6070    5.1410   -1.1920 hc        1 PC1      0.042700
    113 H342      -10.4740    6.1260   -0.1880 hc        1 PC1      0.042700
    114 H351       -9.9570    3.2360   -1.1810 hc        1 PC1      0.041200
    115 H352       -8.8290    4.2200   -0.1720 hc        1 PC1      0.041200
    116 H361      -10.5910    4.4040    1.6190 hc        1 PC1      0.040700
    117 H362      -11.7180    3.4180    0.6110 hc        1 PC1      0.040700
    118 H371       -8.9420    2.5000    1.6360 hc        1 PC1      0.039700
    119 H372      -10.0690    1.5140    0.6280 hc        1 PC1      0.039700
    120 H381      -10.7040    2.6820    3.4270 hc        1 PC1      0.040200
    121 H382      -11.8310    1.6960    2.4190 hc        1 PC1      0.040200
    122 H391       -9.0540    0.7790    3.4450 hc        1 PC1      0.039200
    123 H392      -10.1810   -0.2070    2.4360 hc        1 PC1      0.039200
    124 H3A1      -10.8160    0.9610    5.2350 hc        1 PC1      0.039700
    125 H3A2      -11.9430   -0.0250    4.2270 hc        1 PC1      0.039700
    126 H3B1      -10.2930   -1.9290    4.2440 hc        1 PC1      0.039200
    127 H3B2       -9.1670   -0.9430    5.2530 hc        1 PC1      0.039200
    128 H3C1      -12.0560   -1.7460    6.0350 hc        1 PC1      0.039700
    129 H3C2      -10.9290   -0.7600    7.0430 hc        1 PC1      0.039700
    130 H3D1      -10.4060   -3.6500    6.0530 hc        1 PC1      0.039200
    131 H3D2       -9.2800   -2.6640    7.0610 hc        1 PC1      0.039200
    132 H3E1      -11.0420   -2.4820    8.8520 hc        1 PC1      0.039700
    133 H3E2      -12.1680   -3.4680    7.8430 hc        1 PC1      0.039700
    134 H3F1      -10.5190   -5.3710    7.8610 hc        1 PC1      0.039200
    135 H3F2       -9.3920   -4.3850    8.8700 hc        1 PC1      0.039200
    136 H3G1      -11.1550   -4.2040   10.6600 hc        1 PC1      0.039700
    137 H3G2      -12.2810   -5.1890    9.6520 hc        1 PC1      0.039700
    138 H3H1       -9.5050   -6.1050   10.6770 hc        1 PC1      0.038200
    139 H3H2      -10.6320   -7.0910    9.6680 hc        1 PC1      0.038200
    140 H3I1      -10.8410   -7.6730   12.0850 hc        1 PC1      0.032700
    141 H3I2      -12.3820   -6.9420   11.4730 hc        1 PC1      0.032700
    142 H3I3      -11.2520   -5.9540   12.4850 hc        1 PC1      0.032700
@<TRIPOS>BOND
     1    1    2 1   
     2    2    3 1   
     3    2    4 1   
     4    2   11 1   
     5    4    5 1   
     6    5    6 1   
     7    5   55 1   
     8    5   56 1   
     9    6    7 1   
    10    6   57 1   
    11    6   58 1   
    12    7    8 1   
    13    7    9 1   
    14    7   10 1   
    15    8   59 1   
    16    8   60 1   
    17    8   61 1   
    18    9   62 1   
    19    9   63 1   
    20    9   64 1   
    21   10   65 1   
    22   10   66 1   
    23   10   67 1   
    24   11   12 1   
    25   12   13 1   
    26   12   68 1   
    27   12   69 1   
    28   13   14 1   
    29   13   34 1   
    30   13   70 1   
    31   14   15 1   
    32   15   16 2   
    33   15   17 1   
    34   17   18 1   
    35   17   71 1   
    36   17   72 1   
    37   18   19 1   
    38   18   73 1   
    39   18   74 1   
    40   19   20 1   
    41   19   75 1   
    42   19   76 1   
    43   20   21 1   
    44   20   77 1   
    45   20   78 1   
    46   21   22 1   
    47   21   79 1   
    48   21   80 1   
    49   22   23 1   
    50   22   81 1   
    51   22   82 1   
    52   23   24 1   
    53   23   83 1   
    54   23   84 1   
    55   24   25 1   
    56   24   85 1   
    57   24   86 1   
    58   25   26 1   
    59   25   87 1   
    60   25   88 1   
    61   26   27 1   
    62   26   89 1   
    63   26   90 1   
    64   27   28 1   
    65   27   91 1   
    66   27   92 1   
    67   28   29 1   
    68   28   93 1   
    69   28   94 1   
    70   29   30 1   
    71   29   95 1   
    72   29   96 1   
    73   30   31 1   
    74   30   97 1   
    75   30   98 1   
    76   31   32 1   
    77   31   99 1   
    78   31  100 1   
    79   32   33 1   
    80   32  101 1   
    81   32  102 1   
    82   33  103 1   
    83   33  104 1   
    84   33  105 1   
    85   34   35 1   
    86   34  106 1   
    87   34  107 1   
    88   35   36 1   
    89   36   37 2   
    90   36   38 1   
    91   38   39 1   
    92   38  108 1   
    93   38  109 1   
    94   39   40 1   
    95   39  110 1   
    96   39  111 1   
    97   40   41 1   
    98   40  112 1   
    99   40  113 1   
   100   41   42 1   
   101   41  114 1   
   102   41  115 1   
   103   42   43 1   
   104   42  116 1   
   105   42  117 1   
   106   43   44 1   
   107   43  118 1   
   108   43  119 1   
   109   44   45 1   
   110   44  120 1   
   111   44  121 1   
   112   45   46 1   
   113   45  122 1   
   114   45  123 1   
   115   46   47 1   
   116   46  124 1   
   117   46  125 1   
   118   47   48 1   
   119   47  126 1   
   120   47  127 1   
   121   48   49 1   
   122   48  128 1   
   123   48  129 1   
   124   49   50 1   
   125   49  130 1   
   126   49  131 1   
   127   50   51 1   
   128   50  132 1   
   129   50  133 1   
   130   51   52 1   
   131   51  134 1   
   132   51  135 1   
   133   52   53 1   
   134   52  136 1   
   135   52  137 1   
   136   53   54 1   
   137   53  138 1   
   138   53  139 1   
   139   54  140 1   
   140   54  141 1   
   141   54  142 1   
@<TRIPOS>SUBSTRUCTURE
     1 PC1         1 TEMP              0 ****  ****    0 ROOT
