@<TRIPOS>MOLECULE
PC1
  142   141     1     0     0
SMALL
bcc


@<TRIPOS>ATOM
      1 O12         1.0440    0.7110   -1.4100 o         1 PC1     -0.819000
      2 P           2.1870    0.1560   -0.6460 p5        1 PC1      1.446800
      3 O14         2.4770    0.2530    0.7830 o         1 PC1     -0.819000
      4 O13         2.1780   -1.4240   -1.1810 os        1 PC1     -0.558200
      5 C11         0.9890   -1.9390   -1.6550 c3        1 PC1      0.196400
      6 C12         1.0850   -2.2920   -3.1540 c3        1 PC1      0.088800
      7 N           0.8430   -1.1930   -4.1570 n4        1 PC1     -0.580800
      8 C13         1.9950   -0.2440   -4.2000 c3        1 PC1      0.074767
      9 C14         0.7070   -1.8280   -5.5030 c3        1 PC1      0.074767
     10 C15        -0.4100   -0.4440   -3.8530 c3        1 PC1      0.074767
     11 O11         3.5140    0.5540   -1.5340 os        1 PC1     -0.589200
     12 C1          4.3720    1.5310   -1.0340 c3        1 PC1      0.174400
     13 C2          4.3350    2.8080   -1.9020 c3        1 PC1      0.110100
     14 O21         3.5080    3.7690   -1.2240 os        1 PC1     -0.437900
     15 C21         4.0820    4.9060   -0.7260 c         1 PC1      0.642100
     16 O22         5.2910    5.0910   -0.8800 o         1 PC1     -0.549000
     17 C22         3.0770    5.7890   -0.0510 c3        1 PC1     -0.127400
     18 C23         3.6450    6.3740    1.2250 c3        1 PC1     -0.079400
     19 C24         2.6800    7.3680    1.8350 c3        1 PC1     -0.078400
     20 C25         3.2330    7.9430    3.1220 c3        1 PC1     -0.079400
     21 C26         2.2730    8.9400    3.7340 c3        1 PC1     -0.078400
     22 C27         2.8250    9.5130    5.0220 c3        1 PC1     -0.079400
     23 C28         1.8640   10.5090    5.6360 c3        1 PC1     -0.078400
     24 C29         2.4170   11.0820    6.9240 c3        1 PC1     -0.079400
     25 C2A         1.4560   12.0760    7.5400 c3        1 PC1     -0.078400
     26 C2B         2.0080   12.6490    8.8270 c3        1 PC1     -0.079400
     27 C2C         1.0470   13.6420    9.4440 c3        1 PC1     -0.078400
     28 C2D         1.5990   14.2140   10.7320 c3        1 PC1     -0.079400
     29 C2E         0.6380   15.2070   11.3490 c3        1 PC1     -0.078400
     30 C2F         1.1900   15.7780   12.6380 c3        1 PC1     -0.079400
     31 C2G         0.2280   16.7700   13.2560 c3        1 PC1     -0.079400
     32 C2H         0.7790   17.3420   14.5450 c3        1 PC1     -0.080400
     33 C2I        -0.1760   18.3310   15.1640 c3        1 PC1     -0.092100
     34 C3          3.6760    2.5290   -3.2500 c3        1 PC1      0.132400
     35 O31         4.1300    3.5420   -4.1670 os        1 PC1     -0.433900
     36 C31         3.7160    3.4160   -5.4590 c         1 PC1      0.646100
     37 O32         3.0020    2.4510   -5.7590 o         1 PC1     -0.589000
     38 C32         4.2380    4.5030   -6.3460 c3        1 PC1     -0.130400
     39 C33         3.2080    4.9080   -7.3780 c3        1 PC1     -0.077400
     40 C34         3.7900    5.9090   -8.3540 c3        1 PC1     -0.079400
     41 C35         2.7600    6.3310   -9.3800 c3        1 PC1     -0.078400
     42 C36         3.3420    7.3250  -10.3620 c3        1 PC1     -0.079400
     43 C37         2.3140    7.7460  -11.3900 c3        1 PC1     -0.078400
     44 C38         2.8970    8.7360  -12.3760 c3        1 PC1     -0.079400
     45 C39         1.8700    9.1560  -13.4050 c3        1 PC1     -0.078400
     46 C3A         2.4540   10.1440  -14.3930 c3        1 PC1     -0.079400
     47 C3B         1.4270   10.5630  -15.4230 c3        1 PC1     -0.078400
     48 C3C         2.0120   11.5490  -16.4120 c3        1 PC1     -0.079400
     49 C3D         0.9860   11.9660  -17.4430 c3        1 PC1     -0.079400
     50 C3E         1.5710   12.9510  -18.4330 c3        1 PC1     -0.079400
     51 C3F         0.5450   13.3680  -19.4650 c3        1 PC1     -0.079400
     52 C3G         1.1310   14.3520  -20.4550 c3        1 PC1     -0.079400
     53 C3H         0.1060   14.7710  -21.4880 c3        1 PC1     -0.080400
     54 C3I         0.6840   15.7500  -22.4760 c3        1 PC1     -0.092100
     55 H111        0.1230   -1.2520   -1.4490 h1        1 PC1      0.057700
     56 H112        0.8130   -2.9330   -1.1420 h1        1 PC1      0.057700
     57 H121        2.1210   -2.6920   -3.3480 hx        1 PC1      0.080700
     58 H122        0.3220   -3.0920   -3.3660 hx        1 PC1      0.080700
     59 H131        2.0760    0.2670   -3.1920 hx        1 PC1      0.102033
     60 H132        1.8240    0.5320   -4.9930 hx        1 PC1      0.102033
     61 H133        2.9370   -0.8120   -4.4090 hx        1 PC1      0.102033
     62 H141       -0.2050   -2.4790   -5.5220 hx        1 PC1      0.102033
     63 H142        1.6180   -2.4470   -5.7150 hx        1 PC1      0.102033
     64 H143        0.6130   -1.0280   -6.2830 hx        1 PC1      0.102033
     65 H151       -1.2330   -1.1740   -3.6490 hx        1 PC1      0.102033
     66 H152       -0.6720    0.1980   -4.7340 hx        1 PC1      0.102033
     67 H153       -0.2480    0.2240   -2.9500 hx        1 PC1      0.102033
     68 H11         4.1040    1.7790    0.0320 h1        1 PC1      0.060200
     69 H12         5.4200    1.1210   -1.0750 h1        1 PC1      0.060200
     70 H2          5.3740    3.2120   -2.0430 h1        1 PC1      0.096700
     71 H221        2.1450    5.2030    0.1660 hc        1 PC1      0.079200
     72 H222        2.8120    6.6070   -0.7730 hc        1 PC1      0.079200
     73 H231        4.6250    6.8750    1.0040 hc        1 PC1      0.058700
     74 H232        3.8510    5.5490    1.9570 hc        1 PC1      0.058700
     75 H241        2.4820    8.1980    1.1070 hc        1 PC1      0.040700
     76 H242        1.6990    6.8640    2.0390 hc        1 PC1      0.040700
     77 H251        3.4290    7.1120    3.8510 hc        1 PC1      0.043200
     78 H252        4.2170    8.4430    2.9180 hc        1 PC1      0.043200
     79 H261        2.0770    9.7700    3.0060 hc        1 PC1      0.039200
     80 H262        1.2900    8.4390    3.9370 hc        1 PC1      0.039200
     81 H271        3.0220    8.6820    5.7490 hc        1 PC1      0.040700
     82 H272        3.8080   10.0150    4.8190 hc        1 PC1      0.040700
     83 H281        1.6670   11.3400    4.9090 hc        1 PC1      0.039200
     84 H282        0.8810   10.0070    5.8390 hc        1 PC1      0.039200
     85 H291        3.3990   11.5840    6.7210 hc        1 PC1      0.040200
     86 H292        2.6140   10.2510    7.6510 hc        1 PC1      0.040200
     87 H2A1        1.2580   12.9080    6.8130 hc        1 PC1      0.039200
     88 H2A2        0.4730   11.5740    7.7420 hc        1 PC1      0.039200
     89 H2B1        2.2060   11.8170    9.5540 hc        1 PC1      0.039700
     90 H2B2        2.9900   13.1510    8.6250 hc        1 PC1      0.039700
     91 H2C1        0.0650   13.1400    9.6460 hc        1 PC1      0.039200
     92 H2C2        0.8490   14.4740    8.7180 hc        1 PC1      0.039200
     93 H2D1        2.5810   14.7170   10.5300 hc        1 PC1      0.039700
     94 H2D2        1.7980   13.3820   11.4580 hc        1 PC1      0.039700
     95 H2E1        0.4390   16.0390   10.6240 hc        1 PC1      0.039200
     96 H2E2       -0.3440   14.7040   11.5510 hc        1 PC1      0.039200
     97 H2F1        1.3890   14.9460   13.3630 hc        1 PC1      0.039700
     98 H2F2        2.1720   16.2820   12.4360 hc        1 PC1      0.039700
     99 H2G1        0.0290   17.6030   12.5310 hc        1 PC1      0.039200
    100 H2G2       -0.7540   16.2670   13.4580 hc        1 PC1      0.039200
    101 H2H1        1.7620   17.8440   14.3410 hc        1 PC1      0.038700
    102 H2H2        0.9790   16.5080   15.2680 hc        1 PC1      0.038700
    103 H2I1       -1.1530   17.8430   15.3970 hc        1 PC1      0.032367
    104 H2I2       -0.3680   19.1820   14.4670 hc        1 PC1      0.032367
    105 H2I3        0.2490   18.7390   16.1120 hc        1 PC1      0.032367
    106 H31         2.5580    2.5810   -3.1770 h1        1 PC1      0.075200
    107 H32         3.9890    1.5230   -3.6350 h1        1 PC1      0.075200
    108 H321        4.5380    5.3860   -5.7200 hc        1 PC1      0.081700
    109 H322        5.1620    4.1100   -6.8480 hc        1 PC1      0.081700
    110 H331        2.8520    3.9970   -7.9290 hc        1 PC1      0.054200
    111 H332        2.3160    5.3540   -6.8650 hc        1 PC1      0.054200
    112 H341        4.6760    5.4580   -8.8730 hc        1 PC1      0.042700
    113 H342        4.1570    6.8100   -7.7950 hc        1 PC1      0.042700
    114 H351        2.3890    5.4280   -9.9330 hc        1 PC1      0.041200
    115 H352        1.8770    6.7880   -8.8610 hc        1 PC1      0.041200
    116 H361        3.7130    8.2280   -9.8090 hc        1 PC1      0.040700
    117 H362        4.2260    6.8680  -10.8800 hc        1 PC1      0.040700
    118 H371        1.4310    8.2060  -10.8730 hc        1 PC1      0.039700
    119 H372        1.9400    6.8430  -11.9410 hc        1 PC1      0.039700
    120 H381        3.2690    9.6400  -11.8250 hc        1 PC1      0.040200
    121 H382        3.7810    8.2770  -12.8920 hc        1 PC1      0.040200
    122 H391        0.9870    9.6180  -12.8890 hc        1 PC1      0.039200
    123 H392        1.4960    8.2520  -13.9540 hc        1 PC1      0.039200
    124 H3A1        3.3370    9.6830  -14.9080 hc        1 PC1      0.039700
    125 H3A2        2.8260   11.0490  -13.8440 hc        1 PC1      0.039700
    126 H3B1        0.5440   11.0250  -14.9080 hc        1 PC1      0.039200
    127 H3B2        1.0540    9.6580  -15.9710 hc        1 PC1      0.039200
    128 H3C1        2.3850   12.4540  -15.8640 hc        1 PC1      0.039700
    129 H3C2        2.8960   11.0860  -16.9260 hc        1 PC1      0.039700
    130 H3D1        0.6120   11.0610  -17.9900 hc        1 PC1      0.039200
    131 H3D2        0.1030   12.4290  -16.9290 hc        1 PC1      0.039200
    132 H3E1        1.9440   13.8570  -17.8860 hc        1 PC1      0.039700
    133 H3E2        2.4540   12.4880  -18.9470 hc        1 PC1      0.039700
    134 H3F1        0.1710   12.4630  -20.0110 hc        1 PC1      0.039200
    135 H3F2       -0.3380   13.8320  -18.9510 hc        1 PC1      0.039200
    136 H3G1        1.5040   15.2580  -19.9090 hc        1 PC1      0.039700
    137 H3G2        2.0140   13.8890  -20.9690 hc        1 PC1      0.039700
    138 H3H1       -0.7770   15.2330  -20.9710 hc        1 PC1      0.038200
    139 H3H2       -0.2690   13.8630  -22.0310 hc        1 PC1      0.038200
    140 H3I1        1.5500   15.2990  -23.0180 hc        1 PC1      0.032700
    141 H3I2        1.0400   16.6720  -21.9550 hc        1 PC1      0.032700
    142 H3I3       -0.0870   16.0450  -23.2270 hc        1 PC1      0.032700
@<TRIPOS>BOND
     1    1    2 1   
     2    2    3 1   
     3    2    4 1   
     4    2   11 1   
     5    4    5 1   
     6    5    6 1   
     7    5   55 1   
     8    5   56 1   
     9    6    7 1   
    10    6   57 1   
    11    6   58 1   
    12    7    8 1   
    13    7    9 1   
    14    7   10 1   
    15    8   59 1   
    16    8   60 1   
    17    8   61 1   
    18    9   62 1   
    19    9   63 1   
    20    9   64 1   
    21   10   65 1   
    22   10   66 1   
    23   10   67 1   
    24   11   12 1   
    25   12   13 1   
    26   12   68 1   
    27   12   69 1   
    28   13   14 1   
    29   13   34 1   
    30   13   70 1   
    31   14   15 1   
    32   15   16 2   
    33   15   17 1   
    34   17   18 1   
    35   17   71 1   
    36   17   72 1   
    37   18   19 1   
    38   18   73 1   
    39   18   74 1   
    40   19   20 1   
    41   19   75 1   
    42   19   76 1   
    43   20   21 1   
    44   20   77 1   
    45   20   78 1   
    46   21   22 1   
    47   21   79 1   
    48   21   80 1   
    49   22   23 1   
    50   22   81 1   
    51   22   82 1   
    52   23   24 1   
    53   23   83 1   
    54   23   84 1   
    55   24   25 1   
    56   24   85 1   
    57   24   86 1   
    58   25   26 1   
    59   25   87 1   
    60   25   88 1   
    61   26   27 1   
    62   26   89 1   
    63   26   90 1   
    64   27   28 1   
    65   27   91 1   
    66   27   92 1   
    67   28   29 1   
    68   28   93 1   
    69   28   94 1   
    70   29   30 1   
    71   29   95 1   
    72   29   96 1   
    73   30   31 1   
    74   30   97 1   
    75   30   98 1   
    76   31   32 1   
    77   31   99 1   
    78   31  100 1   
    79   32   33 1   
    80   32  101 1   
    81   32  102 1   
    82   33  103 1   
    83   33  104 1   
    84   33  105 1   
    85   34   35 1   
    86   34  106 1   
    87   34  107 1   
    88   35   36 1   
    89   36   37 2   
    90   36   38 1   
    91   38   39 1   
    92   38  108 1   
    93   38  109 1   
    94   39   40 1   
    95   39  110 1   
    96   39  111 1   
    97   40   41 1   
    98   40  112 1   
    99   40  113 1   
   100   41   42 1   
   101   41  114 1   
   102   41  115 1   
   103   42   43 1   
   104   42  116 1   
   105   42  117 1   
   106   43   44 1   
   107   43  118 1   
   108   43  119 1   
   109   44   45 1   
   110   44  120 1   
   111   44  121 1   
   112   45   46 1   
   113   45  122 1   
   114   45  123 1   
   115   46   47 1   
   116   46  124 1   
   117   46  125 1   
   118   47   48 1   
   119   47  126 1   
   120   47  127 1   
   121   48   49 1   
   122   48  128 1   
   123   48  129 1   
   124   49   50 1   
   125   49  130 1   
   126   49  131 1   
   127   50   51 1   
   128   50  132 1   
   129   50  133 1   
   130   51   52 1   
   131   51  134 1   
   132   51  135 1   
   133   52   53 1   
   134   52  136 1   
   135   52  137 1   
   136   53   54 1   
   137   53  138 1   
   138   53  139 1   
   139   54  140 1   
   140   54  141 1   
   141   54  142 1   
@<TRIPOS>SUBSTRUCTURE
     1 PC1         1 TEMP              0 ****  ****    0 ROOT
