@<TRIPOS>MOLECULE
PC2
  142   139     1     0     0
SMALL
bcc


@<TRIPOS>ATOM
      1 C1          1.0410   -0.4120    0.9770 c3        1 PC2      0.023000
      2 C2          2.4740   -0.7550    0.5780 c3        1 PC2     -0.002000
      3 C3          3.3030   -1.0040    1.8240 c3        1 PC2     -0.041000
      4 C4         -2.9240    2.2170   -1.1860 c3        1 PC2      0.049000
      5 C5         -3.3250    2.5800   -2.6120 c3        1 PC2     -0.146000
      6 C6         -4.0500    4.7480   -1.9350 c3        1 PC2     -0.197000
      7 C7         -5.5070    2.8840   -1.8600 c3        1 PC2     -0.197000
      8 C8         -4.8680    3.7350   -3.9230 c3        1 PC2     -0.197000
      9 C11         4.1010    0.0440    3.8600 c1        1 PC2      0.320000
     10 C12         4.5210    1.2890    4.6560 c2        1 PC2     -0.150000
     11 C13         4.3000    1.0360    6.1800 c3        1 PC2     -0.170000
     12 C14         4.5700    2.3230    6.9520 c3        1 PC2     -0.152500
     13 C15         4.0270    2.1810    8.4150 c3        1 PC2     -0.158000
     14 C16         3.9610    3.6010    9.0900 c3        1 PC2     -0.157500
     15 C17         2.9880    3.5620   10.2840 c3        1 PC2     -0.157500
     16 C18         2.7060    5.0460   10.7850 c3        1 PC2     -0.158000
     17 C19         1.4200    5.0620   11.6630 c3        1 PC2     -0.157500
     18 C20         0.8580    6.5170   11.7430 c3        1 PC2     -0.157000
     19 C21        -0.5380    6.4920   12.4180 c3        1 PC2     -0.157000
     20 C22        -1.4130    7.6000   11.8300 c3        1 PC2     -0.158000
     21 C23        -2.7290    7.6920   12.6260 c3        1 PC2     -0.157500
     22 C24        -3.8760    8.1270   11.6780 c3        1 PC2     -0.157500
     23 C25        -4.9560    8.8380   12.4760 c3        1 PC2     -0.157500
     24 C26        -6.2040    9.0580   11.5750 c3        1 PC2     -0.158000
     25 C27        -7.1720   10.0270   12.2690 c3        1 PC2     -0.159000
     26 C28        -8.3660   10.2810   11.3700 c3        1 PC2     -0.210500
     27 C31         3.2280   -1.7870   -1.4620 c1        1 PC2      0.302000
     28 C32         3.4580   -3.0270   -2.3690 c2        1 PC2     -0.150000
     29 C33         3.8900   -2.5700   -3.7580 c3        1 PC2     -0.170000
     30 C34         3.2260   -3.4740   -4.8320 c3        1 PC2     -0.152500
     31 C35         4.1600   -3.5780   -6.0640 c3        1 PC2     -0.158000
     32 C36         3.3140   -3.7890   -7.3380 c3        1 PC2     -0.157500
     33 C37         4.1630   -4.5830   -8.4110 c3        1 PC2     -0.157500
     34 C38         3.2400   -5.5860   -9.1670 c3        1 PC2     -0.158000
     35 C39         3.6810   -5.6710  -10.6690 c3        1 PC2     -0.157500
     36 C40         3.4860   -7.1030  -11.1810 c3        1 PC2     -0.157000
     37 C41         2.5020   -7.0930  -12.3570 c3        1 PC2     -0.157000
     38 C42         2.1160   -8.5230  -12.7180 c3        1 PC2     -0.158000
     39 C43         0.7050   -8.5300  -13.3570 c3        1 PC2     -0.157500
     40 C44         0.0490   -9.9000  -13.1390 c3        1 PC2     -0.157500
     41 C45        -1.4970   -9.8200  -13.5090 c3        1 PC2     -0.157500
     42 C46        -2.2370  -11.0460  -12.8980 c3        1 PC2     -0.158000
     43 C47        -3.7610  -10.8360  -12.9970 c3        1 PC2     -0.159000
     44 C48        -4.4620  -11.7570  -12.0120 c3        1 PC2     -0.210500
     45 N          -4.4440    3.4750   -2.5860 n4        1 PC2      0.051000
     46 O2          2.4740   -1.9220   -0.2310 os        1 PC2     -0.275000
     47 O3          3.3690    0.1940    2.6020 os        1 PC2     -0.274000
     48 O11         4.3290   -1.0590    4.2990 o         1 PC2     -0.365000
     49 O31         3.5870   -0.6900   -1.8340 o         1 PC2     -0.354000
     50 O1P        -1.3120    1.5030    1.3590 o         1 PC2     -0.824000
     51 O2P        -2.0100   -0.5270    0.1340 o         1 PC2     -0.824000
     52 O3P         0.4040    0.2980   -0.0930 os        1 PC2     -0.741000
     53 O4P        -1.6050    1.6490   -1.1910 os        1 PC2     -0.732000
     54 P          -1.1460    0.7220    0.0800 p5        1 PC2      1.917000
     55 H12         0.5390   -1.2520    1.1630 h1        1 PC2      0.103000
     56 H11         1.0500    0.1500    1.7820 h1        1 PC2      0.103000
     57 H2          2.8570   -0.0140    0.0780 h1        1 PC2      0.135000
     58 H32         4.1950   -1.2710    1.5680 h1        1 PC2      0.112000
     59 H31         2.8950   -1.7040    2.3460 h1        1 PC2      0.112000
     60 H42        -3.5610    1.5610   -0.8230 h1        1 PC2      0.094500
     61 H41        -2.9300    3.0240   -0.6280 h1        1 PC2      0.094500
     62 H52        -2.5680    3.0170   -3.0640 hx        1 PC2      0.119500
     63 H51        -3.5720    1.7590   -3.1030 hx        1 PC2      0.119500
     64 H63        -3.1250    4.9870   -2.2060 hx        1 PC2      0.139333
     65 H62        -4.6690    5.4630   -2.2130 hx        1 PC2      0.139333
     66 H61        -4.0890    4.6410   -0.9560 hx        1 PC2      0.139333
     67 H73        -6.3080    3.4360   -1.9490 hx        1 PC2      0.139333
     68 H72        -5.2620    2.8190   -0.9220 hx        1 PC2      0.139333
     69 H71        -5.6890    1.9770   -2.2180 hx        1 PC2      0.139333
     70 H83        -5.5720    4.4020   -3.9150 hx        1 PC2      0.139333
     71 H82        -4.1100    4.0660   -4.4470 hx        1 PC2      0.139333
     72 H81        -5.2100    2.8990   -4.3300 hx        1 PC2      0.139333
     73 H122        3.9780    2.0590    4.3700 ha        1 PC2      0.111250
     74 H121        5.4810    1.4800    4.4870 ha        1 PC2      0.111250
     75 H132        4.9150    0.3340    6.4870 hc        1 PC2      0.112000
     76 H131        3.3800    0.7520    6.3330 hc        1 PC2      0.112000
     77 H142        5.5360    2.4920    6.9770 hc        1 PC2      0.075000
     78 H141        4.1230    3.0640    6.5130 hc        1 PC2      0.075000
     79 H152        3.1290    1.7860    8.3940 hc        1 PC2      0.083500
     80 H151        4.6290    1.6010    8.9320 hc        1 PC2      0.083500
     81 H162        4.8460    3.8520    9.4020 hc        1 PC2      0.077250
     82 H161        3.6500    4.2510    8.4440 hc        1 PC2      0.077250
     83 H172        2.1500    3.1470   10.0080 hc        1 PC2      0.078750
     84 H171        3.3870    3.0400   11.0140 hc        1 PC2      0.078750
     85 H182        2.5810    5.6340   10.0110 hc        1 PC2      0.078500
     86 H181        3.4690    5.3620   11.3170 hc        1 PC2      0.078500
     87 H192        1.6360    4.7460   12.5640 hc        1 PC2      0.078500
     88 H191        0.7500    4.4770   11.2660 hc        1 PC2      0.078500
     89 H202        1.4690    7.0770   12.2750 hc        1 PC2      0.078500
     90 H201        0.7790    6.8850   10.8450 hc        1 PC2      0.078500
     91 H212       -0.9560    5.6340   12.2600 hc        1 PC2      0.078000
     92 H211       -0.4380    6.6330   13.3860 hc        1 PC2      0.078000
     93 H222       -0.9380    8.4550   11.8830 hc        1 PC2      0.079250
     94 H221       -1.6090    7.3980   10.9040 hc        1 PC2      0.079250
     95 H232       -2.9380    6.8160   13.0120 hc        1 PC2      0.078000
     96 H231       -2.6290    8.3580   13.3550 hc        1 PC2      0.078000
     97 H242       -3.5220    8.7350   10.9950 hc        1 PC2      0.078750
     98 H241       -4.2560    7.3410   11.2470 hc        1 PC2      0.078750
     99 H252       -5.2020    8.2940   13.2450 hc        1 PC2      0.078250
    100 H251       -4.6190    9.7010   12.7830 hc        1 PC2      0.078250
    101 H262       -5.9220    9.4370   10.7110 hc        1 PC2      0.078750
    102 H261       -6.6550    8.1940   11.4230 hc        1 PC2      0.078750
    103 H272       -6.7150   10.8710   12.4480 hc        1 PC2      0.077250
    104 H271       -7.4750    9.6380   13.1070 hc        1 PC2      0.077250
    105 H283       -8.0560   10.4830   10.4670 hc        1 PC2      0.071667
    106 H282       -8.9330    9.4870   11.3500 hc        1 PC2      0.071667
    107 H281       -8.8870   11.0530   11.7230 hc        1 PC2      0.071667
    108 H322        2.6290   -3.5390   -2.4380 ha        1 PC2      0.111250
    109 H321        4.1550   -3.5890   -1.9820 ha        1 PC2      0.111250
    110 H332        3.6140   -1.6470   -3.8960 hc        1 PC2      0.112000
    111 H331        4.8620   -2.6340   -3.8350 hc        1 PC2      0.112000
    112 H342        3.0780   -4.3620   -4.4610 hc        1 PC2      0.075000
    113 H341        2.3710   -3.0870   -5.1010 hc        1 PC2      0.075000
    114 H352        4.6780   -2.7500   -6.1500 hc        1 PC2      0.083500
    115 H351        4.7670   -4.3310   -5.9480 hc        1 PC2      0.083500
    116 H362        3.0530   -2.9090   -7.7100 hc        1 PC2      0.077250
    117 H361        2.5150   -4.2970   -7.1170 hc        1 PC2      0.077250
    118 H372        4.5520   -3.9520   -9.0500 hc        1 PC2      0.078750
    119 H371        4.8780   -5.0730   -7.9630 hc        1 PC2      0.078750
    120 H382        3.3120   -6.4620   -8.7590 hc        1 PC2      0.078500
    121 H381        2.3120   -5.2770   -9.1160 hc        1 PC2      0.078500
    122 H392        3.1310   -5.0530  -11.2080 hc        1 PC2      0.078500
    123 H391        4.6170   -5.4240  -10.7460 hc        1 PC2      0.078500
    124 H402        3.1330   -7.6580  -10.4650 hc        1 PC2      0.078500
    125 H401        4.3430   -7.4610  -11.4770 hc        1 PC2      0.078500
    126 H412        1.6960   -6.5920  -12.1040 hc        1 PC2      0.078000
    127 H411        2.9220   -6.6660  -13.1280 hc        1 PC2      0.078000
    128 H422        2.1110   -9.0760  -11.9070 hc        1 PC2      0.079250
    129 H421        2.7640   -8.8850  -13.3550 hc        1 PC2      0.079250
    130 H432        0.1590   -7.8390  -12.9430 hc        1 PC2      0.078000
    131 H431        0.7810   -8.3540  -14.3150 hc        1 PC2      0.078000
    132 H442        0.1460  -10.1630  -12.1930 hc        1 PC2      0.078750
    133 H441        0.4900  -10.5680  -13.7120 hc        1 PC2      0.078750
    134 H452       -1.8800   -8.9900  -13.1440 hc        1 PC2      0.078250
    135 H451       -1.6010   -9.8270  -14.4900 hc        1 PC2      0.078250
    136 H462       -1.9860  -11.8560  -13.3890 hc        1 PC2      0.078750
    137 H461       -1.9810  -11.1440  -11.9550 hc        1 PC2      0.078750
    138 H472       -4.0590  -11.0420  -13.9030 hc        1 PC2      0.077250
    139 H471       -3.9780   -9.9060  -12.7850 hc        1 PC2      0.077250
    140 H483       -5.4020  -11.4830  -11.9200 hc        1 PC2      0.071667
    141 H482       -4.4220  -12.6740  -12.3400 hc        1 PC2      0.071667
    142 H481       -4.0190  -11.7020  -11.1420 hc        1 PC2      0.071667
@<TRIPOS>BOND
     1    1    2 1   
     2    1   52 1   
     3    1   55 1   
     4    1   56 1   
     5    2    3 1   
     6    2   46 1   
     7    2   57 1   
     8    3   47 1   
     9    3   58 1   
    10    3   59 1   
    11    4    5 1   
    12    4   53 1   
    13    4   60 1   
    14    4   61 1   
    15    5   45 1   
    16    5   62 1   
    17    5   63 1   
    18    6   45 1   
    19    6   64 1   
    20    6   65 1   
    21    6   66 1   
    22    7   45 1   
    23    7   67 1   
    24    7   68 1   
    25    7   69 1   
    26    8   45 1   
    27    8   70 1   
    28    8   71 1   
    29    8   72 1   
    30    9   47 1   
    31    9   48 1   
    32   10   11 1   
    33   10   73 1   
    34   10   74 1   
    35   11   12 1   
    36   11   75 1   
    37   11   76 1   
    38   12   13 1   
    39   12   77 1   
    40   12   78 1   
    41   13   14 1   
    42   13   79 1   
    43   13   80 1   
    44   14   15 1   
    45   14   81 1   
    46   14   82 1   
    47   15   16 1   
    48   15   83 1   
    49   15   84 1   
    50   16   17 1   
    51   16   85 1   
    52   16   86 1   
    53   17   18 1   
    54   17   87 1   
    55   17   88 1   
    56   18   19 1   
    57   18   89 1   
    58   18   90 1   
    59   19   20 1   
    60   19   91 1   
    61   19   92 1   
    62   20   21 1   
    63   20   93 1   
    64   20   94 1   
    65   21   22 1   
    66   21   95 1   
    67   21   96 1   
    68   22   23 1   
    69   22   97 1   
    70   22   98 1   
    71   23   24 1   
    72   23   99 1   
    73   23  100 1   
    74   24   25 1   
    75   24  101 1   
    76   24  102 1   
    77   25   26 1   
    78   25  103 1   
    79   25  104 1   
    80   26  105 1   
    81   26  106 1   
    82   26  107 1   
    83   27   46 1   
    84   27   49 1   
    85   28   29 1   
    86   28  108 1   
    87   28  109 1   
    88   29   30 1   
    89   29  110 1   
    90   29  111 1   
    91   30   31 1   
    92   30  112 1   
    93   30  113 1   
    94   31   32 1   
    95   31  114 1   
    96   31  115 1   
    97   32   33 1   
    98   32  116 1   
    99   32  117 1   
   100   33   34 1   
   101   33  118 1   
   102   33  119 1   
   103   34   35 1   
   104   34  120 1   
   105   34  121 1   
   106   35   36 1   
   107   35  122 1   
   108   35  123 1   
   109   36   37 1   
   110   36  124 1   
   111   36  125 1   
   112   37   38 1   
   113   37  126 1   
   114   37  127 1   
   115   38   39 1   
   116   38  128 1   
   117   38  129 1   
   118   39   40 1   
   119   39  130 1   
   120   39  131 1   
   121   40   41 1   
   122   40  132 1   
   123   40  133 1   
   124   41   42 1   
   125   41  134 1   
   126   41  135 1   
   127   42   43 1   
   128   42  136 1   
   129   42  137 1   
   130   43   44 1   
   131   43  138 1   
   132   43  139 1   
   133   44  140 1   
   134   44  141 1   
   135   44  142 1   
   136   50   54 1   
   137   51   54 1   
   138   52   54 1   
   139   53   54 1   
@<TRIPOS>SUBSTRUCTURE
     1 PC2         1 TEMP              0 ****  ****    0 ROOT
