@<TRIPOS>MOLECULE
PC2
  142   141     1     0     0
SMALL
bcc


@<TRIPOS>ATOM
      1 C1         -0.1850   -0.0720    1.1530 c3        1 PC2      0.166400
      2 C2          1.0590    0.5430    0.5010 c3        1 PC2      0.121100
      3 C3          2.1300    0.9450    1.5210 c3        1 PC2      0.128400
      4 C4         -0.7120   -4.0880    2.8920 c3        1 PC2      0.219400
      5 C5          0.2470   -5.1090    2.2230 c3        1 PC2      0.081800
      6 C6         -1.3560   -6.0480    0.5690 c3        1 PC2      0.091100
      7 C7          0.6970   -7.2210    1.1150 c3        1 PC2      0.091100
      8 C8         -1.0910   -7.0950    2.7530 c3        1 PC2      0.091100
      9 C11         2.0300   -0.1630    3.6540 c         1 PC2      0.641100
     10 C12         2.1130   -1.5240    4.2700 c3        1 PC2     -0.140400
     11 C13         2.0320   -1.4590    5.7790 c3        1 PC2     -0.079400
     12 C14         1.9350   -2.8500    6.3690 c3        1 PC2     -0.074400
     13 C15         1.8460   -2.7970    7.8790 c3        1 PC2     -0.081400
     14 C16         1.7540   -4.1860    8.4740 c3        1 PC2     -0.076400
     15 C17         1.6660   -4.1320    9.9840 c3        1 PC2     -0.080400
     16 C18         1.5750   -5.5200   10.5800 c3        1 PC2     -0.077400
     17 C19         1.4890   -5.4650   12.0900 c3        1 PC2     -0.079400
     18 C20         1.3990   -6.8530   12.6870 c3        1 PC2     -0.078400
     19 C21         1.3130   -6.7970   14.1970 c3        1 PC2     -0.079400
     20 C22         1.2240   -8.1850   14.7940 c3        1 PC2     -0.078400
     21 C23         1.1390   -8.1290   16.3040 c3        1 PC2     -0.079400
     22 C24         1.0500   -9.5170   16.9020 c3        1 PC2     -0.078400
     23 C25         0.9670   -9.4610   18.4120 c3        1 PC2     -0.079400
     24 C26         0.8770  -10.8490   19.0100 c3        1 PC2     -0.079400
     25 C27         0.7940  -10.7940   20.5200 c3        1 PC2     -0.080400
     26 C28         0.7050  -12.1730   21.1200 c3        1 PC2     -0.092100
     27 C32         1.7570   -1.6610   -2.3930 c3        1 PC2     -0.127400
     28 C33         2.0540   -1.3680   -3.8480 c3        1 PC2     -0.080400
     29 C34         2.3930   -2.6390   -4.5960 c3        1 PC2     -0.077400
     30 C35         2.7120   -2.3480   -6.0470 c3        1 PC2     -0.080400
     31 C36         3.0470   -3.6180   -6.8010 c3        1 PC2     -0.078400
     32 C37         3.3680   -3.3260   -8.2510 c3        1 PC2     -0.079400
     33 C38         3.7040   -4.5950   -9.0060 c3        1 PC2     -0.078400
     34 C39         4.0250   -4.3030  -10.4560 c3        1 PC2     -0.079400
     35 C40         4.3610   -5.5710  -11.2100 c3        1 PC2     -0.078400
     36 C41         4.6830   -5.2790  -12.6610 c3        1 PC2     -0.079400
     37 C42         5.0190   -6.5470  -13.4150 c3        1 PC2     -0.078400
     38 C43         5.3400   -6.2550  -14.8650 c3        1 PC2     -0.079400
     39 C44         5.6770   -7.5230  -15.6200 c3        1 PC2     -0.078400
     40 C45         5.9990   -7.2300  -17.0700 c3        1 PC2     -0.079400
     41 C46         6.3350   -8.4980  -17.8250 c3        1 PC2     -0.079400
     42 C47         6.6580   -8.2070  -19.2760 c3        1 PC2     -0.080400
     43 C48         6.9930   -9.4660  -20.0320 c3        1 PC2     -0.092100
     44 N          -0.3890   -6.3570    1.6680 n4        1 PC2     -0.591800
     45 O2          1.6810   -0.4120   -0.3720 os        1 PC2     -0.415900
     46 O3          2.4710   -0.1640    2.3550 os        1 PC2     -0.434900
     47 O11         1.6360    0.8950    4.1480 o         1 PC2     -0.543000
     48 O31         0.6160    0.5030   -2.1270 o         1 PC2     -0.549000
     49 O1P        -2.5030   -1.3780    2.0860 o         1 PC2     -0.825500
     50 O2P        -1.8490   -3.4250    0.5430 o         1 PC2     -0.825500
     51 O3P        -0.5290   -1.2550    0.4830 os        1 PC2     -0.556200
     52 O4P        -0.4410   -2.8230    2.4210 os        1 PC2     -0.560200
     53 P          -1.5630   -2.1960    1.3180 p5        1 PC2      1.437800
     54 H12        -1.0510    0.6410    1.0910 h1        1 PC2      0.045200
     55 H11         0.0110   -0.3110    2.2360 h1        1 PC2      0.045200
     56 H2          0.7680    1.4590   -0.0860 h1        1 PC2      0.081700
     57 H32         1.7630    1.8160    2.1230 h1        1 PC2      0.075200
     58 H31         3.0870    1.2000    0.9920 h1        1 PC2      0.075200
     59 H42        -1.7900   -4.3580    2.7120 h1        1 PC2      0.036700
     60 H41        -0.4980   -4.1090    4.0000 h1        1 PC2      0.036700
     61 H52         1.0090   -5.4450    2.9790 hx        1 PC2      0.090700
     62 H51         0.7790   -4.5980    1.3700 hx        1 PC2      0.090700
     63 H63        -2.2720   -5.5440    0.9870 hx        1 PC2      0.097144
     64 H62        -0.8930   -5.3160   -0.1510 hx        1 PC2      0.097144
     65 H61        -1.6350   -7.0030    0.0550 hx        1 PC2      0.097144
     66 H73         0.2550   -8.1780    0.7330 hx        1 PC2      0.097144
     67 H72         1.2000   -6.6770    0.2730 hx        1 PC2      0.097144
     68 H71         1.4460   -7.4470    1.9180 hx        1 PC2      0.097144
     69 H83        -1.8930   -6.4400    3.1890 hx        1 PC2      0.097144
     70 H82        -1.5580   -8.0230    2.3320 hx        1 PC2      0.097144
     71 H81        -0.3570   -7.3700    3.5550 hx        1 PC2      0.097144
     72 H122        3.0630   -2.0210    3.9420 hc        1 PC2      0.089200
     73 H121        1.2500   -2.1170    3.8490 hc        1 PC2      0.089200
     74 H132        1.1370   -0.8520    6.0780 hc        1 PC2      0.059700
     75 H131        2.9360   -0.9340    6.1850 hc        1 PC2      0.059700
     76 H142        2.8320   -3.4520    6.0650 hc        1 PC2      0.031700
     77 H141        1.0300   -3.3700    5.9560 hc        1 PC2      0.031700
     78 H152        0.9470   -2.1970    8.1810 hc        1 PC2      0.046200
     79 H151        2.7480   -2.2710    8.2900 hc        1 PC2      0.046200
     80 H162        0.8510   -4.7110    8.0640 hc        1 PC2      0.033200
     81 H161        2.6520   -4.7860    8.1710 hc        1 PC2      0.033200
     82 H172        0.7670   -3.5330   10.2870 hc        1 PC2      0.043200
     83 H171        2.5680   -3.6050   10.3940 hc        1 PC2      0.043200
     84 H182        0.6730   -6.0470   10.1710 hc        1 PC2      0.036200
     85 H181        2.4740   -6.1190   10.2770 hc        1 PC2      0.036200
     86 H192        0.5900   -4.8660   12.3930 hc        1 PC2      0.041700
     87 H191        2.3910   -4.9370   12.4990 hc        1 PC2      0.041700
     88 H202        2.2980   -7.4520   12.3830 hc        1 PC2      0.037700
     89 H201        0.4970   -7.3800   12.2780 hc        1 PC2      0.037700
     90 H212        0.4150   -6.1990   14.5010 hc        1 PC2      0.040700
     91 H211        2.2150   -6.2690   14.6050 hc        1 PC2      0.040700
     92 H222        2.1230   -8.7840   14.4900 hc        1 PC2      0.038700
     93 H221        0.3220   -8.7130   14.3860 hc        1 PC2      0.038700
     94 H232        0.2410   -7.5300   16.6090 hc        1 PC2      0.040200
     95 H231        2.0420   -7.6010   16.7120 hc        1 PC2      0.040200
     96 H242        1.9490  -10.1160   16.5970 hc        1 PC2      0.038700
     97 H241        0.1480  -10.0450   16.4940 hc        1 PC2      0.038700
     98 H252        0.0680   -8.8620   18.7170 hc        1 PC2      0.039700
     99 H251        1.8690   -8.9330   18.8200 hc        1 PC2      0.039700
    100 H262       -0.0250  -11.3770   18.6030 hc        1 PC2      0.038700
    101 H261        1.7760  -11.4480   18.7050 hc        1 PC2      0.038700
    102 H272        1.6970  -10.2640   20.9250 hc        1 PC2      0.038700
    103 H271       -0.1040  -10.1930   20.8230 hc        1 PC2      0.038700
    104 H283       -0.2020  -12.7080   20.7470 hc        1 PC2      0.032700
    105 H282        0.6440  -12.1100   22.2330 hc        1 PC2      0.032700
    106 H281        1.6030  -12.7800   20.8500 hc        1 PC2      0.032700
    107 H322        2.6660   -2.0660   -1.8760 hc        1 PC2      0.075700
    108 H321        0.9400   -2.4280   -2.3040 hc        1 PC2      0.075700
    109 H332        2.9100   -0.6460   -3.9190 hc        1 PC2      0.057700
    110 H331        1.1630   -0.8710   -4.3170 hc        1 PC2      0.057700
    111 H342        3.2720   -3.1400   -4.1110 hc        1 PC2      0.036200
    112 H341        1.5300   -3.3530   -4.5370 hc        1 PC2      0.036200
    113 H352        3.5760   -1.6350   -6.1070 hc        1 PC2      0.043700
    114 H351        1.8340   -1.8440   -6.5310 hc        1 PC2      0.043700
    115 H362        2.1820   -4.3290   -6.7430 hc        1 PC2      0.036700
    116 H361        3.9240   -4.1230   -6.3160 hc        1 PC2      0.036700
    117 H372        4.2330   -2.6140   -8.3090 hc        1 PC2      0.041200
    118 H371        2.4910   -2.8210   -8.7360 hc        1 PC2      0.041200
    119 H382        2.8390   -5.3070   -8.9480 hc        1 PC2      0.038200
    120 H381        4.5800   -5.1000   -8.5210 hc        1 PC2      0.038200
    121 H392        3.1480   -3.7980  -10.9410 hc        1 PC2      0.040700
    122 H391        4.8900   -3.5910  -10.5130 hc        1 PC2      0.040700
    123 H402        5.2380   -6.0770  -10.7260 hc        1 PC2      0.038700
    124 H401        3.4960   -6.2840  -11.1530 hc        1 PC2      0.038700
    125 H412        3.8060   -4.7740  -13.1460 hc        1 PC2      0.040200
    126 H411        5.5470   -4.5670  -12.7180 hc        1 PC2      0.040200
    127 H422        4.1540   -7.2600  -13.3580 hc        1 PC2      0.038700
    128 H421        5.8950   -7.0530  -12.9300 hc        1 PC2      0.038700
    129 H432        4.4640   -5.7500  -15.3500 hc        1 PC2      0.039700
    130 H431        6.2050   -5.5420  -14.9220 hc        1 PC2      0.039700
    131 H442        4.8120   -8.2350  -15.5630 hc        1 PC2      0.038700
    132 H441        6.5530   -8.0280  -15.1350 hc        1 PC2      0.038700
    133 H452        6.8640   -6.5180  -17.1270 hc        1 PC2      0.039700
    134 H451        5.1220   -6.7250  -17.5550 hc        1 PC2      0.039700
    135 H462        5.4710   -9.2100  -17.7690 hc        1 PC2      0.038700
    136 H461        7.2120   -9.0030  -17.3400 hc        1 PC2      0.038700
    137 H472        5.7810   -7.7000  -19.7580 hc        1 PC2      0.038700
    138 H471        7.5220   -7.4930  -19.3300 hc        1 PC2      0.038700
    139 H483        7.8800   -9.9730  -19.5800 hc        1 PC2      0.032700
    140 H482        6.1350  -10.1800  -20.0090 hc        1 PC2      0.032700
    141 H481        7.2270   -9.2290  -21.0970 hc        1 PC2      0.032700
    142 C31         1.2750   -0.4360   -1.6780 c         1 PC2      0.654100
@<TRIPOS>BOND
     1    1    2 1   
     2    1   51 1   
     3    1   54 1   
     4    1   55 1   
     5    2    3 1   
     6    2   45 1   
     7    2   56 1   
     8    3   46 1   
     9    3   57 1   
    10    3   58 1   
    11    4    5 1   
    12    4   52 1   
    13    4   59 1   
    14    4   60 1   
    15    5   44 1   
    16    5   61 1   
    17    5   62 1   
    18    6   44 1   
    19    6   63 1   
    20    6   64 1   
    21    6   65 1   
    22    7   44 1   
    23    7   66 1   
    24    7   67 1   
    25    7   68 1   
    26    8   44 1   
    27    8   69 1   
    28    8   70 1   
    29    8   71 1   
    30    9   10 1   
    31    9   46 1   
    32    9   47 2   
    33   10   11 1   
    34   10   72 1   
    35   10   73 1   
    36   11   12 1   
    37   11   74 1   
    38   11   75 1   
    39   12   13 1   
    40   12   76 1   
    41   12   77 1   
    42   13   14 1   
    43   13   78 1   
    44   13   79 1   
    45   14   15 1   
    46   14   80 1   
    47   14   81 1   
    48   15   16 1   
    49   15   82 1   
    50   15   83 1   
    51   16   17 1   
    52   16   84 1   
    53   16   85 1   
    54   17   18 1   
    55   17   86 1   
    56   17   87 1   
    57   18   19 1   
    58   18   88 1   
    59   18   89 1   
    60   19   20 1   
    61   19   90 1   
    62   19   91 1   
    63   20   21 1   
    64   20   92 1   
    65   20   93 1   
    66   21   22 1   
    67   21   94 1   
    68   21   95 1   
    69   22   23 1   
    70   22   96 1   
    71   22   97 1   
    72   23   24 1   
    73   23   98 1   
    74   23   99 1   
    75   24   25 1   
    76   24  100 1   
    77   24  101 1   
    78   25   26 1   
    79   25  102 1   
    80   25  103 1   
    81   26  104 1   
    82   26  105 1   
    83   26  106 1   
    84   27   28 1   
    85   27  107 1   
    86   27  108 1   
    87   27  142 1   
    88   28   29 1   
    89   28  109 1   
    90   28  110 1   
    91   29   30 1   
    92   29  111 1   
    93   29  112 1   
    94   30   31 1   
    95   30  113 1   
    96   30  114 1   
    97   31   32 1   
    98   31  115 1   
    99   31  116 1   
   100   32   33 1   
   101   32  117 1   
   102   32  118 1   
   103   33   34 1   
   104   33  119 1   
   105   33  120 1   
   106   34   35 1   
   107   34  121 1   
   108   34  122 1   
   109   35   36 1   
   110   35  123 1   
   111   35  124 1   
   112   36   37 1   
   113   36  125 1   
   114   36  126 1   
   115   37   38 1   
   116   37  127 1   
   117   37  128 1   
   118   38   39 1   
   119   38  129 1   
   120   38  130 1   
   121   39   40 1   
   122   39  131 1   
   123   39  132 1   
   124   40   41 1   
   125   40  133 1   
   126   40  134 1   
   127   41   42 1   
   128   41  135 1   
   129   41  136 1   
   130   42   43 1   
   131   42  137 1   
   132   42  138 1   
   133   43  139 1   
   134   43  140 1   
   135   43  141 1   
   136   45  142 1   
   137   48  142 2   
   138   49   53 1   
   139   50   53 1   
   140   51   53 1   
   141   52   53 1   
@<TRIPOS>SUBSTRUCTURE
     1 PC2         1 TEMP              0 ****  ****    0 ROOT
