@<TRIPOS>MOLECULE
PC2
  142   141     1     0     0
SMALL
bcc


@<TRIPOS>ATOM
      1 C1         -0.2310   -4.5550   -1.4810 c3        1 PC2      0.166400
      2 C2          0.6390   -4.2430   -2.7040 c3        1 PC2      0.121100
      3 C3         -0.1780   -3.7960   -3.9210 c3        1 PC2      0.128400
      4 C4         -2.2880   -1.7720    1.2490 c3        1 PC2      0.219400
      5 C5         -1.5490   -0.4070    1.3030 c3        1 PC2      0.081800
      6 C6         -0.2190   -0.8220    3.3640 c3        1 PC2      0.091100
      7 C7         -0.5250    1.4300    2.5130 c3        1 PC2      0.091100
      8 C8         -2.4020    0.2520    3.5070 c3        1 PC2      0.091100
      9 C11        -2.3700   -2.9180   -3.4610 c         1 PC2      0.641100
     10 C12        -3.0540   -1.8050   -2.7340 c3        1 PC2     -0.140400
     11 C13        -4.5510   -1.8330   -2.9510 c3        1 PC2     -0.079400
     12 C14        -5.2400   -0.8160   -2.0680 c3        1 PC2     -0.074400
     13 C15        -6.7400   -0.8430   -2.2710 c3        1 PC2     -0.081400
     14 C16        -7.4330    0.1760   -1.3920 c3        1 PC2     -0.076400
     15 C17        -8.9320    0.1480   -1.5960 c3        1 PC2     -0.080400
     16 C18        -9.6260    1.1670   -0.7190 c3        1 PC2     -0.077400
     17 C19       -11.1260    1.1380   -0.9240 c3        1 PC2     -0.079400
     18 C20       -11.8210    2.1580   -0.0470 c3        1 PC2     -0.078400
     19 C21       -13.3200    2.1280   -0.2520 c3        1 PC2     -0.079400
     20 C22       -14.0150    3.1470    0.6240 c3        1 PC2     -0.078400
     21 C23       -15.5150    3.1170    0.4190 c3        1 PC2     -0.079400
     22 C24       -16.2100    4.1370    1.2950 c3        1 PC2     -0.078400
     23 C25       -17.7090    4.1060    1.0900 c3        1 PC2     -0.079400
     24 C26       -18.4050    5.1250    1.9660 c3        1 PC2     -0.079400
     25 C27       -19.9050    5.0960    1.7610 c3        1 PC2     -0.080400
     26 C28       -20.6020    6.1090    2.6320 c3        1 PC2     -0.092100
     27 C32         3.4600   -2.2720   -1.3320 c3        1 PC2     -0.127400
     28 C33         4.9590   -2.3800   -1.5080 c3        1 PC2     -0.080400
     29 C34         5.6680   -1.2360   -0.8150 c3        1 PC2     -0.077400
     30 C35         7.1670   -1.3290   -1.0040 c3        1 PC2     -0.080400
     31 C36         7.8800   -0.1900   -0.3080 c3        1 PC2     -0.078400
     32 C37         9.3790   -0.2820   -0.4990 c3        1 PC2     -0.079400
     33 C38        10.0920    0.8570    0.1970 c3        1 PC2     -0.078400
     34 C39        11.5910    0.7650    0.0050 c3        1 PC2     -0.079400
     35 C40        12.3060    1.9040    0.7000 c3        1 PC2     -0.078400
     36 C41        13.8040    1.8110    0.5080 c3        1 PC2     -0.079400
     37 C42        14.5190    2.9500    1.2030 c3        1 PC2     -0.078400
     38 C43        16.0170    2.8580    1.0110 c3        1 PC2     -0.079400
     39 C44        16.7320    3.9970    1.7050 c3        1 PC2     -0.078400
     40 C45        18.2300    3.9050    1.5130 c3        1 PC2     -0.079400
     41 C46        18.9450    5.0430    2.2070 c3        1 PC2     -0.079400
     42 C47        20.4440    4.9520    2.0150 c3        1 PC2     -0.080400
     43 C48        21.1600    6.0840    2.7050 c3        1 PC2     -0.092100
     44 N          -1.1780    0.0970    2.6740 n4        1 PC2     -0.591800
     45 O2          1.5350   -3.1610   -2.4080 os        1 PC2     -0.416900
     46 O3         -1.0210   -2.6940   -3.5820 os        1 PC2     -0.434900
     47 O11        -2.8460   -3.9500   -3.9360 o         1 PC2     -0.544000
     48 O31         3.1590   -4.6400   -1.9330 o         1 PC2     -0.549000
     49 O1P        -1.5860   -5.0310    0.9440 o         1 PC2     -0.825500
     50 O2P        -0.1000   -3.1310    2.0310 o         1 PC2     -0.825500
     51 O3P         0.3000   -3.9160   -0.3520 os        1 PC2     -0.556200
     52 O4P        -1.7010   -2.5770    0.2990 os        1 PC2     -0.560200
     53 P          -0.7400   -3.8370    0.8980 p5        1 PC2      1.437800
     54 H12        -1.2860   -4.1940   -1.6430 h1        1 PC2      0.045200
     55 H11        -0.2540   -5.6620   -1.2900 h1        1 PC2      0.045200
     56 H2          1.2320   -5.1570   -2.9930 h1        1 PC2      0.081700
     57 H32         0.5060   -3.3900   -4.7140 h1        1 PC2      0.075200
     58 H31        -0.7700   -4.6640   -4.3120 h1        1 PC2      0.075200
     59 H42        -2.2900   -2.2780    2.2540 h1        1 PC2      0.036700
     60 H41        -3.3500   -1.5620    0.9310 h1        1 PC2      0.036700
     61 H52        -0.5950   -0.4900    0.7080 hx        1 PC2      0.090700
     62 H51        -2.2030    0.3810    0.8370 hx        1 PC2      0.090700
     63 H63         0.6080   -1.1110    2.6550 hx        1 PC2      0.097144
     64 H62         0.1850   -0.3060    4.2720 hx        1 PC2      0.097144
     65 H61        -0.7370   -1.7790    3.6530 hx        1 PC2      0.097144
     66 H73        -1.2190    2.1290    1.9780 hx        1 PC2      0.097144
     67 H72        -0.2760    1.8490    3.5230 hx        1 PC2      0.097144
     68 H71         0.4170    1.3040    1.9170 hx        1 PC2      0.097144
     69 H83        -2.9090   -0.7440    3.6090 hx        1 PC2      0.097144
     70 H82        -2.1150    0.6300    4.5230 hx        1 PC2      0.097144
     71 H81        -3.1000    0.9780    3.0140 hx        1 PC2      0.097144
     72 H122       -2.8080   -1.9390   -1.6400 hc        1 PC2      0.089200
     73 H121       -2.6220   -0.8250   -3.0650 hc        1 PC2      0.089200
     74 H132       -4.7820   -1.6220   -4.0290 hc        1 PC2      0.059700
     75 H131       -4.9400   -2.8630   -2.7280 hc        1 PC2      0.059700
     76 H142       -5.0020   -1.0320   -0.9920 hc        1 PC2      0.031700
     77 H141       -4.8470    0.2100   -2.2950 hc        1 PC2      0.031700
     78 H152       -6.9760   -0.6340   -3.3480 hc        1 PC2      0.046200
     79 H151       -7.1310   -1.8690   -2.0390 hc        1 PC2      0.046200
     80 H162       -7.1970   -0.0340   -0.3150 hc        1 PC2      0.033200
     81 H161       -7.0410    1.2020   -1.6230 hc        1 PC2      0.033200
     82 H172       -9.1680    0.3560   -2.6730 hc        1 PC2      0.043200
     83 H171       -9.3240   -0.8770   -1.3640 hc        1 PC2      0.043200
     84 H182       -9.3900    0.9600    0.3580 hc        1 PC2      0.036200
     85 H181       -9.2350    2.1930   -0.9510 hc        1 PC2      0.036200
     86 H192      -11.3620    1.3450   -2.0010 hc        1 PC2      0.041700
     87 H191      -11.5170    0.1130   -0.6910 hc        1 PC2      0.041700
     88 H202      -11.5850    1.9510    1.0300 hc        1 PC2      0.037700
     89 H201      -11.4300    3.1830   -0.2800 hc        1 PC2      0.037700
     90 H212      -13.5560    2.3350   -1.3300 hc        1 PC2      0.040700
     91 H211      -13.7110    1.1030   -0.0190 hc        1 PC2      0.040700
     92 H222      -13.7790    2.9410    1.7010 hc        1 PC2      0.038700
     93 H221      -13.6240    4.1730    0.3910 hc        1 PC2      0.038700
     94 H232      -15.7510    3.3240   -0.6580 hc        1 PC2      0.040200
     95 H231      -15.9050    2.0920    0.6520 hc        1 PC2      0.040200
     96 H242      -15.9740    3.9300    2.3720 hc        1 PC2      0.038700
     97 H241      -15.8190    5.1620    1.0620 hc        1 PC2      0.038700
     98 H252      -17.9460    4.3130    0.0120 hc        1 PC2      0.039700
     99 H251      -18.1000    3.0810    1.3230 hc        1 PC2      0.039700
    100 H262      -18.1690    4.9190    3.0430 hc        1 PC2      0.038700
    101 H261      -18.0150    6.1510    1.7330 hc        1 PC2      0.038700
    102 H272      -20.1390    5.3010    0.6830 hc        1 PC2      0.038700
    103 H271      -20.2940    4.0690    1.9930 hc        1 PC2      0.038700
    104 H283      -21.7060    6.0710    2.4650 hc        1 PC2      0.032700
    105 H282      -20.4010    5.9070    3.7120 hc        1 PC2      0.032700
    106 H281      -20.2460    7.1420    2.3980 hc        1 PC2      0.032700
    107 H322        3.0680   -1.3470   -1.8310 hc        1 PC2      0.075700
    108 H321        3.1930   -2.2160   -0.2420 hc        1 PC2      0.075700
    109 H332        5.3120   -3.3610   -1.0910 hc        1 PC2      0.057700
    110 H331        5.2110   -2.3760   -2.6010 hc        1 PC2      0.057700
    111 H342        5.2970   -0.2590   -1.2230 hc        1 PC2      0.036200
    112 H341        5.4260   -1.2520    0.2810 hc        1 PC2      0.036200
    113 H352        7.5360   -2.3080   -0.5990 hc        1 PC2      0.043700
    114 H351        7.4090   -1.3120   -2.0990 hc        1 PC2      0.043700
    115 H362        7.5090    0.7890   -0.7120 hc        1 PC2      0.036700
    116 H361        7.6380   -0.2080    0.7870 hc        1 PC2      0.036700
    117 H372        9.7490   -1.2610   -0.0950 hc        1 PC2      0.041200
    118 H371        9.6200   -0.2640   -1.5940 hc        1 PC2      0.041200
    119 H382        9.7220    1.8360   -0.2070 hc        1 PC2      0.038200
    120 H381        9.8520    0.8390    1.2920 hc        1 PC2      0.038200
    121 H392       11.9620   -0.2140    0.4090 hc        1 PC2      0.040700
    122 H391       11.8320    0.7820   -1.0910 hc        1 PC2      0.040700
    123 H402       11.9340    2.8830    0.2960 hc        1 PC2      0.038700
    124 H401       12.0650    1.8860    1.7960 hc        1 PC2      0.038700
    125 H412       14.1750    0.8330    0.9120 hc        1 PC2      0.040200
    126 H411       14.0450    1.8290   -0.5880 hc        1 PC2      0.040200
    127 H422       14.1480    3.9290    0.7990 hc        1 PC2      0.038700
    128 H421       14.2780    2.9330    2.2990 hc        1 PC2      0.038700
    129 H432       16.3890    1.8790    1.4140 hc        1 PC2      0.039700
    130 H431       16.2580    2.8760   -0.0850 hc        1 PC2      0.039700
    131 H442       16.3610    4.9760    1.3020 hc        1 PC2      0.038700
    132 H441       16.4920    3.9790    2.8010 hc        1 PC2      0.038700
    133 H452       18.6020    2.9260    1.9160 hc        1 PC2      0.039700
    134 H451       18.4710    3.9220    0.4170 hc        1 PC2      0.039700
    135 H462       18.5750    6.0220    1.8040 hc        1 PC2      0.038700
    136 H461       18.7060    5.0260    3.3030 hc        1 PC2      0.038700
    137 H472       20.8130    3.9720    2.4180 hc        1 PC2      0.038700
    138 H471       20.6820    4.9680    0.9190 hc        1 PC2      0.038700
    139 H483       22.2630    5.9980    2.5510 hc        1 PC2      0.032700
    140 H482       20.8240    7.0690    2.3000 hc        1 PC2      0.032700
    141 H481       20.9560    6.0700    3.8030 hc        1 PC2      0.032700
    142 C31         2.7590   -3.4760   -1.8840 c         1 PC2      0.654100
@<TRIPOS>BOND
     1    1    2 1   
     2    1   51 1   
     3    1   54 1   
     4    1   55 1   
     5    2    3 1   
     6    2   45 1   
     7    2   56 1   
     8    3   46 1   
     9    3   57 1   
    10    3   58 1   
    11    4    5 1   
    12    4   52 1   
    13    4   59 1   
    14    4   60 1   
    15    5   44 1   
    16    5   61 1   
    17    5   62 1   
    18    6   44 1   
    19    6   63 1   
    20    6   64 1   
    21    6   65 1   
    22    7   44 1   
    23    7   66 1   
    24    7   67 1   
    25    7   68 1   
    26    8   44 1   
    27    8   69 1   
    28    8   70 1   
    29    8   71 1   
    30    9   10 1   
    31    9   46 1   
    32    9   47 2   
    33   10   11 1   
    34   10   72 1   
    35   10   73 1   
    36   11   12 1   
    37   11   74 1   
    38   11   75 1   
    39   12   13 1   
    40   12   76 1   
    41   12   77 1   
    42   13   14 1   
    43   13   78 1   
    44   13   79 1   
    45   14   15 1   
    46   14   80 1   
    47   14   81 1   
    48   15   16 1   
    49   15   82 1   
    50   15   83 1   
    51   16   17 1   
    52   16   84 1   
    53   16   85 1   
    54   17   18 1   
    55   17   86 1   
    56   17   87 1   
    57   18   19 1   
    58   18   88 1   
    59   18   89 1   
    60   19   20 1   
    61   19   90 1   
    62   19   91 1   
    63   20   21 1   
    64   20   92 1   
    65   20   93 1   
    66   21   22 1   
    67   21   94 1   
    68   21   95 1   
    69   22   23 1   
    70   22   96 1   
    71   22   97 1   
    72   23   24 1   
    73   23   98 1   
    74   23   99 1   
    75   24   25 1   
    76   24  100 1   
    77   24  101 1   
    78   25   26 1   
    79   25  102 1   
    80   25  103 1   
    81   26  104 1   
    82   26  105 1   
    83   26  106 1   
    84   27   28 1   
    85   27  107 1   
    86   27  108 1   
    87   27  142 1   
    88   28   29 1   
    89   28  109 1   
    90   28  110 1   
    91   29   30 1   
    92   29  111 1   
    93   29  112 1   
    94   30   31 1   
    95   30  113 1   
    96   30  114 1   
    97   31   32 1   
    98   31  115 1   
    99   31  116 1   
   100   32   33 1   
   101   32  117 1   
   102   32  118 1   
   103   33   34 1   
   104   33  119 1   
   105   33  120 1   
   106   34   35 1   
   107   34  121 1   
   108   34  122 1   
   109   35   36 1   
   110   35  123 1   
   111   35  124 1   
   112   36   37 1   
   113   36  125 1   
   114   36  126 1   
   115   37   38 1   
   116   37  127 1   
   117   37  128 1   
   118   38   39 1   
   119   38  129 1   
   120   38  130 1   
   121   39   40 1   
   122   39  131 1   
   123   39  132 1   
   124   40   41 1   
   125   40  133 1   
   126   40  134 1   
   127   41   42 1   
   128   41  135 1   
   129   41  136 1   
   130   42   43 1   
   131   42  137 1   
   132   42  138 1   
   133   43  139 1   
   134   43  140 1   
   135   43  141 1   
   136   45  142 1   
   137   48  142 2   
   138   49   53 1   
   139   50   53 1   
   140   51   53 1   
   141   52   53 1   
@<TRIPOS>SUBSTRUCTURE
     1 PC2         1 TEMP              0 ****  ****    0 ROOT
