@<TRIPOS>MOLECULE
PC5
   64    63     1     0     0
SMALL
bcc


@<TRIPOS>ATOM
      1 C14         2.4760   -1.3580   -0.3810 c3        1 PC5     -0.093100
      2 C13         3.4420   -1.7910    0.6920 c3        1 PC5     -0.079400
      3 C12         3.6800   -0.6840    1.6970 c3        1 PC5     -0.080400
      4 C11         4.6670   -1.1230    2.7580 c3        1 PC5     -0.127400
      5 C10         4.7970   -0.0880    3.8310 c         1 PC5      0.635100
      6 O7          3.9320    0.6370    4.3230 o         1 PC5     -0.533000
      7 O6          6.0790    0.0100    4.3070 os        1 PC5     -0.449900
      8 C9          6.3040    0.9190    5.3940 c3        1 PC5      0.124400
      9 C8          7.8120    1.1760    5.4230 c3        1 PC5      0.115100
     10 O5          8.0700    2.1620    4.4020 os        1 PC5     -0.425900
     11 C15         9.0040    1.9190    3.4470 c         1 PC5      0.664100
     12 O8          9.6910    0.8900    3.4990 o         1 PC5     -0.607000
     13 C16         9.0800    3.0240    2.4350 c3        1 PC5     -0.133400
     14 C17         9.1990    2.4680    1.0320 c3        1 PC5     -0.077400
     15 C18         9.4030    3.5830    0.0280 c3        1 PC5     -0.080400
     16 C19         9.5060    3.0440   -1.3750 c3        1 PC5     -0.093100
     17 C7          8.2120    1.7880    6.7760 c3        1 PC5      0.125400
     18 O1          9.5360    1.4480    7.1100 os        1 PC5     -0.532200
     19 P1          9.7870    0.3190    8.2610 p5        1 PC5      1.990800
     20 S2         11.6440    0.4580    8.7290 s         1 PC5     -1.188500
     21 S3          8.3880    0.1960    9.4970 s         1 PC5     -1.188500
     22 O4          9.6580   -0.8750    7.1440 os        1 PC5     -0.529200
     23 C5         10.7550   -1.6660    6.8070 c3        1 PC5      0.145400
     24 C4         11.2670   -1.3100    5.4020 c3        1 PC5      0.082800
     25 N1         12.4800   -0.4230    5.2940 n4        1 PC5     -0.577800
     26 C1         13.5480   -0.8480    6.2440 c3        1 PC5      0.064433
     27 C2         12.9830   -0.5320    3.8900 c3        1 PC5      0.064433
     28 C3         12.1430    1.0080    5.5560 c3        1 PC5      0.064433
     29 H141        1.4920   -1.0760    0.0660 hc        1 PC5      0.036033
     30 H142        2.8740   -0.4750   -0.9370 hc        1 PC5      0.036033
     31 H143        2.3090   -2.1880   -1.1090 hc        1 PC5      0.036033
     32 H131        4.4170   -2.0900    0.2240 hc        1 PC5      0.039700
     33 H132        3.0370   -2.6960    1.2200 hc        1 PC5      0.039700
     34 H121        2.7110   -0.3940    2.1850 hc        1 PC5      0.057700
     35 H122        4.0710    0.2260    1.1710 hc        1 PC5      0.057700
     36 H111        5.6720   -1.3260    2.3030 hc        1 PC5      0.077700
     37 H112        4.3150   -2.0700    3.2500 hc        1 PC5      0.077700
     38 H91         5.7300    1.8680    5.2320 h1        1 PC5      0.081700
     39 H92         5.9680    0.4180    6.3400 h1        1 PC5      0.081700
     40 H8          8.3780    0.2290    5.2050 h1        1 PC5      0.104700
     41 H161        9.9790    3.6480    2.6880 hc        1 PC5      0.082700
     42 H162        8.1720    3.6780    2.5220 hc        1 PC5      0.082700
     43 H171       10.0580    1.7480    0.9850 hc        1 PC5      0.053200
     44 H172        8.2700    1.8940    0.7740 hc        1 PC5      0.053200
     45 H181        8.5470    4.3060    0.0930 hc        1 PC5      0.042700
     46 H182       10.3370    4.1520    0.2830 hc        1 PC5      0.042700
     47 H191        9.6590    3.8800   -2.1000 hc        1 PC5      0.036700
     48 H192        8.5730    2.4980   -1.6580 hc        1 PC5      0.036700
     49 H193       10.3660    2.3370   -1.4660 hc        1 PC5      0.036700
     50 H71         8.1770    2.9110    6.7000 h1        1 PC5      0.095200
     51 H72         7.5160    1.4330    7.5950 h1        1 PC5      0.095200
     52 H51        11.5490   -1.5970    7.6070 h1        1 PC5      0.093200
     53 H52        10.3710   -2.7270    6.7470 h1        1 PC5      0.093200
     54 H41        10.4300   -0.8030    4.8300 hx        1 PC5      0.105700
     55 H42        11.5330   -2.2780    4.8870 hx        1 PC5      0.105700
     56 H11        13.2640   -0.5180    7.2980 hx        1 PC5      0.103700
     57 H12        13.6630   -1.9600    6.2010 hx        1 PC5      0.103700
     58 H13        14.5120   -0.3520    5.9580 hx        1 PC5      0.103700
     59 H21        13.8510    0.1640    3.7520 hx        1 PC5      0.103700
     60 H22        12.1540   -0.2440    3.1870 hx        1 PC5      0.103700
     61 H23        13.3130   -1.5830    3.6880 hx        1 PC5      0.103700
     62 H31        11.2930    1.3210    4.8960 hx        1 PC5      0.103700
     63 H32        11.8380    1.1250    6.6500 hx        1 PC5      0.103700
     64 H33        13.0490    1.6360    5.3590 hx        1 PC5      0.103700
@<TRIPOS>BOND
     1    1    2 1   
     2    1   29 1   
     3    1   30 1   
     4    1   31 1   
     5    2    3 1   
     6    2   32 1   
     7    2   33 1   
     8    3    4 1   
     9    3   34 1   
    10    3   35 1   
    11    4    5 1   
    12    4   36 1   
    13    4   37 1   
    14    5    6 2   
    15    5    7 1   
    16    7    8 1   
    17    8    9 1   
    18    8   38 1   
    19    8   39 1   
    20    9   10 1   
    21    9   17 1   
    22    9   40 1   
    23   10   11 1   
    24   11   12 2   
    25   11   13 1   
    26   13   14 1   
    27   13   41 1   
    28   13   42 1   
    29   14   15 1   
    30   14   43 1   
    31   14   44 1   
    32   15   16 1   
    33   15   45 1   
    34   15   46 1   
    35   16   47 1   
    36   16   48 1   
    37   16   49 1   
    38   17   18 1   
    39   17   50 1   
    40   17   51 1   
    41   18   19 1   
    42   19   20 1   
    43   19   21 1   
    44   19   22 1   
    45   22   23 1   
    46   23   24 1   
    47   23   52 1   
    48   23   53 1   
    49   24   25 1   
    50   24   54 1   
    51   24   55 1   
    52   25   26 1   
    53   25   27 1   
    54   25   28 1   
    55   26   56 1   
    56   26   57 1   
    57   26   58 1   
    58   27   59 1   
    59   27   60 1   
    60   27   61 1   
    61   28   62 1   
    62   28   63 1   
    63   28   64 1   
@<TRIPOS>SUBSTRUCTURE
     1 PC5         1 TEMP              0 ****  ****    0 ROOT
