@<TRIPOS>MOLECULE
PC5
   64    63     1     0     0
SMALL
bcc


@<TRIPOS>ATOM
      1 C14        -5.5790   -3.5350   -3.9380 c3        1 PC5     -0.093100
      2 C13        -4.1770   -2.9900   -3.9810 c3        1 PC5     -0.079400
      3 C12        -4.1210   -1.6470   -3.2130 c3        1 PC5     -0.080400
      4 C11        -2.6880   -1.0890   -3.2580 c3        1 PC5     -0.126400
      5 C10        -2.5910    0.1580   -2.3560 c         1 PC5      0.633100
      6 O7         -3.5990    0.7500   -2.0280 o         1 PC5     -0.534000
      7 O6         -1.3190    0.5950   -1.8750 os        1 PC5     -0.448900
      8 C9         -1.3970    1.6070   -0.8690 c3        1 PC5      0.129400
      9 C8          0.0050    2.1340   -0.5650 c3        1 PC5      0.124100
     10 O5          0.0520    3.5150   -0.8180 os        1 PC5     -0.427900
     11 C15         1.1200    3.9090   -1.6860 c         1 PC5      0.671100
     12 O8          1.7730    3.0600   -2.2750 o         1 PC5     -0.600000
     13 C16         1.4920    5.3810   -1.8180 c3        1 PC5     -0.135400
     14 C17         2.0020    5.6610   -3.2720 c3        1 PC5     -0.073400
     15 C18         2.2340    7.1480   -3.4500 c3        1 PC5     -0.082400
     16 C19         2.8780    7.4000   -4.8020 c3        1 PC5     -0.092100
     17 C7          0.3450    1.8710    0.9060 c3        1 PC5      0.137400
     18 O1          0.5740    0.4600    1.1030 os        1 PC5     -0.528200
     19 P1          0.9960   -0.0520    2.5640 p5        1 PC5      2.013800
     20 S2          2.9960    0.4260    2.9120 s         1 PC5     -1.203000
     21 S3         -0.1240    0.8130    3.9050 s         1 PC5     -1.203000
     22 O4          0.8010   -1.6440    2.6520 os        1 PC5     -0.540200
     23 C5          1.3900   -2.3370    3.7350 c3        1 PC5      0.145400
     24 C4          0.9230   -3.8020    3.7200 c3        1 PC5      0.091800
     25 N1          1.5010   -4.5120    4.8590 n4        1 PC5     -0.578800
     26 C1          1.1820   -3.8060    6.0860 c3        1 PC5      0.067433
     27 C2          0.9590   -5.8440    4.9200 c3        1 PC5      0.067433
     28 C3          2.9200   -4.5820    4.7040 c3        1 PC5      0.067433
     29 H141       -5.9020   -3.5340   -3.0120 hc        1 PC5      0.036700
     30 H142       -6.1560   -2.9820   -4.4830 hc        1 PC5      0.036700
     31 H143       -5.5840   -4.4590   -4.2880 hc        1 PC5      0.036700
     32 H131       -3.9140   -2.8450   -4.9090 hc        1 PC5      0.039200
     33 H132       -3.5600   -3.6360   -3.5620 hc        1 PC5      0.039200
     34 H121       -4.3880   -1.7940   -2.2710 hc        1 PC5      0.058700
     35 H122       -4.7330   -1.0070   -3.6290 hc        1 PC5      0.058700
     36 H111       -2.4610   -0.8420   -4.1840 hc        1 PC5      0.077200
     37 H112       -2.0590   -1.7740   -2.9390 hc        1 PC5      0.077200
     38 H91        -1.7880    1.2260   -0.0510 h1        1 PC5      0.072700
     39 H92        -1.9610    2.3430   -1.1890 h1        1 PC5      0.072700
     40 H8          0.6530    1.6780   -1.1330 h1        1 PC5      0.099700
     41 H161        2.1920    5.5960   -1.1830 hc        1 PC5      0.091200
     42 H162        0.7070    5.9320   -1.6360 hc        1 PC5      0.091200
     43 H171        2.8440    5.1780   -3.4210 hc        1 PC5      0.046200
     44 H172        1.3270    5.3540   -3.9220 hc        1 PC5      0.046200
     45 H181        1.3830    7.6160   -3.4040 hc        1 PC5      0.045700
     46 H182        2.8230    7.4730   -2.7430 hc        1 PC5      0.045700
     47 H191        3.7920    7.0450   -4.8000 hc        1 PC5      0.035033
     48 H192        2.3590    6.9570   -5.4960 hc        1 PC5      0.035033
     49 H193        2.9020    8.3720   -4.9790 hc        1 PC5      0.035033
     50 H71        -0.3910    2.1590    1.4630 h1        1 PC5      0.090200
     51 H72         1.1480    2.3680    1.1470 h1        1 PC5      0.090200
     52 H51         2.3590   -2.3040    3.6520 h1        1 PC5      0.091700
     53 H52         1.1230   -1.9210    4.5680 h1        1 PC5      0.091700
     54 H41         1.2200   -4.2350    2.8750 hx        1 PC5      0.100200
     55 H42        -0.0610   -3.8330    3.7770 hx        1 PC5      0.100200
     56 H11         1.2490   -4.4240    6.8470 hx        1 PC5      0.104144
     57 H12         0.2630   -3.4500    6.0320 hx        1 PC5      0.104144
     58 H13         1.8140   -3.0630    6.2110 hx        1 PC5      0.104144
     59 H21         1.1820   -6.3280    4.0900 hx        1 PC5      0.104144
     60 H22         1.3450   -6.3230    5.6950 hx        1 PC5      0.104144
     61 H23        -0.0070   -5.7960    5.0170 hx        1 PC5      0.104144
     62 H31         3.3250   -3.7460    5.0190 hx        1 PC5      0.104144
     63 H32         3.1400   -4.7150    3.7510 hx        1 PC5      0.104144
     64 H33         3.2710   -5.3320    5.2270 hx        1 PC5      0.104144
@<TRIPOS>BOND
     1    1    2 1   
     2    1   29 1   
     3    1   30 1   
     4    1   31 1   
     5    2    3 1   
     6    2   32 1   
     7    2   33 1   
     8    3    4 1   
     9    3   34 1   
    10    3   35 1   
    11    4    5 1   
    12    4   36 1   
    13    4   37 1   
    14    5    6 2   
    15    5    7 1   
    16    7    8 1   
    17    8    9 1   
    18    8   38 1   
    19    8   39 1   
    20    9   10 1   
    21    9   17 1   
    22    9   40 1   
    23   10   11 1   
    24   11   12 2   
    25   11   13 1   
    26   13   14 1   
    27   13   41 1   
    28   13   42 1   
    29   14   15 1   
    30   14   43 1   
    31   14   44 1   
    32   15   16 1   
    33   15   45 1   
    34   15   46 1   
    35   16   47 1   
    36   16   48 1   
    37   16   49 1   
    38   17   18 1   
    39   17   50 1   
    40   17   51 1   
    41   18   19 1   
    42   19   20 1   
    43   19   21 1   
    44   19   22 1   
    45   22   23 1   
    46   23   24 1   
    47   23   52 1   
    48   23   53 1   
    49   24   25 1   
    50   24   54 1   
    51   24   55 1   
    52   25   26 1   
    53   25   27 1   
    54   25   28 1   
    55   26   56 1   
    56   26   57 1   
    57   26   58 1   
    58   27   59 1   
    59   27   60 1   
    60   27   61 1   
    61   28   62 1   
    62   28   63 1   
    63   28   64 1   
@<TRIPOS>SUBSTRUCTURE
     1 PC5         1 TEMP              0 ****  ****    0 ROOT
