@<TRIPOS>MOLECULE
PC5
   64    63     1     0     0
SMALL
bcc


@<TRIPOS>ATOM
      1 C14         2.4590   -1.3280   -0.3780 c3        1 PC5     -0.093100
      2 C13         3.4330   -1.7690    0.6840 c3        1 PC5     -0.079400
      3 C12         3.6720   -0.6730    1.7010 c3        1 PC5     -0.080400
      4 C11         4.6670   -1.1200    2.7510 c3        1 PC5     -0.127400
      5 C10         4.7980   -0.0970    3.8360 c         1 PC5      0.635100
      6 O7          3.9330    0.6200    4.3390 o         1 PC5     -0.533000
      7 O6          6.0820    0.0000    4.3070 os        1 PC5     -0.449900
      8 C9          6.3080    0.8970    5.4040 c3        1 PC5      0.124400
      9 C8          7.8160    1.1560    5.4320 c3        1 PC5      0.115100
     10 O5          8.0700    2.1540    4.4230 os        1 PC5     -0.425900
     11 C15         9.0020    1.9240    3.4620 c         1 PC5      0.664100
     12 O8          9.6910    0.8950    3.4990 o         1 PC5     -0.607000
     13 C16         9.0740    3.0420    2.4640 c3        1 PC5     -0.133400
     14 C17         9.1930    2.5030    1.0530 c3        1 PC5     -0.077400
     15 C18         9.3930    3.6310    0.0630 c3        1 PC5     -0.080400
     16 C19         9.4960    3.1100   -1.3470 c3        1 PC5     -0.093100
     17 C7          8.2200    1.7520    6.7910 c3        1 PC5      0.125400
     18 O1          9.5450    1.4100    7.1180 os        1 PC5     -0.532200
     19 P1          9.8000    0.2670    8.2540 p5        1 PC5      1.990800
     20 S2         11.6590    0.4020    8.7190 s         1 PC5     -1.188500
     21 S3          8.4040    0.1280    9.4920 s         1 PC5     -1.188500
     22 O4          9.6690   -0.9140    7.1230 os        1 PC5     -0.529200
     23 C5         10.7660   -1.7000    6.7730 c3        1 PC5      0.145400
     24 C4         11.2730   -1.3260    5.3710 c3        1 PC5      0.082800
     25 N1         12.4860   -0.4360    5.2700 n4        1 PC5     -0.577800
     26 C1         13.5570   -0.8720    6.2120 c3        1 PC5      0.064433
     27 C2         12.9840   -0.5280    3.8640 c3        1 PC5      0.064433
     28 C3         12.1480    0.9910    5.5510 c3        1 PC5      0.064433
     29 H141        1.4760   -1.0560    0.0780 hc        1 PC5      0.036033
     30 H142        2.8490   -0.4370   -0.9260 hc        1 PC5      0.036033
     31 H143        2.2910   -2.1500   -1.1140 hc        1 PC5      0.036033
     32 H131        4.4070   -2.0580    0.2070 hc        1 PC5      0.039700
     33 H132        3.0360   -2.6810    1.2040 hc        1 PC5      0.039700
     34 H121        2.7050   -0.3930    2.1980 hc        1 PC5      0.057700
     35 H122        4.0560    0.2450    1.1840 hc        1 PC5      0.057700
     36 H111        5.6700   -1.3120    2.2880 hc        1 PC5      0.077700
     37 H112        4.3220   -2.0740    3.2340 hc        1 PC5      0.077700
     38 H91         5.7330    1.8470    5.2540 h1        1 PC5      0.081700
     39 H92         5.9760    0.3850    6.3450 h1        1 PC5      0.081700
     40 H8          8.3830    0.2120    5.2020 h1        1 PC5      0.104700
     41 H161        9.9710    3.6650    2.7230 hc        1 PC5      0.082700
     42 H162        8.1650    3.6920    2.5600 hc        1 PC5      0.082700
     43 H171       10.0540    1.7860    0.9970 hc        1 PC5      0.053200
     44 H172        8.2660    1.9300    0.7900 hc        1 PC5      0.053200
     45 H181        8.5360    4.3510    0.1380 hc        1 PC5      0.042700
     46 H182       10.3250    4.1990    0.3250 hc        1 PC5      0.042700
     47 H191        9.6460    3.9550   -2.0610 hc        1 PC5      0.036700
     48 H192        8.5640    2.5660   -1.6350 hc        1 PC5      0.036700
     49 H193       10.3580    2.4070   -1.4460 hc        1 PC5      0.036700
     50 H71         8.1830    2.8760    6.7290 h1        1 PC5      0.095200
     51 H72         7.5260    1.3870    7.6080 h1        1 PC5      0.095200
     52 H51        11.5620   -1.6390    7.5720 h1        1 PC5      0.093200
     53 H52        10.3830   -2.7600    6.7020 h1        1 PC5      0.093200
     54 H41        10.4340   -0.8130    4.8080 hx        1 PC5      0.105700
     55 H42        11.5390   -2.2870    4.8450 hx        1 PC5      0.105700
     56 H11        13.2750   -0.5550    7.2710 hx        1 PC5      0.103700
     57 H12        13.6720   -1.9840    6.1560 hx        1 PC5      0.103700
     58 H13        14.5190   -0.3720    5.9300 hx        1 PC5      0.103700
     59 H21        13.8520    0.1700    3.7320 hx        1 PC5      0.103700
     60 H22        12.1530   -0.2330    3.1670 hx        1 PC5      0.103700
     61 H23        13.3140   -1.5760    3.6480 hx        1 PC5      0.103700
     62 H31        11.2950    1.3110    4.8970 hx        1 PC5      0.103700
     63 H32        11.8460    1.0940    6.6470 hx        1 PC5      0.103700
     64 H33        13.0520    1.6220    5.3590 hx        1 PC5      0.103700
@<TRIPOS>BOND
     1    1    2 1   
     2    1   29 1   
     3    1   30 1   
     4    1   31 1   
     5    2    3 1   
     6    2   32 1   
     7    2   33 1   
     8    3    4 1   
     9    3   34 1   
    10    3   35 1   
    11    4    5 1   
    12    4   36 1   
    13    4   37 1   
    14    5    6 2   
    15    5    7 1   
    16    7    8 1   
    17    8    9 1   
    18    8   38 1   
    19    8   39 1   
    20    9   10 1   
    21    9   17 1   
    22    9   40 1   
    23   10   11 1   
    24   11   12 2   
    25   11   13 1   
    26   13   14 1   
    27   13   41 1   
    28   13   42 1   
    29   14   15 1   
    30   14   43 1   
    31   14   44 1   
    32   15   16 1   
    33   15   45 1   
    34   15   46 1   
    35   16   47 1   
    36   16   48 1   
    37   16   49 1   
    38   17   18 1   
    39   17   50 1   
    40   17   51 1   
    41   18   19 1   
    42   19   20 1   
    43   19   21 1   
    44   19   22 1   
    45   22   23 1   
    46   23   24 1   
    47   23   52 1   
    48   23   53 1   
    49   24   25 1   
    50   24   54 1   
    51   24   55 1   
    52   25   26 1   
    53   25   27 1   
    54   25   28 1   
    55   26   56 1   
    56   26   57 1   
    57   26   58 1   
    58   27   59 1   
    59   27   60 1   
    60   27   61 1   
    61   28   62 1   
    62   28   63 1   
    63   28   64 1   
@<TRIPOS>SUBSTRUCTURE
     1 PC5         1 TEMP              0 ****  ****    0 ROOT
