@<TRIPOS>MOLECULE
PC5
   64    63     1     0     0
SMALL
bcc


@<TRIPOS>ATOM
      1 C14         7.6790   -0.3480    2.3830 c3        1 PC5     -0.093100
      2 C13         6.2400   -0.7680    2.5310 c3        1 PC5     -0.079400
      3 C12         5.5750   -0.9360    1.1810 c3        1 PC5     -0.080400
      4 C11         4.1240   -1.3390    1.3410 c3        1 PC5     -0.127400
      5 C10         3.5020   -1.6450    0.0150 c         1 PC5      0.635100
      6 O7          3.9950   -2.1980   -0.9680 o         1 PC5     -0.533000
      7 O6          2.1930   -1.2440   -0.0510 os        1 PC5     -0.449900
      8 C9          1.4730   -1.5580   -1.2520 c3        1 PC5      0.124400
      9 C8          0.2470   -0.6420   -1.2600 c3        1 PC5      0.115100
     10 O5          0.7060    0.6380   -1.7390 os        1 PC5     -0.425900
     11 C15         0.4630    1.7600   -1.0130 c         1 PC5      0.664100
     12 O8         -0.2220    1.6960    0.0170 o         1 PC5     -0.607000
     13 C16         1.0760    2.9800   -1.6340 c3        1 PC5     -0.133400
     14 C17         1.7250    3.8560   -0.5830 c3        1 PC5     -0.077400
     15 C18         2.2300    5.1450   -1.1960 c3        1 PC5     -0.080400
     16 C19         2.8940    6.0180   -0.1630 c3        1 PC5     -0.093100
     17 C7         -0.7940   -1.1710   -2.2610 c3        1 PC5      0.125400
     18 O1         -2.0970   -0.8180   -1.8660 os        1 PC5     -0.532200
     19 P1         -3.0590   -1.9680   -1.2240 p5        1 PC5      1.990800
     20 S2         -4.8310   -1.2290   -1.2320 s         1 PC5     -1.188500
     21 S3         -2.6290   -3.6980   -1.7940 s         1 PC5     -1.188500
     22 O4         -2.4270   -1.6930    0.2650 os        1 PC5     -0.529200
     23 C5         -3.2050   -1.1500    1.2860 c3        1 PC5      0.145400
     24 C4         -2.7920    0.3030    1.5670 c3        1 PC5      0.082800
     25 N1         -3.6430    1.4050    0.9870 n4        1 PC5     -0.577800
     26 C1         -5.0940    1.1320    1.1900 c3        1 PC5      0.064433
     27 C2         -3.2660    2.6690    1.6900 c3        1 PC5      0.064433
     28 C3         -3.3860    1.5910   -0.4720 c3        1 PC5      0.064433
     29 H141        8.1540   -0.2340    3.3870 hc        1 PC5      0.036033
     30 H142        8.2550   -1.1100    1.8040 hc        1 PC5      0.036033
     31 H143        7.7520    0.6290    1.8450 hc        1 PC5      0.036033
     32 H131        6.1860   -1.7360    3.0970 hc        1 PC5      0.039700
     33 H132        5.6820   -0.0020    3.1310 hc        1 PC5      0.039700
     34 H121        5.6380    0.0250    0.6060 hc        1 PC5      0.057700
     35 H122        6.1150   -1.7170    0.5810 hc        1 PC5      0.057700
     36 H111        4.0440   -2.2680    1.9690 hc        1 PC5      0.077700
     37 H112        3.5430   -0.5280    1.8540 hc        1 PC5      0.077700
     38 H91         2.1210   -1.3810   -2.1500 h1        1 PC5      0.081700
     39 H92         1.1640   -2.6350   -1.2000 h1        1 PC5      0.081700
     40 H8         -0.1780   -0.5440   -0.2240 h1        1 PC5      0.104700
     41 H161        1.8290    2.6720   -2.4080 hc        1 PC5      0.082700
     42 H162        0.2550    3.5390   -2.1580 hc        1 PC5      0.082700
     43 H171        0.9840    4.0810    0.2280 hc        1 PC5      0.053200
     44 H172        2.5790    3.3040   -0.1080 hc        1 PC5      0.053200
     45 H181        2.9590    4.9100   -2.0160 hc        1 PC5      0.042700
     46 H182        1.3730    5.6990   -1.6630 hc        1 PC5      0.042700
     47 H191        3.2570    6.9640   -0.6330 hc        1 PC5      0.036700
     48 H192        2.1780    6.2810    0.6530 hc        1 PC5      0.036700
     49 H193        3.7680    5.4940    0.2940 hc        1 PC5      0.036700
     50 H71        -0.6200   -0.6920   -3.2650 h1        1 PC5      0.095200
     51 H72        -0.7230   -2.2970   -2.3530 h1        1 PC5      0.095200
     52 H51        -4.3020   -1.2700    1.0500 h1        1 PC5      0.093200
     53 H52        -2.9530   -1.7380    2.2180 h1        1 PC5      0.093200
     54 H41        -2.8050    0.4460    2.6840 hx        1 PC5      0.105700
     55 H42        -1.7370    0.4600    1.1840 hx        1 PC5      0.105700
     56 H11        -5.2650    0.7870    2.2400 hx        1 PC5      0.103700
     57 H12        -5.6750    2.0700    0.9950 hx        1 PC5      0.103700
     58 H13        -5.4310    0.3320    0.4500 hx        1 PC5      0.103700
     59 H21        -2.1620    2.8400    1.5590 hx        1 PC5      0.103700
     60 H22        -3.8340    3.5260    1.2420 hx        1 PC5      0.103700
     61 H23        -3.5160    2.5850    2.7790 hx        1 PC5      0.103700
     62 H31        -3.7480    0.6660   -1.0360 hx        1 PC5      0.103700
     63 H32        -3.9570    2.4850   -0.8300 hx        1 PC5      0.103700
     64 H33        -2.2870    1.7280   -0.6470 hx        1 PC5      0.103700
@<TRIPOS>BOND
     1    1    2 1   
     2    1   29 1   
     3    1   30 1   
     4    1   31 1   
     5    2    3 1   
     6    2   32 1   
     7    2   33 1   
     8    3    4 1   
     9    3   34 1   
    10    3   35 1   
    11    4    5 1   
    12    4   36 1   
    13    4   37 1   
    14    5    6 2   
    15    5    7 1   
    16    7    8 1   
    17    8    9 1   
    18    8   38 1   
    19    8   39 1   
    20    9   10 1   
    21    9   17 1   
    22    9   40 1   
    23   10   11 1   
    24   11   12 2   
    25   11   13 1   
    26   13   14 1   
    27   13   41 1   
    28   13   42 1   
    29   14   15 1   
    30   14   43 1   
    31   14   44 1   
    32   15   16 1   
    33   15   45 1   
    34   15   46 1   
    35   16   47 1   
    36   16   48 1   
    37   16   49 1   
    38   17   18 1   
    39   17   50 1   
    40   17   51 1   
    41   18   19 1   
    42   19   20 1   
    43   19   21 1   
    44   19   22 1   
    45   22   23 1   
    46   23   24 1   
    47   23   52 1   
    48   23   53 1   
    49   24   25 1   
    50   24   54 1   
    51   24   55 1   
    52   25   26 1   
    53   25   27 1   
    54   25   28 1   
    55   26   56 1   
    56   26   57 1   
    57   26   58 1   
    58   27   59 1   
    59   27   60 1   
    60   27   61 1   
    61   28   62 1   
    62   28   63 1   
    63   28   64 1   
@<TRIPOS>SUBSTRUCTURE
     1 PC5         1 TEMP              0 ****  ****    0 ROOT
