@<TRIPOS>MOLECULE
PC5
   64    63     1     0     0
SMALL
bcc


@<TRIPOS>ATOM
      1 C14         2.4590   -1.3480   -0.3880 c3        1 PC5     -0.093100
      2 C13         3.4390   -1.7840    0.6690 c3        1 PC5     -0.079400
      3 C12         3.6710   -0.6900    1.6890 c3        1 PC5     -0.080400
      4 C11         4.6730   -1.1310    2.7350 c3        1 PC5     -0.127400
      5 C10         4.7980   -0.1120    3.8230 c         1 PC5      0.635100
      6 O7          3.9290    0.5980    4.3290 o         1 PC5     -0.533000
      7 O6          6.0810   -0.0090    4.2960 os        1 PC5     -0.449900
      8 C9          6.3010    0.8850    5.3970 c3        1 PC5      0.124400
      9 C8          7.8080    1.1490    5.4300 c3        1 PC5      0.115100
     10 O5          8.0620    2.1520    4.4250 os        1 PC5     -0.425900
     11 C15         8.9980    1.9280    3.4660 c         1 PC5      0.664100
     12 O8          9.6900    0.9020    3.5020 o         1 PC5     -0.607000
     13 C16         9.0690    3.0500    2.4730 c3        1 PC5     -0.133400
     14 C17         9.2020    2.5180    1.0620 c3        1 PC5     -0.077400
     15 C18         9.4010    3.6520    0.0770 c3        1 PC5     -0.080400
     16 C19         9.5180    3.1360   -1.3340 c3        1 PC5     -0.093100
     17 C7          8.2060    1.7400    6.7920 c3        1 PC5      0.125400
     18 O1          9.5310    1.4020    7.1210 os        1 PC5     -0.532200
     19 P1          9.7880    0.2560    8.2530 p5        1 PC5      1.990800
     20 S2         11.6440    0.3960    8.7240 s         1 PC5     -1.188500
     21 S3          8.3890    0.1060    9.4870 s         1 PC5     -1.188500
     22 O4          9.6640   -0.9210    7.1170 os        1 PC5     -0.529200
     23 C5         10.7650   -1.7020    6.7680 c3        1 PC5      0.145400
     24 C4         11.2760   -1.3210    5.3690 c3        1 PC5      0.082800
     25 N1         12.4860   -0.4270    5.2760 n4        1 PC5     -0.577800
     26 C1         13.5550   -0.8620    6.2200 c3        1 PC5      0.064433
     27 C2         12.9900   -0.5110    3.8710 c3        1 PC5      0.064433
     28 C3         12.1420    0.9980    5.5600 c3        1 PC5      0.064433
     29 H141        2.2960   -2.1690   -1.1280 hc        1 PC5      0.036033
     30 H142        1.4750   -1.0860    0.0710 hc        1 PC5      0.036033
     31 H143        2.8400   -0.4510   -0.9340 hc        1 PC5      0.036033
     32 H131        4.4150   -2.0620    0.1890 hc        1 PC5      0.039700
     33 H132        3.0520   -2.7020    1.1860 hc        1 PC5      0.039700
     34 H121        4.0450    0.2340    1.1750 hc        1 PC5      0.057700
     35 H122        2.7030   -0.4200    2.1900 hc        1 PC5      0.057700
     36 H111        4.3390   -2.0910    3.2150 hc        1 PC5      0.077700
     37 H112        5.6770   -1.3130    2.2690 hc        1 PC5      0.077700
     38 H91         5.7230    1.8340    5.2470 h1        1 PC5      0.081700
     39 H92         5.9670    0.3690    6.3350 h1        1 PC5      0.081700
     40 H8          8.3790    0.2080    5.1970 h1        1 PC5      0.104700
     41 H161        9.9600    3.6790    2.7410 hc        1 PC5      0.082700
     42 H162        8.1540    3.6950    2.5650 hc        1 PC5      0.082700
     43 H171        8.2800    1.9390    0.7890 hc        1 PC5      0.053200
     44 H172       10.0680    1.8080    1.0080 hc        1 PC5      0.053200
     45 H181       10.3270    4.2250    0.3480 hc        1 PC5      0.042700
     46 H182        8.5370    4.3650    0.1480 hc        1 PC5      0.042700
     47 H191        9.6660    3.9860   -2.0440 hc        1 PC5      0.036700
     48 H192        8.5930    2.5860   -1.6310 hc        1 PC5      0.036700
     49 H193       10.3860    2.4400   -1.4300 hc        1 PC5      0.036700
     50 H71         7.5110    1.3690    7.6060 h1        1 PC5      0.095200
     51 H72         8.1650    2.8650    6.7350 h1        1 PC5      0.095200
     52 H51        10.3860   -2.7630    6.6910 h1        1 PC5      0.093200
     53 H52        11.5580   -1.6420    7.5700 h1        1 PC5      0.093200
     54 H41        10.4370   -0.8090    4.8060 hx        1 PC5      0.105700
     55 H42        11.5470   -2.2790    4.8400 hx        1 PC5      0.105700
     56 H11        13.2680   -0.5490    7.2790 hx        1 PC5      0.103700
     57 H12        14.5160   -0.3570    5.9430 hx        1 PC5      0.103700
     58 H13        13.6750   -1.9730    6.1600 hx        1 PC5      0.103700
     59 H21        12.1600   -0.2170    3.1720 hx        1 PC5      0.103700
     60 H22        13.8550    0.1910    3.7450 hx        1 PC5      0.103700
     61 H23        13.3250   -1.5580    3.6530 hx        1 PC5      0.103700
     62 H31        13.0440    1.6340    5.3740 hx        1 PC5      0.103700
     63 H32        11.2900    1.3180    4.9040 hx        1 PC5      0.103700
     64 H33        11.8350    1.0970    6.6560 hx        1 PC5      0.103700
@<TRIPOS>BOND
     1    1    2 1   
     2    1   29 1   
     3    1   30 1   
     4    1   31 1   
     5    2    3 1   
     6    2   32 1   
     7    2   33 1   
     8    3    4 1   
     9    3   34 1   
    10    3   35 1   
    11    4    5 1   
    12    4   36 1   
    13    4   37 1   
    14    5    6 2   
    15    5    7 1   
    16    7    8 1   
    17    8    9 1   
    18    8   38 1   
    19    8   39 1   
    20    9   10 1   
    21    9   17 1   
    22    9   40 1   
    23   10   11 1   
    24   11   12 2   
    25   11   13 1   
    26   13   14 1   
    27   13   41 1   
    28   13   42 1   
    29   14   15 1   
    30   14   43 1   
    31   14   44 1   
    32   15   16 1   
    33   15   45 1   
    34   15   46 1   
    35   16   47 1   
    36   16   48 1   
    37   16   49 1   
    38   17   18 1   
    39   17   50 1   
    40   17   51 1   
    41   18   19 1   
    42   19   20 1   
    43   19   21 1   
    44   19   22 1   
    45   22   23 1   
    46   23   24 1   
    47   23   52 1   
    48   23   53 1   
    49   24   25 1   
    50   24   54 1   
    51   24   55 1   
    52   25   26 1   
    53   25   27 1   
    54   25   28 1   
    55   26   56 1   
    56   26   57 1   
    57   26   58 1   
    58   27   59 1   
    59   27   60 1   
    60   27   61 1   
    61   28   62 1   
    62   28   63 1   
    63   28   64 1   
@<TRIPOS>SUBSTRUCTURE
     1 PC5         1 TEMP              0 ****  ****    0 ROOT
