@<TRIPOS>MOLECULE
PC6
  145   144     1     0     0
SMALL
bcc


@<TRIPOS>ATOM
      1 OP2        -0.6410    2.3450    0.8030 o         1 PC6     -0.814000
      2 P           0.8190    2.2830    0.5570 p5        1 PC6      1.438800
      3 OP3         1.9000    3.1280    1.0620 o         1 PC6     -0.814000
      4 OP4         0.8660    2.2670   -1.1170 os        1 PC6     -0.578200
      5 CE1        -0.1720    2.8730   -1.7940 c3        1 PC6      0.197400
      6 CE2        -0.9570    1.8510   -2.6380 c3        1 PC6      0.079800
      7 NM3        -2.0520    1.0710   -1.9580 n4        1 PC6     -0.576800
      8 CM3        -2.9640    1.9690   -1.1930 c3        1 PC6      0.075433
      9 CM2        -2.8340    0.3740   -3.0240 c3        1 PC6      0.075433
     10 CM1        -1.4890    0.0350   -1.0420 c3        1 PC6      0.075433
     11 OP1         1.2170    0.6990    0.6950 os        1 PC6     -0.580200
     12 C39         2.5840    0.4500    0.5080 c3        1 PC6      0.175400
     13 C38         2.7690   -1.0690    0.4230 c3        1 PC6      0.135100
     14 C40         2.1660   -1.6630   -0.8480 c3        1 PC6      0.113400
     15 O40         2.8460   -1.1140   -1.9850 os        1 PC6     -0.419900
     16 C26         2.1130   -0.6640   -3.0380 c         1 PC6      0.664100
     17 O26         0.8880   -0.8430   -3.0510 o         1 PC6     -0.609000
     18 C27         2.9610    0.0170   -4.0690 c3        1 PC6     -0.135400
     19 C28         2.3930   -0.1630   -5.4590 c3        1 PC6     -0.075400
     20 C29         3.1790    0.6450   -6.4690 c3        1 PC6     -0.081400
     21 C30         2.6260    0.4590   -7.8660 c3        1 PC6     -0.077400
     22 C31         3.4050    1.2730   -8.8770 c3        1 PC6     -0.079400
     23 C32         2.8530    1.0880  -10.2740 c3        1 PC6     -0.078400
     24 C33         3.6300    1.9040  -11.2840 c3        1 PC6     -0.079400
     25 C34         3.0780    1.7190  -12.6810 c3        1 PC6     -0.078400
     26 C35         3.8550    2.5370  -13.6910 c3        1 PC6     -0.079400
     27 C36         3.3040    2.3530  -15.0890 c3        1 PC6     -0.080400
     28 C37         4.0740    3.1660  -16.0980 c3        1 PC6     -0.093100
     29 O38         4.1890   -1.2820    0.4750 os        1 PC6     -0.426900
     30 C1          4.6350   -2.5200    0.8420 c         1 PC6      0.638100
     31 O1          3.8090   -3.4080    1.0680 o         1 PC6     -0.555000
     32 C2          6.1300   -2.5950    0.8880 c3        1 PC6     -0.127400
     33 C3          6.5950   -3.4210    2.0690 c3        1 PC6     -0.079400
     34 C4          8.0960   -3.6070    2.0370 c3        1 PC6     -0.078400
     35 C5          8.5700   -4.4130    3.2270 c3        1 PC6     -0.079400
     36 C6         10.0710   -4.6050    3.1970 c3        1 PC6     -0.079400
     37 C7         10.5460   -5.4080    4.3880 c3        1 PC6     -0.079400
     38 C8         12.0470   -5.5990    4.3610 c3        1 PC6     -0.078400
     39 C9         12.5210   -6.4000    5.5540 c3        1 PC6     -0.079400
     40 C10        14.0230   -6.5900    5.5270 c3        1 PC6     -0.079400
     41 C11        14.4970   -7.3900    6.7210 c3        1 PC6     -0.079400
     42 C12        15.9980   -7.5780    6.6960 c3        1 PC6     -0.079400
     43 C13        16.4720   -8.3770    7.8910 c3        1 PC6     -0.079400
     44 C14        17.9740   -8.5650    7.8660 c3        1 PC6     -0.079400
     45 C15        18.4480   -9.3610    9.0630 c3        1 PC6     -0.079400
     46 C16        19.9500   -9.5480    9.0390 c3        1 PC6     -0.079400
     47 C17        20.4240  -10.3430   10.2360 c3        1 PC6     -0.079400
     48 C18        21.9260  -10.5300   10.2120 c3        1 PC6     -0.079400
     49 C19        22.4000  -11.3240   11.4110 c3        1 PC6     -0.079400
     50 C20        23.9020  -11.5110   11.3870 c3        1 PC6     -0.079400
     51 C21        24.3760  -12.3030   12.5860 c3        1 PC6     -0.079400
     52 C22        25.8780  -12.4900   12.5620 c3        1 PC6     -0.079400
     53 C23        26.3530  -13.2820   13.7620 c3        1 PC6     -0.079400
     54 C24        27.8550  -13.4700   13.7390 c3        1 PC6     -0.080400
     55 C25        28.3320  -14.2570   14.9320 c3        1 PC6     -0.092100
     56 HE11        0.2720    3.5900   -2.5490 h1        1 PC6      0.053200
     57 HE12       -0.8470    3.4400   -1.0950 h1        1 PC6      0.053200
     58 HE21       -0.2210    1.0940   -3.0430 hx        1 PC6      0.091200
     59 HE22       -1.4420    2.4080   -3.4880 hx        1 PC6      0.091200
     60 HM31       -2.4510    2.3120   -0.2410 hx        1 PC6      0.100811
     61 HM32       -3.8910    1.4020   -0.9210 hx        1 PC6      0.100811
     62 HM33       -3.2280    2.8520   -1.8280 hx        1 PC6      0.100811
     63 HM21       -2.1370   -0.2620   -3.6320 hx        1 PC6      0.100811
     64 HM22       -3.3310    1.1320   -3.6820 hx        1 PC6      0.100811
     65 HM23       -3.6140   -0.2760   -2.5480 hx        1 PC6      0.100811
     66 HM11       -0.8180   -0.6500   -1.6270 hx        1 PC6      0.100811
     67 HM12       -0.8910    0.5500   -0.2290 hx        1 PC6      0.100811
     68 HM13       -2.3330   -0.5370   -0.5790 hx        1 PC6      0.100811
     69 H391        2.9250    0.9410   -0.4440 h1        1 PC6      0.056700
     70 H392        3.1600    0.8750    1.3730 h1        1 PC6      0.056700
     71 H38         2.2770   -1.5730    1.3020 h1        1 PC6      0.087700
     72 H401        1.0710   -1.4230   -0.8730 h1        1 PC6      0.074700
     73 H402        2.3390   -2.7710   -0.8870 h1        1 PC6      0.074700
     74 H271        4.0090   -0.3820   -4.0140 hc        1 PC6      0.088700
     75 H272        2.9980    1.1070   -3.7930 hc        1 PC6      0.088700
     76 H281        2.4190   -1.2490   -5.7400 hc        1 PC6      0.049200
     77 H282        1.3170    0.1540   -5.4680 hc        1 PC6      0.049200
     78 H291        3.1440    1.7320   -6.1920 hc        1 PC6      0.044700
     79 H292        4.2560    0.3320   -6.4460 hc        1 PC6      0.044700
     80 H301        2.6680   -0.6270   -8.1460 hc        1 PC6      0.039200
     81 H302        1.5470    0.7640   -7.8880 hc        1 PC6      0.039200
     82 H311        4.4840    0.9670   -8.8550 hc        1 PC6      0.041700
     83 H312        3.3640    2.3590   -8.5970 hc        1 PC6      0.041700
     84 H321        1.7730    1.3920  -10.2950 hc        1 PC6      0.038700
     85 H322        2.8960    0.0020  -10.5540 hc        1 PC6      0.038700
     86 H331        4.7100    1.6000  -11.2630 hc        1 PC6      0.040700
     87 H332        3.5870    2.9900  -11.0030 hc        1 PC6      0.040700
     88 H341        3.1220    0.6340  -12.9620 hc        1 PC6      0.039200
     89 H342        1.9980    2.0230  -12.7020 hc        1 PC6      0.039200
     90 H351        4.9350    2.2340  -13.6700 hc        1 PC6      0.040200
     91 H352        3.8110    3.6220  -13.4100 hc        1 PC6      0.040200
     92 H361        2.2230    2.6550  -15.1080 hc        1 PC6      0.038200
     93 H362        3.3470    1.2670  -15.3680 hc        1 PC6      0.038200
     94 H371        4.0210    4.2540  -15.8510 hc        1 PC6      0.032700
     95 H372        5.1480    2.8620  -16.1120 hc        1 PC6      0.032700
     96 H373        3.6520    3.0160  -17.1210 hc        1 PC6      0.032700
     97 H21         6.4710   -3.0630   -0.0750 hc        1 PC6      0.078700
     98 H22         6.5590   -1.5590    0.9370 hc        1 PC6      0.078700
     99 H31         6.2960   -2.9120    3.0230 hc        1 PC6      0.057700
    100 H32         6.0820   -4.4200    2.0510 hc        1 PC6      0.057700
    101 H41         8.3920   -4.1280    1.0880 hc        1 PC6      0.040700
    102 H42         8.6010   -2.6050    2.0360 hc        1 PC6      0.040700
    103 H51         8.0630   -5.4140    3.2290 hc        1 PC6      0.042700
    104 H52         8.2760   -3.8920    4.1760 hc        1 PC6      0.042700
    105 H61        10.5780   -3.6040    3.1920 hc        1 PC6      0.039700
    106 H62        10.3660   -5.1280    2.2490 hc        1 PC6      0.039700
    107 H71        10.0390   -6.4100    4.3920 hc        1 PC6      0.040200
    108 H72        10.2500   -4.8850    5.3360 hc        1 PC6      0.040200
    109 H81        12.5530   -4.5970    4.3550 hc        1 PC6      0.039200
    110 H82        12.3420   -6.1230    3.4140 hc        1 PC6      0.039200
    111 H91        12.0160   -7.4020    5.5590 hc        1 PC6      0.039700
    112 H92        12.2250   -5.8760    6.5000 hc        1 PC6      0.039700
    113 H101       14.3190   -7.1150    4.5810 hc        1 PC6      0.039200
    114 H102       14.5280   -5.5880    5.5210 hc        1 PC6      0.039200
    115 H111       13.9920   -8.3920    6.7270 hc        1 PC6      0.039700
    116 H112       14.2000   -6.8650    7.6680 hc        1 PC6      0.039700
    117 H121       16.2950   -8.1040    5.7500 hc        1 PC6      0.039700
    118 H122       16.5030   -6.5770    6.6890 hc        1 PC6      0.039700
    119 H131       16.1740   -7.8510    8.8370 hc        1 PC6      0.039700
    120 H132       15.9680   -9.3790    7.8980 hc        1 PC6      0.039700
    121 H141       18.2710   -9.0920    6.9220 hc        1 PC6      0.039700
    122 H142       18.4780   -7.5620    7.8580 hc        1 PC6      0.039700
    123 H151       17.9440  -10.3640    9.0710 hc        1 PC6      0.039700
    124 H152       18.1500   -8.8340   10.0080 hc        1 PC6      0.039700
    125 H161       20.2480  -10.0760    8.0950 hc        1 PC6      0.039700
    126 H162       20.4540   -8.5460    9.0290 hc        1 PC6      0.039700
    127 H171       19.9200  -11.3460   10.2450 hc        1 PC6      0.039700
    128 H172       20.1260   -9.8150   11.1800 hc        1 PC6      0.039700
    129 H181       22.2240  -11.0590    9.2690 hc        1 PC6      0.039700
    130 H182       22.4300   -9.5280   10.2020 hc        1 PC6      0.039700
    131 H191       22.1020  -10.7950   12.3540 hc        1 PC6      0.039700
    132 H192       21.8960  -12.3270   11.4210 hc        1 PC6      0.039700
    133 H201       24.4050  -10.5080   11.3760 hc        1 PC6      0.039700
    134 H202       24.2000  -12.0410   10.4440 hc        1 PC6      0.039700
    135 H211       24.0780  -11.7730   13.5290 hc        1 PC6      0.039700
    136 H212       23.8730  -13.3060   12.5970 hc        1 PC6      0.039700
    137 H221       26.3820  -11.4880   12.5500 hc        1 PC6      0.039700
    138 H222       26.1760  -13.0210   11.6200 hc        1 PC6      0.039700
    139 H231       26.0550  -12.7510   14.7050 hc        1 PC6      0.039700
    140 H232       25.8490  -14.2840   13.7740 hc        1 PC6      0.039700
    141 H241       28.1510  -13.9990   12.7950 hc        1 PC6      0.038700
    142 H242       28.3560  -12.4660   13.7250 hc        1 PC6      0.038700
    143 H251       28.0680  -13.7330   15.8820 hc        1 PC6      0.032700
    144 H252       27.8610  -15.2700   14.9500 hc        1 PC6      0.032700
    145 H253       29.4410  -14.3840   14.8960 hc        1 PC6      0.032700
@<TRIPOS>BOND
     1    1    2 1   
     2    2    3 1   
     3    2    4 1   
     4    2   11 1   
     5    4    5 1   
     6    5    6 1   
     7    5   56 1   
     8    5   57 1   
     9    6    7 1   
    10    6   58 1   
    11    6   59 1   
    12    7    8 1   
    13    7    9 1   
    14    7   10 1   
    15    8   60 1   
    16    8   61 1   
    17    8   62 1   
    18    9   63 1   
    19    9   64 1   
    20    9   65 1   
    21   10   66 1   
    22   10   67 1   
    23   10   68 1   
    24   11   12 1   
    25   12   13 1   
    26   12   69 1   
    27   12   70 1   
    28   13   14 1   
    29   13   29 1   
    30   13   71 1   
    31   14   15 1   
    32   14   72 1   
    33   14   73 1   
    34   15   16 1   
    35   16   17 2   
    36   16   18 1   
    37   18   19 1   
    38   18   74 1   
    39   18   75 1   
    40   19   20 1   
    41   19   76 1   
    42   19   77 1   
    43   20   21 1   
    44   20   78 1   
    45   20   79 1   
    46   21   22 1   
    47   21   80 1   
    48   21   81 1   
    49   22   23 1   
    50   22   82 1   
    51   22   83 1   
    52   23   24 1   
    53   23   84 1   
    54   23   85 1   
    55   24   25 1   
    56   24   86 1   
    57   24   87 1   
    58   25   26 1   
    59   25   88 1   
    60   25   89 1   
    61   26   27 1   
    62   26   90 1   
    63   26   91 1   
    64   27   28 1   
    65   27   92 1   
    66   27   93 1   
    67   28   94 1   
    68   28   95 1   
    69   28   96 1   
    70   29   30 1   
    71   30   31 2   
    72   30   32 1   
    73   32   33 1   
    74   32   97 1   
    75   32   98 1   
    76   33   34 1   
    77   33   99 1   
    78   33  100 1   
    79   34   35 1   
    80   34  101 1   
    81   34  102 1   
    82   35   36 1   
    83   35  103 1   
    84   35  104 1   
    85   36   37 1   
    86   36  105 1   
    87   36  106 1   
    88   37   38 1   
    89   37  107 1   
    90   37  108 1   
    91   38   39 1   
    92   38  109 1   
    93   38  110 1   
    94   39   40 1   
    95   39  111 1   
    96   39  112 1   
    97   40   41 1   
    98   40  113 1   
    99   40  114 1   
   100   41   42 1   
   101   41  115 1   
   102   41  116 1   
   103   42   43 1   
   104   42  117 1   
   105   42  118 1   
   106   43   44 1   
   107   43  119 1   
   108   43  120 1   
   109   44   45 1   
   110   44  121 1   
   111   44  122 1   
   112   45   46 1   
   113   45  123 1   
   114   45  124 1   
   115   46   47 1   
   116   46  125 1   
   117   46  126 1   
   118   47   48 1   
   119   47  127 1   
   120   47  128 1   
   121   48   49 1   
   122   48  129 1   
   123   48  130 1   
   124   49   50 1   
   125   49  131 1   
   126   49  132 1   
   127   50   51 1   
   128   50  133 1   
   129   50  134 1   
   130   51   52 1   
   131   51  135 1   
   132   51  136 1   
   133   52   53 1   
   134   52  137 1   
   135   52  138 1   
   136   53   54 1   
   137   53  139 1   
   138   53  140 1   
   139   54   55 1   
   140   54  141 1   
   141   54  142 1   
   142   55  143 1   
   143   55  144 1   
   144   55  145 1   
@<TRIPOS>SUBSTRUCTURE
     1 PC6         1 TEMP              0 ****  ****    0 ROOT
