@<TRIPOS>MOLECULE
PC6
  145   144     1     0     0
SMALL
bcc


@<TRIPOS>ATOM
      1 OP2        -0.4980    2.5260    0.7540 o         1 PC6     -0.814000
      2 P           0.9560    2.4260    0.4910 p5        1 PC6      1.438800
      3 OP3         2.0620    3.2610    0.9590 o         1 PC6     -0.814000
      4 OP4         0.9810    2.3650   -1.1820 os        1 PC6     -0.578200
      5 CE1        -0.0520    2.9770   -1.8620 c3        1 PC6      0.197400
      6 CE2        -0.8710    1.9520   -2.6690 c3        1 PC6      0.079800
      7 NM3        -1.9740    1.2140   -1.9550 n4        1 PC6     -0.576800
      8 CM3        -2.8550    2.1500   -1.2020 c3        1 PC6      0.075433
      9 CM2        -2.7840    0.5070   -2.9920 c3        1 PC6      0.075433
     10 CM1        -1.4210    0.1890   -1.0200 c3        1 PC6      0.075433
     11 OP1         1.3230    0.8380    0.6660 os        1 PC6     -0.580200
     12 C39         2.6810    0.5550    0.4680 c3        1 PC6      0.175400
     13 C38         2.8320   -0.9700    0.4210 c3        1 PC6      0.135100
     14 C40         2.2010   -1.5830   -0.8270 c3        1 PC6      0.113400
     15 O40         2.8770   -1.0760   -1.9870 os        1 PC6     -0.420900
     16 C26         2.1390   -0.6370   -3.0410 c         1 PC6      0.664100
     17 O26         0.9100   -0.7910   -3.0340 o         1 PC6     -0.609000
     18 C27         2.9870    0.0030   -4.0970 c3        1 PC6     -0.135400
     19 C28         2.3840   -0.1740   -5.4730 c3        1 PC6     -0.075400
     20 C29         3.1760    0.5920   -6.5100 c3        1 PC6     -0.081400
     21 C30         2.5860    0.4100   -7.8920 c3        1 PC6     -0.077400
     22 C31         3.3730    1.1820   -8.9300 c3        1 PC6     -0.079400
     23 C32         2.7830    1.0010  -10.3120 c3        1 PC6     -0.078400
     24 C33         3.5680    1.7750  -11.3500 c3        1 PC6     -0.079400
     25 C34         2.9780    1.5950  -12.7320 c3        1 PC6     -0.078400
     26 C35         3.7630    2.3700  -13.7690 c3        1 PC6     -0.079400
     27 C36         3.1730    2.1910  -15.1520 c3        1 PC6     -0.079400
     28 C37         3.9510    2.9610  -16.1880 c3        1 PC6     -0.093100
     29 O38         4.2480   -1.2120    0.4610 os        1 PC6     -0.426900
     30 C1          4.6710   -2.4500    0.8540 c         1 PC6      0.637100
     31 O1          3.8290   -3.3140    1.1130 o         1 PC6     -0.555000
     32 C2          6.1650   -2.5570    0.8840 c3        1 PC6     -0.127400
     33 C3          6.6270   -3.3570    2.0830 c3        1 PC6     -0.079400
     34 C4          8.1230   -3.5780    2.0370 c3        1 PC6     -0.078400
     35 C5          8.5950   -4.3590    3.2450 c3        1 PC6     -0.079400
     36 C6         10.0910   -4.5870    3.2020 c3        1 PC6     -0.078400
     37 C7         10.5630   -5.3640    4.4120 c3        1 PC6     -0.079400
     38 C8         12.0590   -5.5920    4.3690 c3        1 PC6     -0.078400
     39 C9         12.5300   -6.3660    5.5820 c3        1 PC6     -0.079400
     40 C10        14.0260   -6.5940    5.5400 c3        1 PC6     -0.078400
     41 C11        14.4980   -7.3660    6.7540 c3        1 PC6     -0.079400
     42 C12        15.9940   -7.5940    6.7130 c3        1 PC6     -0.079400
     43 C13        16.4650   -8.3640    7.9280 c3        1 PC6     -0.079400
     44 C14        17.9610   -8.5920    7.8880 c3        1 PC6     -0.079400
     45 C15        18.4320   -9.3610    9.1040 c3        1 PC6     -0.079400
     46 C16        19.9270   -9.5890    9.0650 c3        1 PC6     -0.079400
     47 C17        20.3980  -10.3570   10.2810 c3        1 PC6     -0.079400
     48 C18        21.8940  -10.5850   10.2430 c3        1 PC6     -0.079400
     49 C19        22.3640  -11.3520   11.4600 c3        1 PC6     -0.079400
     50 C20        23.8600  -11.5790   11.4230 c3        1 PC6     -0.079400
     51 C21        24.3310  -12.3450   12.6400 c3        1 PC6     -0.079400
     52 C22        25.8270  -12.5730   12.6030 c3        1 PC6     -0.079400
     53 C23        26.2970  -13.3390   13.8210 c3        1 PC6     -0.079400
     54 C24        27.7930  -13.5670   13.7840 c3        1 PC6     -0.080400
     55 C25        28.2660  -14.3290   14.9950 c3        1 PC6     -0.092100
     56 HE11        0.3970    3.6630   -2.6410 h1        1 PC6      0.053200
     57 HE12       -0.7060    3.5770   -1.1700 h1        1 PC6      0.053200
     58 HE21       -0.1570    1.1690   -3.0640 hx        1 PC6      0.091200
     59 HE22       -1.3550    2.4970   -3.5270 hx        1 PC6      0.091200
     60 HM31       -3.1090    3.0220   -1.8560 hx        1 PC6      0.100811
     61 HM32       -3.7910    1.6110   -0.9030 hx        1 PC6      0.100811
     62 HM33       -2.3220    2.5070   -0.2660 hx        1 PC6      0.100811
     63 HM21       -2.1100   -0.1600   -3.5920 hx        1 PC6      0.100811
     64 HM22       -3.5720   -0.1140   -2.4900 hx        1 PC6      0.100811
     65 HM23       -3.2740    1.2580   -3.6640 hx        1 PC6      0.100811
     66 HM11       -0.7720   -0.5250   -1.5950 hx        1 PC6      0.100811
     67 HM12       -2.2700   -0.3520   -0.5320 hx        1 PC6      0.100811
     68 HM13       -0.8010    0.7120   -0.2280 hx        1 PC6      0.100811
     69 H391        3.2770    0.9890    1.3150 h1        1 PC6      0.056700
     70 H392        3.0200    1.0140   -0.4990 h1        1 PC6      0.056700
     71 H38         2.3400   -1.4410    1.3180 h1        1 PC6      0.087700
     72 H401        2.3500   -2.6950   -0.8410 h1        1 PC6      0.074700
     73 H402        1.1100   -1.3210   -0.8440 h1        1 PC6      0.074700
     74 H271        4.0210   -0.4310   -4.0600 hc        1 PC6      0.088700
     75 H272        3.0670    1.0940   -3.8370 hc        1 PC6      0.088700
     76 H281        2.3640   -1.2640   -5.7400 hc        1 PC6      0.048700
     77 H282        1.3190    0.1820   -5.4630 hc        1 PC6      0.048700
     78 H291        4.2420    0.2400   -6.5060 hc        1 PC6      0.044700
     79 H292        3.1870    1.6830   -6.2470 hc        1 PC6      0.044700
     80 H301        2.5810   -0.6800   -8.1590 hc        1 PC6      0.039200
     81 H302        1.5190    0.7550   -7.8950 hc        1 PC6      0.039200
     82 H311        3.3790    2.2720   -8.6630 hc        1 PC6      0.041700
     83 H312        4.4400    0.8350   -8.9280 hc        1 PC6      0.041700
     84 H321        2.7780   -0.0880  -10.5800 hc        1 PC6      0.038700
     85 H322        1.7160    1.3460  -10.3140 hc        1 PC6      0.038700
     86 H331        4.6350    1.4290  -11.3480 hc        1 PC6      0.040700
     87 H332        3.5740    2.8640  -11.0820 hc        1 PC6      0.040700
     88 H341        2.9730    0.5060  -13.0000 hc        1 PC6      0.039200
     89 H342        1.9110    1.9410  -12.7330 hc        1 PC6      0.039200
     90 H351        4.8300    2.0240  -13.7680 hc        1 PC6      0.040200
     91 H352        3.7680    3.4590  -13.5010 hc        1 PC6      0.040200
     92 H361        2.1050    2.5360  -15.1500 hc        1 PC6      0.038200
     93 H362        3.1670    1.1010  -15.4180 hc        1 PC6      0.038200
     94 H371        5.0130    2.6140  -16.2220 hc        1 PC6      0.032700
     95 H372        3.9480    4.0530  -15.9540 hc        1 PC6      0.032700
     96 H373        3.5010    2.8160  -17.1990 hc        1 PC6      0.032700
     97 H21         6.6170   -1.5300    0.8980 hc        1 PC6      0.078700
     98 H22         6.4840   -3.0600   -0.0690 hc        1 PC6      0.078700
     99 H31         6.3530   -2.8140    3.0260 hc        1 PC6      0.057700
    100 H32         6.0920   -4.3450    2.1020 hc        1 PC6      0.057700
    101 H41         8.6500   -2.5880    2.0000 hc        1 PC6      0.040700
    102 H42         8.3950   -4.1340    1.1010 hc        1 PC6      0.040700
    103 H51         8.0650   -5.3470    3.2850 hc        1 PC6      0.042700
    104 H52         8.3260   -3.8020    4.1810 hc        1 PC6      0.042700
    105 H61        10.3600   -5.1460    2.2670 hc        1 PC6      0.039700
    106 H62        10.6210   -3.5980    3.1590 hc        1 PC6      0.039700
    107 H71        10.0330   -6.3510    4.4550 hc        1 PC6      0.040200
    108 H72        10.2940   -4.8040    5.3460 hc        1 PC6      0.040200
    109 H81        12.5890   -4.6040    4.3240 hc        1 PC6      0.039200
    110 H82        12.3270   -6.1530    3.4360 hc        1 PC6      0.039200
    111 H91        12.2610   -5.8040    6.5150 hc        1 PC6      0.039700
    112 H92        12.0000   -7.3540    5.6270 hc        1 PC6      0.039700
    113 H101       14.5560   -5.6060    5.4930 hc        1 PC6      0.039200
    114 H102       14.2950   -7.1580    4.6080 hc        1 PC6      0.039200
    115 H111       14.2290   -6.8020    7.6860 hc        1 PC6      0.039700
    116 H112       13.9680   -8.3540    6.8000 hc        1 PC6      0.039700
    117 H121       16.5230   -6.6060    6.6650 hc        1 PC6      0.039700
    118 H122       16.2630   -8.1590    5.7820 hc        1 PC6      0.039700
    119 H131       15.9350   -9.3520    7.9760 hc        1 PC6      0.039700
    120 H132       16.1950   -7.8000    8.8590 hc        1 PC6      0.039700
    121 H141       18.2300   -9.1580    6.9580 hc        1 PC6      0.039700
    122 H142       18.4910   -7.6050    7.8390 hc        1 PC6      0.039700
    123 H151       17.9020  -10.3490    9.1530 hc        1 PC6      0.039700
    124 H152       18.1620   -8.7950   10.0340 hc        1 PC6      0.039700
    125 H161       20.4570   -8.6020    9.0150 hc        1 PC6      0.039700
    126 H162       20.1970  -10.1560    8.1350 hc        1 PC6      0.039700
    127 H171       20.1280   -9.7910   11.2110 hc        1 PC6      0.039700
    128 H172       19.8680  -11.3450   10.3310 hc        1 PC6      0.039700
    129 H181       22.4240   -9.5970   10.1930 hc        1 PC6      0.039700
    130 H182       22.1640  -11.1520    9.3140 hc        1 PC6      0.039700
    131 H191       21.8350  -12.3400   11.5100 hc        1 PC6      0.039700
    132 H192       22.0940  -10.7850   12.3900 hc        1 PC6      0.039700
    133 H201       24.3900  -10.5910   11.3720 hc        1 PC6      0.039700
    134 H202       24.1310  -12.1470   10.4930 hc        1 PC6      0.039700
    135 H211       24.0600  -11.7780   13.5700 hc        1 PC6      0.039700
    136 H212       23.8010  -13.3330   12.6910 hc        1 PC6      0.039700
    137 H221       26.3560  -11.5850   12.5520 hc        1 PC6      0.039700
    138 H222       26.0970  -13.1410   11.6740 hc        1 PC6      0.039700
    139 H231       25.7680  -14.3260   13.8720 hc        1 PC6      0.039700
    140 H232       26.0270  -12.7710   14.7500 hc        1 PC6      0.039700
    141 H241       28.3210  -12.5780   13.7310 hc        1 PC6      0.038700
    142 H242       28.0620  -14.1340   12.8540 hc        1 PC6      0.038700
    143 H251       28.0290  -13.7680   15.9310 hc        1 PC6      0.032700
    144 H252       27.7700  -15.3280   15.0520 hc        1 PC6      0.032700
    145 H253       29.3710  -14.4870   14.9480 hc        1 PC6      0.032700
@<TRIPOS>BOND
     1    1    2 1   
     2    2    3 1   
     3    2    4 1   
     4    2   11 1   
     5    4    5 1   
     6    5    6 1   
     7    5   56 1   
     8    5   57 1   
     9    6    7 1   
    10    6   58 1   
    11    6   59 1   
    12    7    8 1   
    13    7    9 1   
    14    7   10 1   
    15    8   60 1   
    16    8   61 1   
    17    8   62 1   
    18    9   63 1   
    19    9   64 1   
    20    9   65 1   
    21   10   66 1   
    22   10   67 1   
    23   10   68 1   
    24   11   12 1   
    25   12   13 1   
    26   12   69 1   
    27   12   70 1   
    28   13   14 1   
    29   13   29 1   
    30   13   71 1   
    31   14   15 1   
    32   14   72 1   
    33   14   73 1   
    34   15   16 1   
    35   16   17 2   
    36   16   18 1   
    37   18   19 1   
    38   18   74 1   
    39   18   75 1   
    40   19   20 1   
    41   19   76 1   
    42   19   77 1   
    43   20   21 1   
    44   20   78 1   
    45   20   79 1   
    46   21   22 1   
    47   21   80 1   
    48   21   81 1   
    49   22   23 1   
    50   22   82 1   
    51   22   83 1   
    52   23   24 1   
    53   23   84 1   
    54   23   85 1   
    55   24   25 1   
    56   24   86 1   
    57   24   87 1   
    58   25   26 1   
    59   25   88 1   
    60   25   89 1   
    61   26   27 1   
    62   26   90 1   
    63   26   91 1   
    64   27   28 1   
    65   27   92 1   
    66   27   93 1   
    67   28   94 1   
    68   28   95 1   
    69   28   96 1   
    70   29   30 1   
    71   30   31 2   
    72   30   32 1   
    73   32   33 1   
    74   32   97 1   
    75   32   98 1   
    76   33   34 1   
    77   33   99 1   
    78   33  100 1   
    79   34   35 1   
    80   34  101 1   
    81   34  102 1   
    82   35   36 1   
    83   35  103 1   
    84   35  104 1   
    85   36   37 1   
    86   36  105 1   
    87   36  106 1   
    88   37   38 1   
    89   37  107 1   
    90   37  108 1   
    91   38   39 1   
    92   38  109 1   
    93   38  110 1   
    94   39   40 1   
    95   39  111 1   
    96   39  112 1   
    97   40   41 1   
    98   40  113 1   
    99   40  114 1   
   100   41   42 1   
   101   41  115 1   
   102   41  116 1   
   103   42   43 1   
   104   42  117 1   
   105   42  118 1   
   106   43   44 1   
   107   43  119 1   
   108   43  120 1   
   109   44   45 1   
   110   44  121 1   
   111   44  122 1   
   112   45   46 1   
   113   45  123 1   
   114   45  124 1   
   115   46   47 1   
   116   46  125 1   
   117   46  126 1   
   118   47   48 1   
   119   47  127 1   
   120   47  128 1   
   121   48   49 1   
   122   48  129 1   
   123   48  130 1   
   124   49   50 1   
   125   49  131 1   
   126   49  132 1   
   127   50   51 1   
   128   50  133 1   
   129   50  134 1   
   130   51   52 1   
   131   51  135 1   
   132   51  136 1   
   133   52   53 1   
   134   52  137 1   
   135   52  138 1   
   136   53   54 1   
   137   53  139 1   
   138   53  140 1   
   139   54   55 1   
   140   54  141 1   
   141   54  142 1   
   142   55  143 1   
   143   55  144 1   
   144   55  145 1   
@<TRIPOS>SUBSTRUCTURE
     1 PC6         1 TEMP              0 ****  ****    0 ROOT
