@<TRIPOS>MOLECULE
PC6
  145   144     1     0     0
SMALL
bcc


@<TRIPOS>ATOM
      1 OP2        -5.9420   -5.0890    2.9500 o         1 PC6     -0.819500
      2 P          -6.4630   -3.8080    2.4240 p5        1 PC6      1.428800
      3 OP3        -6.6960   -2.6020    3.2320 o         1 PC6     -0.819500
      4 OP4        -7.9960   -4.2750    1.9120 os        1 PC6     -0.577200
      5 CE1        -9.0040   -4.1450    2.8450 c3        1 PC6      0.190400
      6 CE2        -9.7210   -5.4900    3.0800 c3        1 PC6      0.086800
      7 NM3        -8.8930   -6.6110    3.6500 n4        1 PC6     -0.581800
      8 CM3        -8.0690   -6.1330    4.7980 c3        1 PC6      0.076767
      9 CM2        -9.8200   -7.6770    4.1300 c3        1 PC6      0.076767
     10 CM1        -8.0000   -7.1890    2.5990 c3        1 PC6      0.076767
     11 OP1        -5.8290   -3.4710    0.9720 os        1 PC6     -0.556200
     12 C39        -6.1860   -2.2010    0.4860 c3        1 PC6      0.169400
     13 C38        -5.4360   -1.9640   -0.8260 c3        1 PC6      0.145100
     14 C40        -6.2890   -1.2400   -1.8630 c3        1 PC6      0.115400
     15 O40        -6.8440   -0.0750   -1.2340 os        1 PC6     -0.433900
     16 C26        -7.6890    0.6890   -1.9890 c         1 PC6      0.631100
     17 O26        -7.9440    0.3210   -3.1380 o         1 PC6     -0.548000
     18 C27        -8.1680    1.9030   -1.2560 c3        1 PC6     -0.128400
     19 C28        -9.5790    2.2680   -1.6680 c3        1 PC6     -0.078400
     20 C29       -10.0050    3.5710   -1.0270 c3        1 PC6     -0.079400
     21 C30       -11.4210    3.9330   -1.4210 c3        1 PC6     -0.078400
     22 C31       -11.8510    5.2380   -0.7850 c3        1 PC6     -0.079400
     23 C32       -13.2670    5.6010   -1.1780 c3        1 PC6     -0.078400
     24 C33       -13.6960    6.9050   -0.5420 c3        1 PC6     -0.079400
     25 C34       -15.1120    7.2680   -0.9350 c3        1 PC6     -0.079400
     26 C35       -15.5420    8.5720   -0.2980 c3        1 PC6     -0.079400
     27 C36       -16.9580    8.9370   -0.6910 c3        1 PC6     -0.080400
     28 C37       -17.3900   10.2350   -0.0600 c3        1 PC6     -0.092100
     29 O38        -4.2900   -1.1650   -0.4780 os        1 PC6     -0.426900
     30 C1         -3.2020   -1.2140   -1.3020 c         1 PC6      0.636100
     31 O1         -3.2670   -1.8790   -2.3390 o         1 PC6     -0.554000
     32 C2         -2.0640   -0.3850   -0.7900 c3        1 PC6     -0.127400
     33 C3         -0.7370   -1.0630   -1.0580 c3        1 PC6     -0.079400
     34 C4          0.4150   -0.1640   -0.6640 c3        1 PC6     -0.078400
     35 C5          1.7450   -0.8430   -0.9110 c3        1 PC6     -0.079400
     36 C6          2.9000    0.0560   -0.5240 c3        1 PC6     -0.079400
     37 C7          4.2300   -0.6230   -0.7710 c3        1 PC6     -0.079400
     38 C8          5.3850    0.2760   -0.3850 c3        1 PC6     -0.079400
     39 C9          6.7150   -0.4030   -0.6310 c3        1 PC6     -0.079400
     40 C10         7.8710    0.4960   -0.2450 c3        1 PC6     -0.079400
     41 C11         9.2010   -0.1830   -0.4910 c3        1 PC6     -0.079400
     42 C12        10.3560    0.7160   -0.1060 c3        1 PC6     -0.079400
     43 C13        11.6870    0.0370   -0.3520 c3        1 PC6     -0.079400
     44 C14        12.8420    0.9360    0.0320 c3        1 PC6     -0.079400
     45 C15        14.1720    0.2580   -0.2130 c3        1 PC6     -0.079400
     46 C16        15.3270    1.1570    0.1710 c3        1 PC6     -0.079400
     47 C17        16.6580    0.4780   -0.0740 c3        1 PC6     -0.079400
     48 C18        17.8130    1.3780    0.3100 c3        1 PC6     -0.079400
     49 C19        19.1430    0.6990    0.0640 c3        1 PC6     -0.079400
     50 C20        20.2990    1.5980    0.4480 c3        1 PC6     -0.079400
     51 C21        21.6290    0.9200    0.2030 c3        1 PC6     -0.079400
     52 C22        22.7840    1.8190    0.5870 c3        1 PC6     -0.079400
     53 C23        24.1150    1.1410    0.3420 c3        1 PC6     -0.079400
     54 C24        25.2710    2.0390    0.7250 c3        1 PC6     -0.080400
     55 C25        26.5980    1.3680    0.4820 c3        1 PC6     -0.092100
     56 HE11       -8.6160   -3.7160    3.8120 h1        1 PC6      0.059200
     57 HE12       -9.8060   -3.4620    2.4380 h1        1 PC6      0.059200
     58 HE21      -10.5720   -5.3040    3.7940 hx        1 PC6      0.078700
     59 HE22      -10.1250   -5.8520    2.0940 hx        1 PC6      0.078700
     60 HM31       -8.7180   -5.5540    5.5030 hx        1 PC6      0.100144
     61 HM32       -7.6190   -7.0160    5.3200 hx        1 PC6      0.100144
     62 HM33       -7.2260   -5.4790    4.4010 hx        1 PC6      0.100144
     63 HM21      -10.4920   -7.9920    3.2890 hx        1 PC6      0.100144
     64 HM22       -9.2220   -8.5590    4.4790 hx        1 PC6      0.100144
     65 HM23      -10.4370   -7.2860    4.9790 hx        1 PC6      0.100144
     66 HM11       -7.3000   -6.3720    2.2240 hx        1 PC6      0.100144
     67 HM12       -7.3880   -8.0090    3.0530 hx        1 PC6      0.100144
     68 HM13       -8.6270   -7.5810    1.7600 hx        1 PC6      0.100144
     69 H391       -5.9220   -1.4220    1.2540 h1        1 PC6      0.061700
     70 H392       -7.2940   -2.1890    0.3030 h1        1 PC6      0.061700
     71 H38        -5.0930   -2.9420   -1.2680 h1        1 PC6      0.100700
     72 H401       -5.6640   -0.9200   -2.7370 h1        1 PC6      0.066700
     73 H402       -7.1230   -1.9010   -2.2140 h1        1 PC6      0.066700
     74 H271       -8.1130    1.7200   -0.1500 hc        1 PC6      0.080200
     75 H272       -7.4600    2.7410   -1.5000 hc        1 PC6      0.080200
     76 H281       -9.6310    2.3530   -2.7860 hc        1 PC6      0.055700
     77 H282      -10.2820    1.4480   -1.3660 hc        1 PC6      0.055700
     78 H291       -9.9350    3.4830    0.0890 hc        1 PC6      0.041200
     79 H292       -9.3070    4.3910   -1.3390 hc        1 PC6      0.041200
     80 H301      -11.4910    4.0180   -2.5380 hc        1 PC6      0.041700
     81 H302      -12.1200    3.1140   -1.1070 hc        1 PC6      0.041700
     82 H311      -11.7800    5.1530    0.3320 hc        1 PC6      0.040200
     83 H312      -11.1520    6.0570   -1.0990 hc        1 PC6      0.040200
     84 H321      -13.3370    5.6860   -2.2940 hc        1 PC6      0.039700
     85 H322      -13.9660    4.7810   -0.8650 hc        1 PC6      0.039700
     86 H331      -13.6260    6.8200    0.5750 hc        1 PC6      0.039700
     87 H332      -12.9970    7.7240   -0.8550 hc        1 PC6      0.039700
     88 H341      -15.1820    7.3530   -2.0510 hc        1 PC6      0.039200
     89 H342      -15.8110    6.4480   -0.6220 hc        1 PC6      0.039200
     90 H351      -15.4720    8.4870    0.8180 hc        1 PC6      0.039700
     91 H352      -14.8430    9.3920   -0.6110 hc        1 PC6      0.039700
     92 H361      -17.0260    9.0200   -1.8080 hc        1 PC6      0.038200
     93 H362      -17.6550    8.1150   -0.3790 hc        1 PC6      0.038200
     94 H371      -18.4360   10.4840   -0.3620 hc        1 PC6      0.032367
     95 H372      -17.3530   10.1630    1.0540 hc        1 PC6      0.032367
     96 H373      -16.7220   11.0700   -0.3790 hc        1 PC6      0.032367
     97 H21        -2.1980   -0.2000    0.3080 hc        1 PC6      0.078200
     98 H22        -2.1090    0.6070   -1.3150 hc        1 PC6      0.078200
     99 H31        -0.6650   -1.3270   -2.1460 hc        1 PC6      0.058200
    100 H32        -0.6830   -2.0230   -0.4800 hc        1 PC6      0.058200
    101 H41         0.3270    0.1090    0.4210 hc        1 PC6      0.040700
    102 H42         0.3650    0.7910   -1.2510 hc        1 PC6      0.040700
    103 H51         1.8300   -1.1190   -1.9950 hc        1 PC6      0.042700
    104 H52         1.7960   -1.7960   -0.3220 hc        1 PC6      0.042700
    105 H61         2.8140    0.3330    0.5600 hc        1 PC6      0.039200
    106 H62         2.8490    1.0090   -1.1140 hc        1 PC6      0.039200
    107 H71         4.3150   -0.9010   -1.8540 hc        1 PC6      0.040200
    108 H72         4.2810   -1.5760   -0.1800 hc        1 PC6      0.040200
    109 H81         5.3000    0.5540    0.6990 hc        1 PC6      0.039200
    110 H82         5.3340    1.2280   -0.9750 hc        1 PC6      0.039200
    111 H91         6.8010   -0.6810   -1.7140 hc        1 PC6      0.039700
    112 H92         6.7660   -1.3550   -0.0400 hc        1 PC6      0.039700
    113 H101        7.7850    0.7740    0.8380 hc        1 PC6      0.039700
    114 H102        7.8190    1.4480   -0.8360 hc        1 PC6      0.039700
    115 H111        9.2860   -0.4620   -1.5750 hc        1 PC6      0.039700
    116 H112        9.2520   -1.1350    0.1000 hc        1 PC6      0.039700
    117 H121       10.2710    0.9950    0.9770 hc        1 PC6      0.039700
    118 H122       10.3050    1.6680   -0.6980 hc        1 PC6      0.039700
    119 H131       11.7720   -0.2420   -1.4360 hc        1 PC6      0.039700
    120 H132       11.7380   -0.9150    0.2390 hc        1 PC6      0.039700
    121 H141       12.7570    1.2160    1.1150 hc        1 PC6      0.039700
    122 H142       12.7900    1.8880   -0.5590 hc        1 PC6      0.039700
    123 H151       14.2580   -0.0220   -1.2970 hc        1 PC6      0.039700
    124 H152       14.2240   -0.6940    0.3780 hc        1 PC6      0.039700
    125 H161       15.2420    1.4370    1.2540 hc        1 PC6      0.039700
    126 H162       15.2760    2.1090   -0.4210 hc        1 PC6      0.039700
    127 H171       16.7430    0.1990   -1.1580 hc        1 PC6      0.039700
    128 H172       16.7090   -0.4740    0.5170 hc        1 PC6      0.039700
    129 H181       17.7280    1.6570    1.3930 hc        1 PC6      0.039700
    130 H182       17.7620    2.3290   -0.2820 hc        1 PC6      0.039700
    131 H191       19.2290    0.4190   -1.0190 hc        1 PC6      0.039700
    132 H192       19.1950   -0.2530    0.6560 hc        1 PC6      0.039700
    133 H201       20.2130    1.8780    1.5320 hc        1 PC6      0.039700
    134 H202       20.2470    2.5500   -0.1430 hc        1 PC6      0.039700
    135 H211       21.7140    0.6400   -0.8800 hc        1 PC6      0.039700
    136 H212       21.6810   -0.0320    0.7950 hc        1 PC6      0.039700
    137 H221       22.6990    2.0990    1.6700 hc        1 PC6      0.039700
    138 H222       22.7330    2.7710   -0.0050 hc        1 PC6      0.039700
    139 H231       24.2000    0.8600   -0.7420 hc        1 PC6      0.039700
    140 H232       24.1670    0.1890    0.9340 hc        1 PC6      0.039700
    141 H241       25.1830    2.3200    1.8080 hc        1 PC6      0.038700
    142 H242       25.2160    2.9910    0.1330 hc        1 PC6      0.038700
    143 H251       27.4360    2.0470    0.7710 hc        1 PC6      0.032367
    144 H252       26.6810    0.4300    1.0830 hc        1 PC6      0.032367
    145 H253       26.7150    1.1030   -0.5960 hc        1 PC6      0.032367
@<TRIPOS>BOND
     1    1    2 1   
     2    2    3 1   
     3    2    4 1   
     4    2   11 1   
     5    4    5 1   
     6    5    6 1   
     7    5   56 1   
     8    5   57 1   
     9    6    7 1   
    10    6   58 1   
    11    6   59 1   
    12    7    8 1   
    13    7    9 1   
    14    7   10 1   
    15    8   60 1   
    16    8   61 1   
    17    8   62 1   
    18    9   63 1   
    19    9   64 1   
    20    9   65 1   
    21   10   66 1   
    22   10   67 1   
    23   10   68 1   
    24   11   12 1   
    25   12   13 1   
    26   12   69 1   
    27   12   70 1   
    28   13   14 1   
    29   13   29 1   
    30   13   71 1   
    31   14   15 1   
    32   14   72 1   
    33   14   73 1   
    34   15   16 1   
    35   16   17 2   
    36   16   18 1   
    37   18   19 1   
    38   18   74 1   
    39   18   75 1   
    40   19   20 1   
    41   19   76 1   
    42   19   77 1   
    43   20   21 1   
    44   20   78 1   
    45   20   79 1   
    46   21   22 1   
    47   21   80 1   
    48   21   81 1   
    49   22   23 1   
    50   22   82 1   
    51   22   83 1   
    52   23   24 1   
    53   23   84 1   
    54   23   85 1   
    55   24   25 1   
    56   24   86 1   
    57   24   87 1   
    58   25   26 1   
    59   25   88 1   
    60   25   89 1   
    61   26   27 1   
    62   26   90 1   
    63   26   91 1   
    64   27   28 1   
    65   27   92 1   
    66   27   93 1   
    67   28   94 1   
    68   28   95 1   
    69   28   96 1   
    70   29   30 1   
    71   30   31 2   
    72   30   32 1   
    73   32   33 1   
    74   32   97 1   
    75   32   98 1   
    76   33   34 1   
    77   33   99 1   
    78   33  100 1   
    79   34   35 1   
    80   34  101 1   
    81   34  102 1   
    82   35   36 1   
    83   35  103 1   
    84   35  104 1   
    85   36   37 1   
    86   36  105 1   
    87   36  106 1   
    88   37   38 1   
    89   37  107 1   
    90   37  108 1   
    91   38   39 1   
    92   38  109 1   
    93   38  110 1   
    94   39   40 1   
    95   39  111 1   
    96   39  112 1   
    97   40   41 1   
    98   40  113 1   
    99   40  114 1   
   100   41   42 1   
   101   41  115 1   
   102   41  116 1   
   103   42   43 1   
   104   42  117 1   
   105   42  118 1   
   106   43   44 1   
   107   43  119 1   
   108   43  120 1   
   109   44   45 1   
   110   44  121 1   
   111   44  122 1   
   112   45   46 1   
   113   45  123 1   
   114   45  124 1   
   115   46   47 1   
   116   46  125 1   
   117   46  126 1   
   118   47   48 1   
   119   47  127 1   
   120   47  128 1   
   121   48   49 1   
   122   48  129 1   
   123   48  130 1   
   124   49   50 1   
   125   49  131 1   
   126   49  132 1   
   127   50   51 1   
   128   50  133 1   
   129   50  134 1   
   130   51   52 1   
   131   51  135 1   
   132   51  136 1   
   133   52   53 1   
   134   52  137 1   
   135   52  138 1   
   136   53   54 1   
   137   53  139 1   
   138   53  140 1   
   139   54   55 1   
   140   54  141 1   
   141   54  142 1   
   142   55  143 1   
   143   55  144 1   
   144   55  145 1   
@<TRIPOS>SUBSTRUCTURE
     1 PC6         1 TEMP              0 ****  ****    0 ROOT
