@<TRIPOS>MOLECULE
PC6
  145   144     1     0     0
SMALL
bcc


@<TRIPOS>ATOM
      1 OP2        -0.9150    2.1880    0.8230 o         1 PC6     -0.814500
      2 P           0.5530    2.1870    0.6250 p5        1 PC6      1.438800
      3 OP3         1.5830    3.0590    1.1890 o         1 PC6     -0.814500
      4 OP4         0.6570    2.2200   -1.0460 os        1 PC6     -0.577200
      5 CE1        -0.3810    2.8040   -1.7420 c3        1 PC6      0.197400
      6 CE2        -1.0970    1.7750   -2.6380 c3        1 PC6      0.079800
      7 NM3        -2.1850    0.9380   -2.0160 n4        1 PC6     -0.576800
      8 CM3        -3.1550    1.7800   -1.2610 c3        1 PC6      0.075433
      9 CM2        -2.9040    0.2410   -3.1260 c3        1 PC6      0.075433
     10 CM1        -1.6140   -0.1010   -1.1090 c3        1 PC6      0.075433
     11 OP1         1.0080    0.6160    0.7350 os        1 PC6     -0.580200
     12 C39         2.3880    0.4240    0.5850 c3        1 PC6      0.175400
     13 C38         2.6330   -1.0850    0.4690 c3        1 PC6      0.135100
     14 C40         2.0880   -1.6670   -0.8330 c3        1 PC6      0.112400
     15 O40         2.7870   -1.0730   -1.9370 os        1 PC6     -0.419900
     16 C26         2.0750   -0.6290   -3.0060 c         1 PC6      0.664100
     17 O26         0.8570   -0.8430   -3.0620 o         1 PC6     -0.610000
     18 C27         2.9350    0.0930   -3.9980 c3        1 PC6     -0.135400
     19 C28         2.4610   -0.1460   -5.4160 c3        1 PC6     -0.075400
     20 C29         3.2490    0.6980   -6.3940 c3        1 PC6     -0.080400
     21 C30         2.7940    0.4520   -7.8170 c3        1 PC6     -0.078400
     22 C31         3.5760    1.3000   -8.7970 c3        1 PC6     -0.079400
     23 C32         3.1230    1.0540  -10.2200 c3        1 PC6     -0.078400
     24 C33         3.9040    1.9020  -11.2000 c3        1 PC6     -0.079400
     25 C34         3.4510    1.6570  -12.6230 c3        1 PC6     -0.078400
     26 C35         4.2320    2.5050  -13.6020 c3        1 PC6     -0.079400
     27 C36         3.7800    2.2600  -15.0270 c3        1 PC6     -0.080400
     28 C37         4.5550    3.1030  -16.0060 c3        1 PC6     -0.093100
     29 O38         4.0580   -1.2450    0.5560 os        1 PC6     -0.426900
     30 C1          4.5410   -2.4760    0.9010 c         1 PC6      0.638100
     31 O1          3.7430   -3.3990    1.0810 o         1 PC6     -0.555000
     32 C2          6.0360   -2.4960    0.9850 c3        1 PC6     -0.127400
     33 C3          6.5040   -3.3740    2.1260 c3        1 PC6     -0.079400
     34 C4          8.0120   -3.5020    2.1220 c3        1 PC6     -0.078400
     35 C5          8.4880   -4.3640    3.2710 c3        1 PC6     -0.079400
     36 C6          9.9960   -4.4970    3.2680 c3        1 PC6     -0.079400
     37 C7         10.4730   -5.3590    4.4180 c3        1 PC6     -0.079400
     38 C8         11.9810   -5.4930    4.4150 c3        1 PC6     -0.078400
     39 C9         12.4580   -6.3540    5.5640 c3        1 PC6     -0.079400
     40 C10        13.9650   -6.4890    5.5610 c3        1 PC6     -0.079400
     41 C11        14.4420   -7.3500    6.7110 c3        1 PC6     -0.079400
     42 C12        15.9500   -7.4850    6.7080 c3        1 PC6     -0.079400
     43 C13        16.4270   -8.3460    7.8580 c3        1 PC6     -0.079400
     44 C14        17.9350   -8.4800    7.8560 c3        1 PC6     -0.079400
     45 C15        18.4120   -9.3410    9.0050 c3        1 PC6     -0.079400
     46 C16        19.9190   -9.4760    9.0030 c3        1 PC6     -0.079400
     47 C17        20.3960  -10.3360   10.1530 c3        1 PC6     -0.079400
     48 C18        21.9040  -10.4710   10.1510 c3        1 PC6     -0.079400
     49 C19        22.3810  -11.3310   11.3010 c3        1 PC6     -0.079400
     50 C20        23.8890  -11.4660   11.2990 c3        1 PC6     -0.079400
     51 C21        24.3650  -12.3260   12.4490 c3        1 PC6     -0.079400
     52 C22        25.8730  -12.4600   12.4460 c3        1 PC6     -0.079400
     53 C23        26.3500  -13.3210   13.5960 c3        1 PC6     -0.079400
     54 C24        27.8580  -13.4560   13.5950 c3        1 PC6     -0.080400
     55 C25        28.3380  -14.3130   14.7390 c3        1 PC6     -0.092100
     56 HE11       -1.1010    3.3260   -1.0530 h1        1 PC6      0.053200
     57 HE12        0.0590    3.5560   -2.4630 h1        1 PC6      0.053200
     58 HE21       -0.3190    1.0570   -3.0350 hx        1 PC6      0.091200
     59 HE22       -1.5730    2.3350   -3.4910 hx        1 PC6      0.091200
     60 HM31       -4.0690    1.1730   -1.0360 hx        1 PC6      0.100811
     61 HM32       -2.6870    2.1160   -0.2830 hx        1 PC6      0.100811
     62 HM33       -3.4300    2.6700   -1.8810 hx        1 PC6      0.100811
     63 HM21       -3.6730   -0.4500   -2.6940 hx        1 PC6      0.100811
     64 HM22       -3.4070    0.9980   -3.7820 hx        1 PC6      0.100811
     65 HM23       -2.1630   -0.3520   -3.7270 hx        1 PC6      0.100811
     66 HM11       -0.9000   -0.7470   -1.6880 hx        1 PC6      0.100811
     67 HM12       -1.0610    0.4140   -0.2640 hx        1 PC6      0.100811
     68 HM13       -2.4500   -0.7150   -0.6890 hx        1 PC6      0.100811
     69 H391        2.9200    0.8480    1.4780 h1        1 PC6      0.056700
     70 H392        2.7390    0.9520   -0.3430 h1        1 PC6      0.056700
     71 H38         2.1360   -1.6290    1.3210 h1        1 PC6      0.087700
     72 H401        2.2960   -2.7690   -0.8910 h1        1 PC6      0.074700
     73 H402        0.9880   -1.4590   -0.8880 h1        1 PC6      0.074700
     74 H271        4.0020   -0.2330   -3.8780 hc        1 PC6      0.088700
     75 H272        2.8830    1.1870   -3.7420 hc        1 PC6      0.088700
     76 H281        1.3690    0.0980   -5.4920 hc        1 PC6      0.049700
     77 H282        2.5760   -1.2320   -5.6730 hc        1 PC6      0.049700
     78 H291        4.3420    0.4600   -6.3020 hc        1 PC6      0.044700
     79 H292        3.1250    1.7840   -6.1410 hc        1 PC6      0.044700
     80 H301        2.9240   -0.6330   -8.0710 hc        1 PC6      0.039700
     81 H302        1.7000    0.6850   -7.9070 hc        1 PC6      0.039700
     82 H311        3.4470    2.3850   -8.5430 hc        1 PC6      0.041700
     83 H312        4.6700    1.0680   -8.7050 hc        1 PC6      0.041700
     84 H321        3.2530   -0.0310  -10.4740 hc        1 PC6      0.038700
     85 H322        2.0290    1.2850  -10.3110 hc        1 PC6      0.038700
     86 H331        3.7730    2.9870  -10.9450 hc        1 PC6      0.040200
     87 H332        4.9980    1.6710  -11.1080 hc        1 PC6      0.040200
     88 H341        2.3570    1.8870  -12.7140 hc        1 PC6      0.039200
     89 H342        3.5820    0.5720  -12.8770 hc        1 PC6      0.039200
     90 H351        5.3260    2.2750  -13.5110 hc        1 PC6      0.040200
     91 H352        4.1010    3.5900  -13.3490 hc        1 PC6      0.040200
     92 H361        2.6850    2.4900  -15.1150 hc        1 PC6      0.038200
     93 H362        3.9100    1.1750  -15.2780 hc        1 PC6      0.038200
     94 H371        4.2060    2.9080  -17.0480 hc        1 PC6      0.032700
     95 H372        5.6460    2.8710  -15.9490 hc        1 PC6      0.032700
     96 H373        4.4170    4.1900  -15.7860 hc        1 PC6      0.032700
     97 H21         6.4200   -2.8890    0.0050 hc        1 PC6      0.079200
     98 H22         6.4210   -1.4490    1.1090 hc        1 PC6      0.079200
     99 H31         6.1630   -2.9370    3.1010 hc        1 PC6      0.057700
    100 H32         6.0310   -4.3890    2.0350 hc        1 PC6      0.057700
    101 H41         8.3500   -3.9500    1.1500 hc        1 PC6      0.040700
    102 H42         8.4770   -2.4830    2.1970 hc        1 PC6      0.040700
    103 H51         8.0200   -5.3800    3.1990 hc        1 PC6      0.042700
    104 H52         8.1530   -3.9130    4.2430 hc        1 PC6      0.042700
    105 H61        10.4640   -3.4800    3.3400 hc        1 PC6      0.039700
    106 H62        10.3320   -4.9470    2.2960 hc        1 PC6      0.039700
    107 H71        10.1380   -4.9080    5.3890 hc        1 PC6      0.040200
    108 H72        10.0040   -6.3750    4.3460 hc        1 PC6      0.040200
    109 H81        12.3160   -5.9430    3.4430 hc        1 PC6      0.039200
    110 H82        12.4490   -4.4760    4.4870 hc        1 PC6      0.039200
    111 H91        12.1220   -5.9040    6.5360 hc        1 PC6      0.039700
    112 H92        11.9890   -7.3710    5.4920 hc        1 PC6      0.039700
    113 H101       14.4340   -5.4720    5.6340 hc        1 PC6      0.039200
    114 H102       14.3010   -6.9390    4.5900 hc        1 PC6      0.039200
    115 H111       13.9740   -8.3670    6.6390 hc        1 PC6      0.039700
    116 H112       14.1070   -6.9000    7.6830 hc        1 PC6      0.039700
    117 H121       16.2860   -7.9350    5.7370 hc        1 PC6      0.039700
    118 H122       16.4180   -6.4680    6.7800 hc        1 PC6      0.039700
    119 H131       16.0910   -7.8960    8.8290 hc        1 PC6      0.039700
    120 H132       15.9590   -9.3630    7.7860 hc        1 PC6      0.039700
    121 H141       18.2700   -8.9300    6.8840 hc        1 PC6      0.039700
    122 H142       18.4030   -7.4630    7.9280 hc        1 PC6      0.039700
    123 H151       17.9430  -10.3580    8.9330 hc        1 PC6      0.039700
    124 H152       18.0760   -8.8910    9.9770 hc        1 PC6      0.039700
    125 H161       20.3870   -8.4590    9.0750 hc        1 PC6      0.039700
    126 H162       20.2550   -9.9260    8.0320 hc        1 PC6      0.039700
    127 H171       19.9280  -11.3540   10.0810 hc        1 PC6      0.039700
    128 H172       20.0600   -9.8860   11.1240 hc        1 PC6      0.039700
    129 H181       22.2400  -10.9210    9.1800 hc        1 PC6      0.039700
    130 H182       22.3720   -9.4540   10.2230 hc        1 PC6      0.039700
    131 H191       22.0450  -10.8810   12.2720 hc        1 PC6      0.039700
    132 H192       21.9130  -12.3480   11.2290 hc        1 PC6      0.039700
    133 H201       24.3570  -10.4480   11.3710 hc        1 PC6      0.039700
    134 H202       24.2250  -11.9160   10.3270 hc        1 PC6      0.039700
    135 H211       24.0290  -11.8760   13.4200 hc        1 PC6      0.039700
    136 H212       23.8970  -13.3430   12.3760 hc        1 PC6      0.039700
    137 H221       26.2090  -12.9110   11.4750 hc        1 PC6      0.039700
    138 H222       26.3410  -11.4430   12.5180 hc        1 PC6      0.039700
    139 H231       25.8820  -14.3380   13.5240 hc        1 PC6      0.039700
    140 H232       26.0140  -12.8710   14.5680 hc        1 PC6      0.039700
    141 H241       28.3240  -12.4380   13.6660 hc        1 PC6      0.038700
    142 H242       28.1920  -13.9050   12.6220 hc        1 PC6      0.038700
    143 H251       27.9030  -15.3390   14.6720 hc        1 PC6      0.032700
    144 H252       29.4510  -14.3990   14.7190 hc        1 PC6      0.032700
    145 H253       28.0350  -13.8680   15.7180 hc        1 PC6      0.032700
@<TRIPOS>BOND
     1    1    2 1   
     2    2    3 1   
     3    2    4 1   
     4    2   11 1   
     5    4    5 1   
     6    5    6 1   
     7    5   56 1   
     8    5   57 1   
     9    6    7 1   
    10    6   58 1   
    11    6   59 1   
    12    7    8 1   
    13    7    9 1   
    14    7   10 1   
    15    8   60 1   
    16    8   61 1   
    17    8   62 1   
    18    9   63 1   
    19    9   64 1   
    20    9   65 1   
    21   10   66 1   
    22   10   67 1   
    23   10   68 1   
    24   11   12 1   
    25   12   13 1   
    26   12   69 1   
    27   12   70 1   
    28   13   14 1   
    29   13   29 1   
    30   13   71 1   
    31   14   15 1   
    32   14   72 1   
    33   14   73 1   
    34   15   16 1   
    35   16   17 2   
    36   16   18 1   
    37   18   19 1   
    38   18   74 1   
    39   18   75 1   
    40   19   20 1   
    41   19   76 1   
    42   19   77 1   
    43   20   21 1   
    44   20   78 1   
    45   20   79 1   
    46   21   22 1   
    47   21   80 1   
    48   21   81 1   
    49   22   23 1   
    50   22   82 1   
    51   22   83 1   
    52   23   24 1   
    53   23   84 1   
    54   23   85 1   
    55   24   25 1   
    56   24   86 1   
    57   24   87 1   
    58   25   26 1   
    59   25   88 1   
    60   25   89 1   
    61   26   27 1   
    62   26   90 1   
    63   26   91 1   
    64   27   28 1   
    65   27   92 1   
    66   27   93 1   
    67   28   94 1   
    68   28   95 1   
    69   28   96 1   
    70   29   30 1   
    71   30   31 2   
    72   30   32 1   
    73   32   33 1   
    74   32   97 1   
    75   32   98 1   
    76   33   34 1   
    77   33   99 1   
    78   33  100 1   
    79   34   35 1   
    80   34  101 1   
    81   34  102 1   
    82   35   36 1   
    83   35  103 1   
    84   35  104 1   
    85   36   37 1   
    86   36  105 1   
    87   36  106 1   
    88   37   38 1   
    89   37  107 1   
    90   37  108 1   
    91   38   39 1   
    92   38  109 1   
    93   38  110 1   
    94   39   40 1   
    95   39  111 1   
    96   39  112 1   
    97   40   41 1   
    98   40  113 1   
    99   40  114 1   
   100   41   42 1   
   101   41  115 1   
   102   41  116 1   
   103   42   43 1   
   104   42  117 1   
   105   42  118 1   
   106   43   44 1   
   107   43  119 1   
   108   43  120 1   
   109   44   45 1   
   110   44  121 1   
   111   44  122 1   
   112   45   46 1   
   113   45  123 1   
   114   45  124 1   
   115   46   47 1   
   116   46  125 1   
   117   46  126 1   
   118   47   48 1   
   119   47  127 1   
   120   47  128 1   
   121   48   49 1   
   122   48  129 1   
   123   48  130 1   
   124   49   50 1   
   125   49  131 1   
   126   49  132 1   
   127   50   51 1   
   128   50  133 1   
   129   50  134 1   
   130   51   52 1   
   131   51  135 1   
   132   51  136 1   
   133   52   53 1   
   134   52  137 1   
   135   52  138 1   
   136   53   54 1   
   137   53  139 1   
   138   53  140 1   
   139   54   55 1   
   140   54  141 1   
   141   54  142 1   
   142   55  143 1   
   143   55  144 1   
   144   55  145 1   
@<TRIPOS>SUBSTRUCTURE
     1 PC6         1 TEMP              0 ****  ****    0 ROOT
