@<TRIPOS>MOLECULE
PC6
  145   143     1     0     0
SMALL
bcc


@<TRIPOS>ATOM
      1 OP2        -1.9790   11.2260    1.2550 o         1 PC6     -0.870600
      2 P          -3.0760   10.1970    1.0860 p3        1 PC6      1.863800
      3 OP3        -4.1490   10.7490    0.1680 os        1 PC6     -1.161000
      4 OP4        -3.7130    9.8630    2.5070 os        1 PC6     -0.583900
      5 CE1        -4.6040   10.8170    3.1000 c3        1 PC6      0.180400
      6 CE2        -4.7080   10.5540    4.6000 c3        1 PC6      0.096800
      7 NM3        -5.8660   11.2540    5.1390 n4        1 PC6     -0.582800
      8 CM3        -7.0160   11.0020    4.3010 c3        1 PC6      0.078433
      9 CM2        -6.1350   10.7790    6.4820 c3        1 PC6      0.078433
     10 CM1        -5.5970   12.6810    5.1740 c3        1 PC6      0.078433
     11 OP1        -2.4640    8.8630    0.4500 os        1 PC6     -0.595900
     12 C39        -1.8450    8.9410   -0.8470 c3        1 PC6      0.165400
     13 C38        -1.2960    7.5740   -1.2320 c3        1 PC6      0.114100
     14 C40        -2.0540    7.0410   -2.4320 c3        1 PC6      0.129400
     15 O40        -3.0310    6.0690   -1.9940 os        1 PC6     -0.440900
     16 C26        -3.7860    5.4740   -3.0670 c         1 PC6      0.632100
     17 O26        -3.5390    5.7690   -4.2150 o         1 PC6     -0.545000
     18 C27        -4.9560    4.4980   -2.7500 c3        1 PC6     -0.127400
     19 C28        -5.7380    4.1950   -4.0500 c3        1 PC6     -0.079400
     20 C29        -6.9590    3.3030   -3.7260 c3        1 PC6     -0.078400
     21 C30        -7.7980    3.0990   -5.0060 c3        1 PC6     -0.079400
     22 C31        -9.1270    2.4370   -4.6470 c3        1 PC6     -0.078400
     23 C32       -10.0130    2.3330   -5.9160 c3        1 PC6     -0.079400
     24 C33       -11.4720    2.1080   -5.5020 c3        1 PC6     -0.078400
     25 C34       -12.3950    2.2250   -6.7550 c3        1 PC6     -0.079400
     26 C35       -13.8600    2.3950   -6.3000 c3        1 PC6     -0.079400
     27 C36       -14.7590    2.5980   -7.5330 c3        1 PC6     -0.080400
     28 C37       -16.2030    2.8400   -7.0800 c3        1 PC6     -0.092100
     29 O38         0.0700    7.6920   -1.5550 os        1 PC6     -0.435900
     30 C1          0.9280    6.9120   -0.7360 c         1 PC6      0.656100
     31 O1          0.5430    6.5190    0.3400 o         1 PC6     -0.569000
     32 C2          2.3650    6.6180   -1.1930 c3        1 PC6     -0.131400
     33 C3          3.1240    5.8910   -0.0690 c3        1 PC6     -0.077400
     34 C4          4.3010    5.0990   -0.6720 c3        1 PC6     -0.079400
     35 C5          4.9670    4.2430    0.4320 c3        1 PC6     -0.078400
     36 C6          5.7830    3.0940   -0.2210 c3        1 PC6     -0.079400
     37 C7          6.2320    2.0790    0.8850 c3        1 PC6     -0.078400
     38 C8          6.7790    0.7780    0.2090 c3        1 PC6     -0.079400
     39 C9          6.9330   -0.3540    1.2900 c3        1 PC6     -0.078400
     40 C10         7.3200   -1.6910    0.5900 c3        1 PC6     -0.079400
     41 C11         7.4030   -2.8310    1.6510 c3        1 PC6     -0.078400
     42 C12         7.5890   -4.1890    0.9330 c3        1 PC6     -0.079400
     43 C13         7.5180   -5.3290    1.9620 c3        1 PC6     -0.079400
     44 C14         7.6810   -6.6810    1.2410 c3        1 PC6     -0.079400
     45 C15         7.5990   -7.8150    2.2590 c3        1 PC6     -0.079400
     46 C16         7.7500   -9.1620    1.5350 c3        1 PC6     -0.079400
     47 C17         7.6980  -10.2940    2.5520 c3        1 PC6     -0.079400
     48 C18         7.8520  -11.6540    1.8230 c3        1 PC6     -0.079400
     49 C19         7.7480  -12.7990    2.8450 c3        1 PC6     -0.079400
     50 C20         7.9650  -14.1670    2.1240 c3        1 PC6     -0.079400
     51 C21         7.9220  -15.3040    3.1630 c3        1 PC6     -0.079400
     52 C22         8.1060  -16.6580    2.4530 c3        1 PC6     -0.079400
     53 C23         8.0450  -17.7880    3.4860 c3        1 PC6     -0.079400
     54 C24         8.2180  -19.1150    2.7920 c3        1 PC6     -0.080400
     55 C25         8.2240  -20.2310    3.8300 c3        1 PC6     -0.092100
     56 HE11       -4.2610   11.7200    2.9500 h1        1 PC6      0.070700
     57 HE12       -5.4890   10.7330    2.6920 h1        1 PC6      0.070700
     58 HE21       -3.8950   10.8750    5.0450 hx        1 PC6      0.080700
     59 HE22       -4.8070    9.5890    4.7570 hx        1 PC6      0.080700
     60 HM31       -6.9860   11.5910    3.5200 hx        1 PC6      0.099144
     61 HM32       -7.0060   10.0650    4.0040 hx        1 PC6      0.099144
     62 HM33       -7.8390   11.1760    4.8120 hx        1 PC6      0.099144
     63 HM21       -6.9130   11.2550    6.8480 hx        1 PC6      0.099144
     64 HM22       -6.3240    9.8140    6.4560 hx        1 PC6      0.099144
     65 HM23       -5.3530   10.9450    7.0500 hx        1 PC6      0.099144
     66 HM11       -6.3390   13.1430    5.6260 hx        1 PC6      0.099144
     67 HM12       -4.7610   12.8450    5.6650 hx        1 PC6      0.099144
     68 HM13       -5.5100   13.0200    4.2570 hx        1 PC6      0.099144
     69 H391       -1.1160    9.5890   -0.8210 h1        1 PC6      0.065700
     70 H392       -2.5070    9.2240   -1.5070 h1        1 PC6      0.065700
     71 H38        -1.4010    6.9580   -0.4810 h1        1 PC6      0.102700
     72 H401       -2.5090    7.7790   -2.8850 h1        1 PC6      0.066700
     73 H402       -1.4240    6.6140   -3.0540 h1        1 PC6      0.066700
     74 H271       -4.5940    3.6630   -2.3820 hc        1 PC6      0.077700
     75 H272       -5.5550    4.9090   -2.0970 hc        1 PC6      0.077700
     76 H281       -6.0430    5.0310   -4.4480 hc        1 PC6      0.057700
     77 H282       -5.1500    3.7270   -4.6830 hc        1 PC6      0.057700
     78 H291       -7.5050    3.7340   -3.0450 hc        1 PC6      0.040200
     79 H292       -6.6490    2.4300   -3.3950 hc        1 PC6      0.040200
     80 H301       -7.3050    2.5250   -5.6320 hc        1 PC6      0.042700
     81 H302       -7.9680    3.9600   -5.4220 hc        1 PC6      0.042700
     82 H311       -8.9580    1.5360   -4.2910 hc        1 PC6      0.039200
     83 H312       -9.5850    2.9730   -3.9740 hc        1 PC6      0.039200
     84 H321       -9.9450    3.1570   -6.4280 hc        1 PC6      0.040200
     85 H322       -9.7090    1.5800   -6.4670 hc        1 PC6      0.040200
     86 H331      -11.7300    2.7800   -4.8440 hc        1 PC6      0.039200
     87 H332      -11.5650    1.2160   -5.1110 hc        1 PC6      0.039200
     88 H341      -12.3140    1.4110   -7.2990 hc        1 PC6      0.039700
     89 H342      -12.1270    3.0010   -7.2870 hc        1 PC6      0.039700
     90 H351      -13.9310    3.1720   -5.7140 hc        1 PC6      0.039200
     91 H352      -14.1450    1.5970   -5.8180 hc        1 PC6      0.039200
     92 H361      -14.4450    3.3680   -8.0410 hc        1 PC6      0.038700
     93 H362      -14.7240    1.7980   -8.0980 hc        1 PC6      0.038700
     94 H371      -16.2330    3.6220   -6.4850 hc        1 PC6      0.032367
     95 H372      -16.7690    3.0050   -7.8670 hc        1 PC6      0.032367
     96 H373      -16.5320    2.0500   -6.6000 hc        1 PC6      0.032367
     97 H21         2.3440    6.0510   -1.9930 hc        1 PC6      0.083200
     98 H22         2.8200    7.4610   -1.4030 hc        1 PC6      0.083200
     99 H31         3.4670    6.5470    0.5710 hc        1 PC6      0.052700
    100 H32         2.5200    5.2780    0.3880 hc        1 PC6      0.052700
    101 H41         4.9590    5.7230   -1.0430 hc        1 PC6      0.042200
    102 H42         3.9700    4.5160   -1.3820 hc        1 PC6      0.042200
    103 H51         4.2760    3.8630    1.0110 hc        1 PC6      0.040200
    104 H52         5.5680    4.8080    0.9660 hc        1 PC6      0.040200
    105 H61         5.2270    2.6320   -0.8810 hc        1 PC6      0.040700
    106 H62         6.5730    3.4650   -0.6630 hc        1 PC6      0.040700
    107 H71         5.4690    1.8550    1.4510 hc        1 PC6      0.039200
    108 H72         6.9380    2.4830    1.4330 hc        1 PC6      0.039200
    109 H81         6.1540    0.4840   -0.4830 hc        1 PC6      0.040200
    110 H82         7.6520    0.9620   -0.1970 hc        1 PC6      0.040200
    111 H91         7.6330   -0.1040    1.9270 hc        1 PC6      0.039200
    112 H92         6.0880   -0.4680    1.7640 hc        1 PC6      0.039200
    113 H101        8.1890   -1.5900    0.1510 hc        1 PC6      0.040200
    114 H102        6.6440   -1.9160   -0.0750 hc        1 PC6      0.040200
    115 H111        6.5820   -2.8490    2.1730 hc        1 PC6      0.039200
    116 H112        8.1660   -2.6680    2.2470 hc        1 PC6      0.039200
    117 H121        8.4610   -4.2060    0.4880 hc        1 PC6      0.039700
    118 H122        6.8840   -4.3050    0.2710 hc        1 PC6      0.039700
    119 H131        6.6540   -5.3050    2.4150 hc        1 PC6      0.039200
    120 H132        8.2370   -5.2210    2.6210 hc        1 PC6      0.039200
    121 H141        8.5490   -6.7080    0.7930 hc        1 PC6      0.039700
    122 H142        6.9700   -6.7850    0.5790 hc        1 PC6      0.039700
    123 H151        8.3150   -7.7150    2.9170 hc        1 PC6      0.039200
    124 H152        6.7330   -7.7830    2.7120 hc        1 PC6      0.039200
    125 H161        7.0220   -9.2690    0.8920 hc        1 PC6      0.039700
    126 H162        8.6040   -9.1850    1.0670 hc        1 PC6      0.039700
    127 H171        8.4240  -10.1860    3.1960 hc        1 PC6      0.039700
    128 H172        6.8370  -10.2700    3.0230 hc        1 PC6      0.039700
    129 H181        8.7220  -11.6900    1.3800 hc        1 PC6      0.039700
    130 H182        7.1410  -11.7490    1.1540 hc        1 PC6      0.039700
    131 H191        6.8600  -12.7870    3.2610 hc        1 PC6      0.039700
    132 H192        8.4310  -12.6830    3.5330 hc        1 PC6      0.039700
    133 H201        7.2580  -14.3030    1.4600 hc        1 PC6      0.039700
    134 H202        8.8350  -14.1660    1.6770 hc        1 PC6      0.039700
    135 H211        8.6360  -15.1780    3.8110 hc        1 PC6      0.039700
    136 H212        7.0590  -15.2920    3.6230 hc        1 PC6      0.039700
    137 H221        8.9750  -16.6750    2.0030 hc        1 PC6      0.039700
    138 H222        7.3920  -16.7810    1.7920 hc        1 PC6      0.039700
    139 H231        8.7550  -17.6690    4.1390 hc        1 PC6      0.039700
    140 H232        7.1830  -17.7680    3.9370 hc        1 PC6      0.039700
    141 H241        7.4790  -19.2560    2.1660 hc        1 PC6      0.038700
    142 H242        9.0630  -19.1200    2.3050 hc        1 PC6      0.038700
    143 H251        8.3400  -21.0940    3.3810 hc        1 PC6      0.032700
    144 H252        7.3730  -20.2280    4.3190 hc        1 PC6      0.032700
    145 H253        8.9620  -20.0880    4.4590 hc        1 PC6      0.032700
@<TRIPOS>BOND
     1    1    2 1   
     2    2    4 1   
     3    2   11 1   
     4    4    5 1   
     5    5    6 1   
     6    5   56 1   
     7    5   57 1   
     8    6    7 1   
     9    6   58 1   
    10    6   59 1   
    11    7    8 1   
    12    7    9 1   
    13    7   10 1   
    14    8   60 1   
    15    8   61 1   
    16    8   62 1   
    17    9   63 1   
    18    9   64 1   
    19    9   65 1   
    20   10   66 1   
    21   10   67 1   
    22   10   68 1   
    23   11   12 1   
    24   12   13 1   
    25   12   69 1   
    26   12   70 1   
    27   13   14 1   
    28   13   29 1   
    29   13   71 1   
    30   14   15 1   
    31   14   72 1   
    32   14   73 1   
    33   15   16 1   
    34   16   17 2   
    35   16   18 1   
    36   18   19 1   
    37   18   74 1   
    38   18   75 1   
    39   19   20 1   
    40   19   76 1   
    41   19   77 1   
    42   20   21 1   
    43   20   78 1   
    44   20   79 1   
    45   21   22 1   
    46   21   80 1   
    47   21   81 1   
    48   22   23 1   
    49   22   82 1   
    50   22   83 1   
    51   23   24 1   
    52   23   84 1   
    53   23   85 1   
    54   24   25 1   
    55   24   86 1   
    56   24   87 1   
    57   25   26 1   
    58   25   88 1   
    59   25   89 1   
    60   26   27 1   
    61   26   90 1   
    62   26   91 1   
    63   27   28 1   
    64   27   92 1   
    65   27   93 1   
    66   28   94 1   
    67   28   95 1   
    68   28   96 1   
    69   29   30 1   
    70   30   31 2   
    71   30   32 1   
    72   32   33 1   
    73   32   97 1   
    74   32   98 1   
    75   33   34 1   
    76   33   99 1   
    77   33  100 1   
    78   34   35 1   
    79   34  101 1   
    80   34  102 1   
    81   35   36 1   
    82   35  103 1   
    83   35  104 1   
    84   36   37 1   
    85   36  105 1   
    86   36  106 1   
    87   37   38 1   
    88   37  107 1   
    89   37  108 1   
    90   38   39 1   
    91   38  109 1   
    92   38  110 1   
    93   39   40 1   
    94   39  111 1   
    95   39  112 1   
    96   40   41 1   
    97   40  113 1   
    98   40  114 1   
    99   41   42 1   
   100   41  115 1   
   101   41  116 1   
   102   42   43 1   
   103   42  117 1   
   104   42  118 1   
   105   43   44 1   
   106   43  119 1   
   107   43  120 1   
   108   44   45 1   
   109   44  121 1   
   110   44  122 1   
   111   45   46 1   
   112   45  123 1   
   113   45  124 1   
   114   46   47 1   
   115   46  125 1   
   116   46  126 1   
   117   47   48 1   
   118   47  127 1   
   119   47  128 1   
   120   48   49 1   
   121   48  129 1   
   122   48  130 1   
   123   49   50 1   
   124   49  131 1   
   125   49  132 1   
   126   50   51 1   
   127   50  133 1   
   128   50  134 1   
   129   51   52 1   
   130   51  135 1   
   131   51  136 1   
   132   52   53 1   
   133   52  137 1   
   134   52  138 1   
   135   53   54 1   
   136   53  139 1   
   137   53  140 1   
   138   54   55 1   
   139   54  141 1   
   140   54  142 1   
   141   55  143 1   
   142   55  144 1   
   143   55  145 1   
@<TRIPOS>SUBSTRUCTURE
     1 PC6         1 TEMP              0 ****  ****    0 ROOT
