@<TRIPOS>MOLECULE
PC7
  136   135     1     0     0
SMALL
bcc


@<TRIPOS>ATOM
      1 C48         0.3760    1.2530    0.3510 c3        1 PC7     -0.092100
      2 C47         1.8710    1.0880    0.4440 c3        1 PC7     -0.080400
      3 C46         2.3300    0.9790    1.8830 c3        1 PC7     -0.079400
      4 C45         3.8320    0.8140    1.9710 c3        1 PC7     -0.079400
      5 C44         4.2900    0.7040    3.4090 c3        1 PC7     -0.079400
      6 C43         5.7920    0.5390    3.4970 c3        1 PC7     -0.079400
      7 C42         6.2500    0.4300    4.9360 c3        1 PC7     -0.079400
      8 C41         7.7520    0.2640    5.0240 c3        1 PC7     -0.079400
      9 C40         8.2090    0.1540    6.4620 c3        1 PC7     -0.079400
     10 C39         9.7110   -0.0110    6.5500 c3        1 PC7     -0.079400
     11 C38        10.1680   -0.1220    7.9890 c3        1 PC7     -0.079400
     12 C37        11.6710   -0.2880    8.0770 c3        1 PC7     -0.079400
     13 C36        12.1280   -0.3990    9.5150 c3        1 PC7     -0.079400
     14 C35        13.6300   -0.5660    9.6020 c3        1 PC7     -0.078400
     15 C34        14.0860   -0.6780   11.0410 c3        1 PC7     -0.078400
     16 C33        15.5890   -0.8410   11.1240 c3        1 PC7     -0.079400
     17 C32        16.0370   -0.9720   12.5640 c3        1 PC7     -0.128400
     18 C31        17.5330   -0.9940   12.6630 c         1 PC7      0.632100
     19 O31        18.3550   -0.3720   11.9860 o         1 PC7     -0.549000
     20 O2         17.9740   -1.8140   13.6610 os        1 PC7     -0.430900
     21 C2         19.3950   -1.9190   13.8730 c3        1 PC7      0.128100
     22 C1         19.6110   -3.2800   14.5520 c3        1 PC7      0.175400
     23 O3P        20.0490   -4.2070   13.5990 os        1 PC7     -0.583200
     24 P          21.4510   -4.9920   13.8880 p5        1 PC7      1.439800
     25 O1P        21.9030   -5.5130   12.5750 o         1 PC7     -0.818000
     26 O2P        22.2270   -4.3280   14.9370 o         1 PC7     -0.818000
     27 O4P        20.7160   -6.3670   14.5060 os        1 PC7     -0.569200
     28 C4         21.3020   -7.5790   14.2070 c3        1 PC7      0.199400
     29 C5         20.3130   -8.5010   13.4640 c3        1 PC7      0.090800
     30 N          20.1050   -8.2580   11.9920 n4        1 PC7     -0.581800
     31 C7         21.4040   -8.2160   11.2600 c3        1 PC7      0.079100
     32 C8         19.2920   -9.3930   11.4580 c3        1 PC7      0.079100
     33 C6         19.3540   -6.9890   11.7590 c3        1 PC7      0.079100
     34 C3         19.8800   -0.7520   14.7300 c3        1 PC7      0.114400
     35 O3         19.3160   -0.9120   16.0410 os        1 PC7     -0.435900
     36 C11        19.5470    0.0970   16.9340 c         1 PC7      0.633100
     37 O11        20.1780    1.0860   16.5560 o         1 PC7     -0.545000
     38 C12        18.9450   -0.1780   18.2780 c3        1 PC7     -0.126400
     39 C13        19.8970    0.2200   19.3860 c3        1 PC7     -0.080400
     40 C14        19.2370    0.0720   20.7400 c3        1 PC7     -0.077400
     41 C15        20.1900    0.4500   21.8540 c3        1 PC7     -0.079400
     42 C16        19.5320    0.3100   23.2100 c3        1 PC7     -0.078400
     43 C17        20.4840    0.6870   24.3240 c3        1 PC7     -0.079400
     44 C18        19.8270    0.5470   25.6800 c3        1 PC7     -0.078400
     45 C19        20.7790    0.9240   26.7940 c3        1 PC7     -0.079400
     46 C20        20.1220    0.7850   28.1500 c3        1 PC7     -0.078400
     47 C21        21.0750    1.1610   29.2640 c3        1 PC7     -0.079400
     48 C22        20.4180    1.0220   30.6210 c3        1 PC7     -0.078400
     49 C23        21.3710    1.3990   31.7350 c3        1 PC7     -0.079400
     50 C24        20.7140    1.2600   33.0910 c3        1 PC7     -0.079400
     51 C25        21.6660    1.6360   34.2060 c3        1 PC7     -0.080400
     52 C26        21.0160    1.4990   35.5590 c3        1 PC7     -0.092100
     53 H481        0.0470    2.1770    0.8860 hc        1 PC7      0.032700
     54 H482       -0.1460    0.3790    0.8110 hc        1 PC7      0.032700
     55 H483        0.0590    1.3310   -0.7160 hc        1 PC7      0.032700
     56 H471        2.3770    1.9630   -0.0440 hc        1 PC7      0.038200
     57 H472        2.1850    0.1700   -0.1190 hc        1 PC7      0.038200
     58 H461        1.8260    0.1040    2.3720 hc        1 PC7      0.039200
     59 H462        2.0190    1.8970    2.4470 hc        1 PC7      0.039200
     60 H451        4.1430   -0.1050    1.4060 hc        1 PC7      0.039200
     61 H452        4.3360    1.6890    1.4810 hc        1 PC7      0.039200
     62 H441        3.9790    1.6230    3.9740 hc        1 PC7      0.039200
     63 H442        3.7860   -0.1700    3.8990 hc        1 PC7      0.039200
     64 H431        6.1030   -0.3790    2.9330 hc        1 PC7      0.039200
     65 H432        6.2960    1.4140    3.0080 hc        1 PC7      0.039200
     66 H421        5.9390    1.3480    5.5000 hc        1 PC7      0.039200
     67 H422        5.7450   -0.4450    5.4250 hc        1 PC7      0.039200
     68 H411        8.2560    1.1390    4.5350 hc        1 PC7      0.039200
     69 H412        8.0620   -0.6540    4.4590 hc        1 PC7      0.039200
     70 H401        7.8990    1.0730    7.0270 hc        1 PC7      0.039200
     71 H402        7.7050   -0.7200    6.9520 hc        1 PC7      0.039200
     72 H391       10.2150    0.8640    6.0610 hc        1 PC7      0.039700
     73 H392       10.0220   -0.9300    5.9850 hc        1 PC7      0.039700
     74 H381        9.6640   -0.9960    8.4780 hc        1 PC7      0.039700
     75 H382        9.8580    0.7970    8.5530 hc        1 PC7      0.039700
     76 H371       12.1750    0.5870    7.5880 hc        1 PC7      0.040200
     77 H372       11.9810   -1.2060    7.5110 hc        1 PC7      0.040200
     78 H361       11.8180    0.5200   10.0800 hc        1 PC7      0.039200
     79 H362       11.6230   -1.2730   10.0040 hc        1 PC7      0.039200
     80 H351       13.9400   -1.4830    9.0370 hc        1 PC7      0.041700
     81 H352       14.1350    0.3100    9.1150 hc        1 PC7      0.041700
     82 H341       13.5840   -1.5540   11.5290 hc        1 PC7      0.039700
     83 H342       13.7750    0.2400   11.6070 hc        1 PC7      0.039700
     84 H331       16.0990    0.0410   10.6530 hc        1 PC7      0.056700
     85 H332       15.9050   -1.7510   10.5490 hc        1 PC7      0.056700
     86 H321       15.6150   -1.9020   13.0280 hc        1 PC7      0.075700
     87 H322       15.6770   -0.0950   13.1670 hc        1 PC7      0.075700
     88 H2         19.9250   -1.8730   12.8810 h1        1 PC7      0.094700
     89 H11        20.3710   -3.1720   15.3770 h1        1 PC7      0.068700
     90 H12        18.6300   -3.6350   14.9760 h1        1 PC7      0.068700
     91 H41        21.5230   -8.1220   15.1740 h1        1 PC7      0.054700
     92 H42        22.2530   -7.4500   13.6200 h1        1 PC7      0.054700
     93 H51        20.6820   -9.5590   13.5680 hx        1 PC7      0.079700
     94 H52        19.3060   -8.3960   13.9590 hx        1 PC7      0.079700
     95 H71        21.2040   -8.2810   10.1590 hx        1 PC7      0.100144
     96 H72        21.9370   -7.2380   11.4770 hx        1 PC7      0.100144
     97 H73        22.0370   -9.0790   11.5870 hx        1 PC7      0.100144
     98 H81        19.0580   -9.2070   10.3770 hx        1 PC7      0.100144
     99 H82        19.8700  -10.3480   11.5540 hx        1 PC7      0.100144
    100 H83        18.3350   -9.4710   12.0370 hx        1 PC7      0.100144
    101 H61        19.1810   -6.8630   10.6600 hx        1 PC7      0.100144
    102 H62        18.3790   -7.0290   12.3090 hx        1 PC7      0.100144
    103 H63        19.9720   -6.1190   12.1450 hx        1 PC7      0.100144
    104 H31        20.9980   -0.7700   14.8160 h1        1 PC7      0.071700
    105 H32        19.5440    0.2250   14.2960 h1        1 PC7      0.071700
    106 H121       18.6810   -1.2650   18.3580 hc        1 PC7      0.075200
    107 H122       17.9950    0.4150   18.3470 hc        1 PC7      0.075200
    108 H131       20.2270    1.2820   19.2320 hc        1 PC7      0.059700
    109 H132       20.8160   -0.4220   19.3410 hc        1 PC7      0.059700
    110 H141       18.8960   -0.9880   20.8800 hc        1 PC7      0.039200
    111 H142       18.3250    0.7240   20.7880 hc        1 PC7      0.039200
    112 H151       21.1000   -0.2030   21.8080 hc        1 PC7      0.043200
    113 H152       20.5350    1.5080   21.7100 hc        1 PC7      0.043200
    114 H161       18.6210    0.9640   23.2560 hc        1 PC7      0.038700
    115 H162       19.1860   -0.7480   23.3520 hc        1 PC7      0.038700
    116 H171       20.8310    1.7440   24.1810 hc        1 PC7      0.040700
    117 H172       21.3940    0.0320   24.2780 hc        1 PC7      0.040700
    118 H181       19.4800   -0.5100   25.8230 hc        1 PC7      0.038700
    119 H182       18.9170    1.2020   25.7260 hc        1 PC7      0.038700
    120 H191       21.1260    1.9820   26.6510 hc        1 PC7      0.039700
    121 H192       21.6890    0.2690   26.7480 hc        1 PC7      0.039700
    122 H201       19.7760   -0.2730   28.2940 hc        1 PC7      0.038700
    123 H202       19.2120    1.4390   28.1960 hc        1 PC7      0.038700
    124 H211       21.9850    0.5070   29.2180 hc        1 PC7      0.039700
    125 H212       21.4220    2.2190   29.1210 hc        1 PC7      0.039700
    126 H221       19.5080    1.6770   30.6670 hc        1 PC7      0.038700
    127 H222       20.0710   -0.0350   30.7640 hc        1 PC7      0.038700
    128 H231       22.2810    0.7440   31.6890 hc        1 PC7      0.039700
    129 H232       21.7170    2.4560   31.5910 hc        1 PC7      0.039700
    130 H241       20.3670    0.2020   33.2350 hc        1 PC7      0.039200
    131 H242       19.8040    1.9150   33.1370 hc        1 PC7      0.039200
    132 H251       22.5760    0.9810   34.1570 hc        1 PC7      0.038700
    133 H252       22.0130    2.6930   34.0600 hc        1 PC7      0.038700
    134 H261       20.6860    0.4470   35.7330 hc        1 PC7      0.032033
    135 H262       20.1210    2.1630   35.6350 hc        1 PC7      0.032033
    136 H263       21.7350    1.7820   36.3650 hc        1 PC7      0.032033
@<TRIPOS>BOND
     1    1    2 1   
     2    1   53 1   
     3    1   54 1   
     4    1   55 1   
     5    2    3 1   
     6    2   56 1   
     7    2   57 1   
     8    3    4 1   
     9    3   58 1   
    10    3   59 1   
    11    4    5 1   
    12    4   60 1   
    13    4   61 1   
    14    5    6 1   
    15    5   62 1   
    16    5   63 1   
    17    6    7 1   
    18    6   64 1   
    19    6   65 1   
    20    7    8 1   
    21    7   66 1   
    22    7   67 1   
    23    8    9 1   
    24    8   68 1   
    25    8   69 1   
    26    9   10 1   
    27    9   70 1   
    28    9   71 1   
    29   10   11 1   
    30   10   72 1   
    31   10   73 1   
    32   11   12 1   
    33   11   74 1   
    34   11   75 1   
    35   12   13 1   
    36   12   76 1   
    37   12   77 1   
    38   13   14 1   
    39   13   78 1   
    40   13   79 1   
    41   14   15 1   
    42   14   80 1   
    43   14   81 1   
    44   15   16 1   
    45   15   82 1   
    46   15   83 1   
    47   16   17 1   
    48   16   84 1   
    49   16   85 1   
    50   17   18 1   
    51   17   86 1   
    52   17   87 1   
    53   18   19 2   
    54   18   20 1   
    55   20   21 1   
    56   21   22 1   
    57   21   34 1   
    58   21   88 1   
    59   22   23 1   
    60   22   89 1   
    61   22   90 1   
    62   23   24 1   
    63   24   25 1   
    64   24   26 1   
    65   24   27 1   
    66   27   28 1   
    67   28   29 1   
    68   28   91 1   
    69   28   92 1   
    70   29   30 1   
    71   29   93 1   
    72   29   94 1   
    73   30   31 1   
    74   30   32 1   
    75   30   33 1   
    76   31   95 1   
    77   31   96 1   
    78   31   97 1   
    79   32   98 1   
    80   32   99 1   
    81   32  100 1   
    82   33  101 1   
    83   33  102 1   
    84   33  103 1   
    85   34   35 1   
    86   34  104 1   
    87   34  105 1   
    88   35   36 1   
    89   36   37 2   
    90   36   38 1   
    91   38   39 1   
    92   38  106 1   
    93   38  107 1   
    94   39   40 1   
    95   39  108 1   
    96   39  109 1   
    97   40   41 1   
    98   40  110 1   
    99   40  111 1   
   100   41   42 1   
   101   41  112 1   
   102   41  113 1   
   103   42   43 1   
   104   42  114 1   
   105   42  115 1   
   106   43   44 1   
   107   43  116 1   
   108   43  117 1   
   109   44   45 1   
   110   44  118 1   
   111   44  119 1   
   112   45   46 1   
   113   45  120 1   
   114   45  121 1   
   115   46   47 1   
   116   46  122 1   
   117   46  123 1   
   118   47   48 1   
   119   47  124 1   
   120   47  125 1   
   121   48   49 1   
   122   48  126 1   
   123   48  127 1   
   124   49   50 1   
   125   49  128 1   
   126   49  129 1   
   127   50   51 1   
   128   50  130 1   
   129   50  131 1   
   130   51   52 1   
   131   51  132 1   
   132   51  133 1   
   133   52  134 1   
   134   52  135 1   
   135   52  136 1   
@<TRIPOS>SUBSTRUCTURE
     1 PC7         1 TEMP              0 ****  ****    0 ROOT
