@<TRIPOS>MOLECULE
PC7
  136   135     1     0     0
SMALL
bcc


@<TRIPOS>ATOM
      1 C48         0.2360    3.6490    2.1190 c3        1 PC7     -0.092100
      2 C47         1.7110    3.3440    2.0550 c3        1 PC7     -0.080400
      3 C46         2.2520    2.9330    3.4080 c3        1 PC7     -0.079400
      4 C45         3.7330    2.6280    3.3400 c3        1 PC7     -0.079400
      5 C44         4.2720    2.2170    4.6930 c3        1 PC7     -0.079400
      6 C43         5.7530    1.9120    4.6250 c3        1 PC7     -0.079400
      7 C42         6.2930    1.5000    5.9780 c3        1 PC7     -0.079400
      8 C41         7.7740    1.1950    5.9090 c3        1 PC7     -0.079400
      9 C40         8.3130    0.7820    7.2620 c3        1 PC7     -0.079400
     10 C39         9.7940    0.4750    7.1930 c3        1 PC7     -0.079400
     11 C38        10.3330    0.0610    8.5450 c3        1 PC7     -0.079400
     12 C37        11.8130   -0.2480    8.4740 c3        1 PC7     -0.079400
     13 C36        12.3530   -0.6660    9.8250 c3        1 PC7     -0.079400
     14 C35        13.8320   -0.9790    9.7530 c3        1 PC7     -0.078400
     15 C34        14.3700   -1.4010   11.1030 c3        1 PC7     -0.078400
     16 C33        15.8490   -1.7150   11.0260 c3        1 PC7     -0.077400
     17 C32        16.3760   -2.1560   12.3730 c3        1 PC7     -0.131400
     18 C31        17.8590   -2.3540   12.3430 c         1 PC7      0.650100
     19 O31        18.6950   -1.8750   11.5740 o         1 PC7     -0.551000
     20 O2         18.2840   -3.1820   13.3490 os        1 PC7     -0.443900
     21 C2         19.6990   -3.2820   13.5770 c3        1 PC7      0.120100
     22 C1         19.9090   -4.6330   14.2640 c3        1 PC7      0.167400
     23 O3P        21.2550   -4.9970   14.0830 os        1 PC7     -0.556200
     24 P          21.6220   -6.4280   14.7490 p5        1 PC7      1.428800
     25 O1P        23.0750   -6.6920   14.6710 o         1 PC7     -0.819500
     26 O2P        20.7730   -6.7420   15.9070 o         1 PC7     -0.819500
     27 O4P        21.0500   -7.4260   13.5230 os        1 PC7     -0.576200
     28 C4         20.6900   -8.7010   13.9060 c3        1 PC7      0.189400
     29 C5         21.4640   -9.7630   13.0980 c3        1 PC7      0.086800
     30 N          22.9610   -9.7800   13.2570 n4        1 PC7     -0.581800
     31 C7         23.3430   -9.6890   14.6960 c3        1 PC7      0.076767
     32 C8         23.4730  -11.0660   12.6990 c3        1 PC7      0.076767
     33 C6         23.5800   -8.6490   12.5010 c3        1 PC7      0.076767
     34 C3         20.1750   -2.1070   14.4280 c3        1 PC7      0.115400
     35 O3         19.6100   -2.1340   15.7420 os        1 PC7     -0.430900
     36 C11        18.4390   -1.4690   15.9720 c         1 PC7      0.642100
     37 O11        17.9160   -0.8300   15.0560 o         1 PC7     -0.560000
     38 C12        17.9540   -1.6280   17.3810 c3        1 PC7     -0.129400
     39 C13        18.7110   -0.7100   18.3190 c3        1 PC7     -0.078400
     40 C14        18.2320   -0.8860   19.7440 c3        1 PC7     -0.079400
     41 C15        18.9850    0.0260   20.6890 c3        1 PC7     -0.078400
     42 C16        18.5150   -0.1540   22.1160 c3        1 PC7     -0.079400
     43 C17        19.2730    0.7520   23.0620 c3        1 PC7     -0.079400
     44 C18        18.8070    0.5680   24.4910 c3        1 PC7     -0.079400
     45 C19        19.5700    1.4700   25.4380 c3        1 PC7     -0.079400
     46 C20        19.1070    1.2830   26.8660 c3        1 PC7     -0.079400
     47 C21        19.8720    2.1820   27.8140 c3        1 PC7     -0.079400
     48 C22        19.4100    1.9930   29.2430 c3        1 PC7     -0.079400
     49 C23        20.1770    2.8900   30.1910 c3        1 PC7     -0.079400
     50 C24        19.7170    2.7000   31.6210 c3        1 PC7     -0.079400
     51 C25        20.4840    3.5960   32.5700 c3        1 PC7     -0.080400
     52 C26        20.0290    3.4110   33.9950 c3        1 PC7     -0.092100
     53 H481        0.0360    4.4830    2.8340 hc        1 PC7      0.032367
     54 H482       -0.1420    3.9500    1.1120 hc        1 PC7      0.032367
     55 H483       -0.3380    2.7520    2.4570 hc        1 PC7      0.032367
     56 H471        2.2670    4.2480    1.6900 hc        1 PC7      0.038200
     57 H472        1.8940    2.5220    1.3140 hc        1 PC7      0.038200
     58 H461        1.6980    2.0280    3.7750 hc        1 PC7      0.039700
     59 H462        2.0700    3.7540    4.1510 hc        1 PC7      0.039700
     60 H451        3.9140    1.8070    2.5980 hc        1 PC7      0.039200
     61 H452        4.2860    3.5320    2.9740 hc        1 PC7      0.039200
     62 H441        3.7190    1.3120    5.0600 hc        1 PC7      0.039700
     63 H442        4.0910    3.0380    5.4360 hc        1 PC7      0.039700
     64 H431        5.9340    1.0910    3.8820 hc        1 PC7      0.039700
     65 H432        6.3070    2.8160    4.2580 hc        1 PC7      0.039700
     66 H421        5.7390    0.5960    6.3440 hc        1 PC7      0.039700
     67 H422        6.1120    2.3220    6.7200 hc        1 PC7      0.039700
     68 H411        8.3280    2.0990    5.5430 hc        1 PC7      0.039200
     69 H412        7.9540    0.3740    5.1660 hc        1 PC7      0.039200
     70 H401        8.1340    1.6040    8.0050 hc        1 PC7      0.039200
     71 H402        7.7590   -0.1210    7.6280 hc        1 PC7      0.039200
     72 H391       10.3490    1.3800    6.8270 hc        1 PC7      0.039200
     73 H392        9.9730   -0.3450    6.4490 hc        1 PC7      0.039200
     74 H381       10.1560    0.8820    9.2880 hc        1 PC7      0.039200
     75 H382        9.7770   -0.8420    8.9110 hc        1 PC7      0.039200
     76 H371       12.3700    0.6550    8.1100 hc        1 PC7      0.039700
     77 H372       11.9910   -1.0680    7.7290 hc        1 PC7      0.039700
     78 H361       12.1780    0.1550   10.5700 hc        1 PC7      0.039700
     79 H362       11.7940   -1.5680   10.1910 hc        1 PC7      0.039700
     80 H351       14.0070   -1.7970    9.0050 hc        1 PC7      0.041700
     81 H352       14.3910   -0.0760    9.3920 hc        1 PC7      0.041700
     82 H341       13.8110   -2.3040   11.4660 hc        1 PC7      0.040700
     83 H342       14.1980   -0.5830   11.8510 hc        1 PC7      0.040700
     84 H331       16.4170   -0.8110   10.6800 hc        1 PC7      0.055200
     85 H332       16.0270   -2.5240   10.2690 hc        1 PC7      0.055200
     86 H321       16.1760   -1.3730   13.1580 hc        1 PC7      0.085200
     87 H322       15.8790   -3.1050   12.7040 hc        1 PC7      0.085200
     88 H2         20.2540   -3.2570   12.5970 h1        1 PC7      0.095700
     89 H11        19.2560   -5.4190   13.7960 h1        1 PC7      0.056700
     90 H12        19.6910   -4.5710   15.3650 h1        1 PC7      0.056700
     91 H41        19.6050   -8.8790   13.6450 h1        1 PC7      0.059700
     92 H42        20.8290   -8.8520   15.0140 h1        1 PC7      0.059700
     93 H51        21.2540   -9.5960   12.0040 hx        1 PC7      0.078700
     94 H52        21.0810  -10.7750   13.4080 hx        1 PC7      0.078700
     95 H71        22.7480  -10.4310   15.2850 hx        1 PC7      0.100367
     96 H72        23.1430   -8.6300   15.0650 hx        1 PC7      0.100367
     97 H73        24.4390   -9.8990   14.7990 hx        1 PC7      0.100367
     98 H81        24.5940  -11.0620   12.7300 hx        1 PC7      0.100367
     99 H82        23.0870  -11.9220   13.3110 hx        1 PC7      0.100367
    100 H83        23.1290  -11.1750   11.6380 hx        1 PC7      0.100367
    101 H61        23.1830   -7.6670   12.9200 hx        1 PC7      0.100367
    102 H62        24.6900   -8.6800   12.6450 hx        1 PC7      0.100367
    103 H63        23.3200   -8.7440   11.4180 hx        1 PC7      0.100367
    104 H31        19.9380   -1.1390   13.9150 h1        1 PC7      0.082700
    105 H32        21.2770   -2.2160   14.6170 h1        1 PC7      0.082700
    106 H121       16.8580   -1.3910   17.4010 hc        1 PC7      0.080700
    107 H122       18.0950   -2.6970   17.6950 hc        1 PC7      0.080700
    108 H131       19.8080   -0.9380   18.2560 hc        1 PC7      0.055200
    109 H132       18.5700    0.3560   18.0010 hc        1 PC7      0.055200
    110 H141       18.3720   -1.9540   20.0600 hc        1 PC7      0.041700
    111 H142       17.1330   -0.6640   19.8030 hc        1 PC7      0.041700
    112 H151       20.0840   -0.1920   20.6240 hc        1 PC7      0.041700
    113 H152       18.8410    1.0940   20.3760 hc        1 PC7      0.041700
    114 H161       17.4170    0.0680   22.1810 hc        1 PC7      0.039700
    115 H162       18.6550   -1.2230   22.4260 hc        1 PC7      0.039700
    116 H171       20.3710    0.5320   22.9940 hc        1 PC7      0.039700
    117 H172       19.1310    1.8210   22.7540 hc        1 PC7      0.039700
    118 H181       18.9460   -0.5020   24.7970 hc        1 PC7      0.039700
    119 H182       17.7100    0.7920   24.5600 hc        1 PC7      0.039700
    120 H191       19.4290    2.5400   25.1330 hc        1 PC7      0.039700
    121 H192       20.6670    1.2480   25.3660 hc        1 PC7      0.039700
    122 H201       19.2450    0.2120   27.1700 hc        1 PC7      0.039700
    123 H202       18.0090    1.5070   26.9390 hc        1 PC7      0.039700
    124 H211       20.9690    1.9580   27.7400 hc        1 PC7      0.039700
    125 H212       19.7320    3.2530   27.5120 hc        1 PC7      0.039700
    126 H221       18.3140    2.2170   29.3170 hc        1 PC7      0.039700
    127 H222       19.5490    0.9210   29.5450 hc        1 PC7      0.039700
    128 H231       20.0380    3.9620   29.8900 hc        1 PC7      0.039700
    129 H232       21.2740    2.6660   30.1170 hc        1 PC7      0.039700
    130 H241       19.8560    1.6290   31.9220 hc        1 PC7      0.039700
    131 H242       18.6200    2.9250   31.6960 hc        1 PC7      0.039700
    132 H251       21.5800    3.3720   32.4920 hc        1 PC7      0.038700
    133 H252       20.3450    4.6680   32.2670 hc        1 PC7      0.038700
    134 H261       20.6070    4.0800   34.6770 hc        1 PC7      0.032367
    135 H262       18.9440    3.6540   34.0970 hc        1 PC7      0.032367
    136 H263       20.1830    2.3550   34.3230 hc        1 PC7      0.032367
@<TRIPOS>BOND
     1    1    2 1   
     2    1   53 1   
     3    1   54 1   
     4    1   55 1   
     5    2    3 1   
     6    2   56 1   
     7    2   57 1   
     8    3    4 1   
     9    3   58 1   
    10    3   59 1   
    11    4    5 1   
    12    4   60 1   
    13    4   61 1   
    14    5    6 1   
    15    5   62 1   
    16    5   63 1   
    17    6    7 1   
    18    6   64 1   
    19    6   65 1   
    20    7    8 1   
    21    7   66 1   
    22    7   67 1   
    23    8    9 1   
    24    8   68 1   
    25    8   69 1   
    26    9   10 1   
    27    9   70 1   
    28    9   71 1   
    29   10   11 1   
    30   10   72 1   
    31   10   73 1   
    32   11   12 1   
    33   11   74 1   
    34   11   75 1   
    35   12   13 1   
    36   12   76 1   
    37   12   77 1   
    38   13   14 1   
    39   13   78 1   
    40   13   79 1   
    41   14   15 1   
    42   14   80 1   
    43   14   81 1   
    44   15   16 1   
    45   15   82 1   
    46   15   83 1   
    47   16   17 1   
    48   16   84 1   
    49   16   85 1   
    50   17   18 1   
    51   17   86 1   
    52   17   87 1   
    53   18   19 2   
    54   18   20 1   
    55   20   21 1   
    56   21   22 1   
    57   21   34 1   
    58   21   88 1   
    59   22   23 1   
    60   22   89 1   
    61   22   90 1   
    62   23   24 1   
    63   24   25 1   
    64   24   26 1   
    65   24   27 1   
    66   27   28 1   
    67   28   29 1   
    68   28   91 1   
    69   28   92 1   
    70   29   30 1   
    71   29   93 1   
    72   29   94 1   
    73   30   31 1   
    74   30   32 1   
    75   30   33 1   
    76   31   95 1   
    77   31   96 1   
    78   31   97 1   
    79   32   98 1   
    80   32   99 1   
    81   32  100 1   
    82   33  101 1   
    83   33  102 1   
    84   33  103 1   
    85   34   35 1   
    86   34  104 1   
    87   34  105 1   
    88   35   36 1   
    89   36   37 2   
    90   36   38 1   
    91   38   39 1   
    92   38  106 1   
    93   38  107 1   
    94   39   40 1   
    95   39  108 1   
    96   39  109 1   
    97   40   41 1   
    98   40  110 1   
    99   40  111 1   
   100   41   42 1   
   101   41  112 1   
   102   41  113 1   
   103   42   43 1   
   104   42  114 1   
   105   42  115 1   
   106   43   44 1   
   107   43  116 1   
   108   43  117 1   
   109   44   45 1   
   110   44  118 1   
   111   44  119 1   
   112   45   46 1   
   113   45  120 1   
   114   45  121 1   
   115   46   47 1   
   116   46  122 1   
   117   46  123 1   
   118   47   48 1   
   119   47  124 1   
   120   47  125 1   
   121   48   49 1   
   122   48  126 1   
   123   48  127 1   
   124   49   50 1   
   125   49  128 1   
   126   49  129 1   
   127   50   51 1   
   128   50  130 1   
   129   50  131 1   
   130   51   52 1   
   131   51  132 1   
   132   51  133 1   
   133   52  134 1   
   134   52  135 1   
   135   52  136 1   
@<TRIPOS>SUBSTRUCTURE
     1 PC7         1 TEMP              0 ****  ****    0 ROOT
