@<TRIPOS>MOLECULE
PC7
  136   135     1     0     0
SMALL
bcc


@<TRIPOS>ATOM
      1 C48        11.0330    5.7100   -1.9990 c3        1 PC7     -0.092100
      2 C47         9.5970    5.9080   -1.5420 c3        1 PC7     -0.080400
      3 C46         9.5620    6.9330   -0.3690 c3        1 PC7     -0.079400
      4 C45         8.2730    6.7020    0.4880 c3        1 PC7     -0.079400
      5 C44         7.9870    7.9500    1.3270 c3        1 PC7     -0.078400
      6 C43         7.4930    7.5270    2.7290 c3        1 PC7     -0.077400
      7 C42         6.0950    8.1620    3.0040 c3        1 PC7     -0.079400
      8 C41         5.4920    7.5440    4.3060 c3        1 PC7     -0.079400
      9 C40         3.9440    7.3230    4.1170 c3        1 PC7     -0.079400
     10 C39         3.4430    6.2700    5.1350 c3        1 PC7     -0.077400
     11 C38         2.0900    5.6310    4.6130 c3        1 PC7     -0.078400
     12 C37         2.0050    4.1730    5.0690 c3        1 PC7     -0.079400
     13 C36         0.8250    3.4760    4.3530 c3        1 PC7     -0.079400
     14 C35         1.1070    1.9430    4.2550 c3        1 PC7     -0.078400
     15 C34         0.1320    1.3060    3.2290 c3        1 PC7     -0.078400
     16 C33         0.5460   -0.1890    2.9630 c3        1 PC7     -0.078400
     17 C32        -0.4420   -0.8310    1.8870 c3        1 PC7     -0.129400
     18 C31         0.2040   -2.1180    1.2910 c         1 PC7      0.647100
     19 O31         0.7950   -2.8970    2.0220 o         1 PC7     -0.562000
     20 O2         -0.0160   -2.4570   -0.0860 os        1 PC7     -0.434900
     21 C2          0.4060   -3.7550   -0.4270 c3        1 PC7      0.095100
     22 C1          1.8850   -3.7330   -0.7710 c3        1 PC7      0.176400
     23 O3P         2.5380   -4.8000   -0.1120 os        1 PC7     -0.581200
     24 P           4.1640   -4.8590   -0.1530 p5        1 PC7      1.435800
     25 O1P         4.6680   -4.0460   -1.3190 o         1 PC7     -0.814000
     26 O2P         4.7240   -4.2930    1.1380 o         1 PC7     -0.814000
     27 O4P         4.6440   -6.4030   -0.3210 os        1 PC7     -0.577200
     28 C4          6.0290   -6.7360   -0.0300 c3        1 PC7      0.175400
     29 C5          6.5160   -7.8370   -1.0160 c3        1 PC7      0.097800
     30 N           7.8090   -8.3620   -0.5650 n4        1 PC7     -0.583800
     31 C7          8.7560   -7.3020   -0.4960 c3        1 PC7      0.078767
     32 C8          8.2780   -9.3710   -1.5010 c3        1 PC7      0.078767
     33 C6          7.6570   -8.9560    0.7480 c3        1 PC7      0.078767
     34 C3         -0.3910   -4.2530   -1.6330 c3        1 PC7      0.111400
     35 O3         -1.8030   -4.2520   -1.3140 os        1 PC7     -0.436900
     36 C11        -2.5900   -5.0610   -2.1810 c         1 PC7      0.656100
     37 O11        -2.1810   -5.3370   -3.2880 o         1 PC7     -0.577000
     38 C12        -4.0140   -5.5150   -1.7420 c3        1 PC7     -0.131400
     39 C13        -5.0070   -5.2790   -2.9030 c3        1 PC7     -0.075400
     40 C14        -6.4300   -5.5120   -2.4110 c3        1 PC7     -0.079400
     41 C15        -7.4250   -4.9240   -3.4270 c3        1 PC7     -0.079400
     42 C16        -8.7650   -4.6560   -2.7320 c3        1 PC7     -0.079400
     43 C17        -9.5510   -3.6270   -3.5250 c3        1 PC7     -0.079400
     44 C18       -10.5070   -2.8820   -2.5920 c3        1 PC7     -0.077400
     45 C19       -10.9140   -1.5390   -3.2420 c3        1 PC7     -0.078400
     46 C20       -11.2140   -0.5030   -2.1440 c3        1 PC7     -0.079400
     47 C21       -11.2270    0.9110   -2.7640 c3        1 PC7     -0.079400
     48 C22       -11.0370    1.9480   -1.6680 c3        1 PC7     -0.079400
     49 C23       -10.6840    3.3270   -2.3110 c3        1 PC7     -0.079400
     50 C24       -10.0360    4.2530   -1.2320 c3        1 PC7     -0.079400
     51 C25        -9.5650    5.5920   -1.9060 c3        1 PC7     -0.080400
     52 C26        -8.6170    6.3410   -0.9560 c3        1 PC7     -0.092100
     53 H481       11.6070    5.6000   -1.2230 hc        1 PC7      0.032367
     54 H482       11.0890    4.8980   -2.5700 hc        1 PC7      0.032367
     55 H483       11.3220    6.4880   -2.5100 hc        1 PC7      0.032367
     56 H471        9.2270    5.0490   -1.2380 hc        1 PC7      0.038200
     57 H472        9.0620    6.2480   -2.2890 hc        1 PC7      0.038200
     58 H461        9.5550    7.8500   -0.7330 hc        1 PC7      0.039200
     59 H462       10.3610    6.8090    0.1990 hc        1 PC7      0.039200
     60 H451        7.5160    6.5260   -0.1060 hc        1 PC7      0.039700
     61 H452        8.4080    5.9320    1.0830 hc        1 PC7      0.039700
     62 H441        7.3020    8.4840    0.8900 hc        1 PC7      0.039200
     63 H442        8.8060    8.4770    1.4150 hc        1 PC7      0.039200
     64 H431        7.4230    6.5510    2.7690 hc        1 PC7      0.038700
     65 H432        8.1330    7.8380    3.4090 hc        1 PC7      0.038700
     66 H421        5.5020    7.9820    2.2510 hc        1 PC7      0.040200
     67 H422        6.1930    9.1290    3.1180 hc        1 PC7      0.040200
     68 H411        5.9230    6.6880    4.4890 hc        1 PC7      0.038700
     69 H412        5.6460    8.1550    5.0590 hc        1 PC7      0.038700
     70 H401        3.7690    7.0090    3.2110 hc        1 PC7      0.040200
     71 H402        3.4750    8.1660    4.2650 hc        1 PC7      0.040200
     72 H391        4.1210    5.5650    5.2390 hc        1 PC7      0.038700
     73 H392        3.2860    6.7030    6.0030 hc        1 PC7      0.038700
     74 H381        2.0670    5.6690    3.6360 hc        1 PC7      0.039200
     75 H382        1.3320    6.1310    4.9760 hc        1 PC7      0.039200
     76 H371        1.8630    4.1430    6.0280 hc        1 PC7      0.040700
     77 H372        2.8290    3.7180    4.8490 hc        1 PC7      0.040700
     78 H361        0.7240    3.8490    3.4500 hc        1 PC7      0.039200
     79 H362       -0.0060    3.6260    4.8660 hc        1 PC7      0.039200
     80 H351        2.0250    1.8000    3.9640 hc        1 PC7      0.042200
     81 H352        0.9740    1.5300    5.1300 hc        1 PC7      0.042200
     82 H341       -0.7800    1.3330    3.5870 hc        1 PC7      0.040700
     83 H342        0.1690    1.8050    2.3940 hc        1 PC7      0.040700
     84 H331        0.4930   -0.6990    3.8030 hc        1 PC7      0.056200
     85 H332        1.4620   -0.2170    2.6220 hc        1 PC7      0.056200
     86 H321       -1.2900   -1.0630    2.3210 hc        1 PC7      0.078200
     87 H322       -0.6080   -0.1860    1.1690 hc        1 PC7      0.078200
     88 H2          0.2570   -4.3550    0.3310 h1        1 PC7      0.094700
     89 H11         1.9960   -3.8300   -1.7360 h1        1 PC7      0.063200
     90 H12         2.2780   -2.8750   -0.4780 h1        1 PC7      0.063200
     91 H41         6.1000   -7.0700    0.8950 h1        1 PC7      0.075200
     92 H42         6.5790   -5.9470   -0.1310 h1        1 PC7      0.075200
     93 H51         5.8600   -8.5650   -1.0430 hx        1 PC7      0.082700
     94 H52         6.6120   -7.4570   -1.9020 hx        1 PC7      0.082700
     95 H71         9.6540   -7.6740   -0.3810 hx        1 PC7      0.098700
     96 H72         8.7230   -6.7850   -1.3150 hx        1 PC7      0.098700
     97 H73         8.5390   -6.7120    0.2790 hx        1 PC7      0.098700
     98 H81         7.5930  -10.0710   -1.6000 hx        1 PC7      0.098700
     99 H82         8.4480   -8.9550   -2.3730 hx        1 PC7      0.098700
    100 H83         9.1180   -9.7760   -1.1580 hx        1 PC7      0.098700
    101 H61         7.4210   -8.2540    1.4020 hx        1 PC7      0.098700
    102 H62         8.5000   -9.3820    1.0160 hx        1 PC7      0.098700
    103 H63         6.9480   -9.6270    0.7220 hx        1 PC7      0.098700
    104 H31        -0.2270   -3.6570   -2.4050 h1        1 PC7      0.086200
    105 H32        -0.1050   -5.1710   -1.8600 h1        1 PC7      0.086200
    106 H121       -3.9980   -6.4720   -1.5140 hc        1 PC7      0.083700
    107 H122       -4.2980   -4.9950   -0.9560 hc        1 PC7      0.083700
    108 H131       -4.8100   -5.8980   -3.6300 hc        1 PC7      0.053200
    109 H132       -4.9200   -4.3640   -3.2230 hc        1 PC7      0.053200
    110 H141       -6.5520   -5.0760   -1.5490 hc        1 PC7      0.041700
    111 H142       -6.5900   -6.4730   -2.3170 hc        1 PC7      0.041700
    112 H151       -7.5580   -5.5610   -4.1610 hc        1 PC7      0.041200
    113 H152       -7.0660   -4.0780   -3.7870 hc        1 PC7      0.041200
    114 H161       -8.6010   -4.3150   -1.8280 hc        1 PC7      0.039200
    115 H162       -9.2790   -5.4910   -2.6780 hc        1 PC7      0.039200
    116 H171      -10.0640   -4.0770   -4.2230 hc        1 PC7      0.040700
    117 H172       -8.9350   -2.9920   -3.9330 hc        1 PC7      0.040700
    118 H181      -10.0600   -2.7090   -1.7360 hc        1 PC7      0.039200
    119 H182      -11.3110   -3.4300   -2.4380 hc        1 PC7      0.039200
    120 H191      -10.1840   -1.2150   -3.8020 hc        1 PC7      0.039200
    121 H192      -11.7150   -1.6720   -3.7940 hc        1 PC7      0.039200
    122 H201      -10.5270   -0.5500   -1.4560 hc        1 PC7      0.040200
    123 H202      -12.0950   -0.6950   -1.7440 hc        1 PC7      0.040200
    124 H211      -10.5070    0.9880   -3.4080 hc        1 PC7      0.039200
    125 H212      -12.0850    1.0630   -3.2120 hc        1 PC7      0.039200
    126 H221      -11.8700    2.0320   -1.1480 hc        1 PC7      0.039700
    127 H222      -10.3160    1.6700   -1.0820 hc        1 PC7      0.039700
    128 H231      -11.5070    3.7490   -2.6570 hc        1 PC7      0.039200
    129 H232      -10.0520    3.1920   -3.0470 hc        1 PC7      0.039200
    130 H241       -9.2700    3.8020   -0.8340 hc        1 PC7      0.039700
    131 H242      -10.7010    4.4550   -0.5290 hc        1 PC7      0.039700
    132 H251       -9.0960    5.3890   -2.7400 hc        1 PC7      0.038200
    133 H252      -10.3490    6.1550   -2.0990 hc        1 PC7      0.038200
    134 H261       -7.9220    5.7260   -0.6350 hc        1 PC7      0.032700
    135 H262       -8.1960    7.0870   -1.4350 hc        1 PC7      0.032700
    136 H263       -9.1280    6.6890   -0.1890 hc        1 PC7      0.032700
@<TRIPOS>BOND
     1    1    2 1   
     2    1   53 1   
     3    1   54 1   
     4    1   55 1   
     5    2    3 1   
     6    2   56 1   
     7    2   57 1   
     8    3    4 1   
     9    3   58 1   
    10    3   59 1   
    11    4    5 1   
    12    4   60 1   
    13    4   61 1   
    14    5    6 1   
    15    5   62 1   
    16    5   63 1   
    17    6    7 1   
    18    6   64 1   
    19    6   65 1   
    20    7    8 1   
    21    7   66 1   
    22    7   67 1   
    23    8    9 1   
    24    8   68 1   
    25    8   69 1   
    26    9   10 1   
    27    9   70 1   
    28    9   71 1   
    29   10   11 1   
    30   10   72 1   
    31   10   73 1   
    32   11   12 1   
    33   11   74 1   
    34   11   75 1   
    35   12   13 1   
    36   12   76 1   
    37   12   77 1   
    38   13   14 1   
    39   13   78 1   
    40   13   79 1   
    41   14   15 1   
    42   14   80 1   
    43   14   81 1   
    44   15   16 1   
    45   15   82 1   
    46   15   83 1   
    47   16   17 1   
    48   16   84 1   
    49   16   85 1   
    50   17   18 1   
    51   17   86 1   
    52   17   87 1   
    53   18   19 2   
    54   18   20 1   
    55   20   21 1   
    56   21   22 1   
    57   21   34 1   
    58   21   88 1   
    59   22   23 1   
    60   22   89 1   
    61   22   90 1   
    62   23   24 1   
    63   24   25 1   
    64   24   26 1   
    65   24   27 1   
    66   27   28 1   
    67   28   29 1   
    68   28   91 1   
    69   28   92 1   
    70   29   30 1   
    71   29   93 1   
    72   29   94 1   
    73   30   31 1   
    74   30   32 1   
    75   30   33 1   
    76   31   95 1   
    77   31   96 1   
    78   31   97 1   
    79   32   98 1   
    80   32   99 1   
    81   32  100 1   
    82   33  101 1   
    83   33  102 1   
    84   33  103 1   
    85   34   35 1   
    86   34  104 1   
    87   34  105 1   
    88   35   36 1   
    89   36   37 2   
    90   36   38 1   
    91   38   39 1   
    92   38  106 1   
    93   38  107 1   
    94   39   40 1   
    95   39  108 1   
    96   39  109 1   
    97   40   41 1   
    98   40  110 1   
    99   40  111 1   
   100   41   42 1   
   101   41  112 1   
   102   41  113 1   
   103   42   43 1   
   104   42  114 1   
   105   42  115 1   
   106   43   44 1   
   107   43  116 1   
   108   43  117 1   
   109   44   45 1   
   110   44  118 1   
   111   44  119 1   
   112   45   46 1   
   113   45  120 1   
   114   45  121 1   
   115   46   47 1   
   116   46  122 1   
   117   46  123 1   
   118   47   48 1   
   119   47  124 1   
   120   47  125 1   
   121   48   49 1   
   122   48  126 1   
   123   48  127 1   
   124   49   50 1   
   125   49  128 1   
   126   49  129 1   
   127   50   51 1   
   128   50  130 1   
   129   50  131 1   
   130   51   52 1   
   131   51  132 1   
   132   51  133 1   
   133   52  134 1   
   134   52  135 1   
   135   52  136 1   
@<TRIPOS>SUBSTRUCTURE
     1 PC7         1 TEMP              0 ****  ****    0 ROOT
