@<TRIPOS>MOLECULE
PC7
  136   135     1     0     0
SMALL
bcc


@<TRIPOS>ATOM
      1 C48        21.0360    5.9710   -0.3620 c3        1 PC7     -0.092100
      2 C47        20.1460    4.7910   -0.0680 c3        1 PC7     -0.080400
      3 C46        18.6840    5.1370   -0.2540 c3        1 PC7     -0.079400
      4 C45        17.7950    3.9490    0.0420 c3        1 PC7     -0.079400
      5 C44        16.3330    4.2970   -0.1440 c3        1 PC7     -0.079400
      6 C43        15.4430    3.1090    0.1510 c3        1 PC7     -0.079400
      7 C42        13.9820    3.4570   -0.0350 c3        1 PC7     -0.079400
      8 C41        13.0920    2.2690    0.2610 c3        1 PC7     -0.079400
      9 C40        11.6310    2.6170    0.0750 c3        1 PC7     -0.079400
     10 C39        10.7410    1.4280    0.3700 c3        1 PC7     -0.079400
     11 C38         9.2800    1.7760    0.1840 c3        1 PC7     -0.079400
     12 C37         8.3900    0.5880    0.4790 c3        1 PC7     -0.079400
     13 C36         6.9290    0.9360    0.2920 c3        1 PC7     -0.079400
     14 C35         6.0400   -0.2530    0.5870 c3        1 PC7     -0.078400
     15 C34         4.5790    0.0950    0.3980 c3        1 PC7     -0.078400
     16 C33         3.6920   -1.0950    0.6980 c3        1 PC7     -0.079400
     17 C32         2.2340   -0.7470    0.4890 c3        1 PC7     -0.128400
     18 C31         1.3450   -1.8750    0.9160 c         1 PC7      0.632100
     19 O31         1.4940   -2.6540    1.8600 o         1 PC7     -0.549000
     20 O2          0.2370   -1.9880    0.1270 os        1 PC7     -0.430900
     21 C2         -0.7120   -3.0270    0.4360 c3        1 PC7      0.128100
     22 C1         -1.4500   -3.3160   -0.8800 c3        1 PC7      0.175400
     23 O3P        -0.9190   -4.4720   -1.4640 os        1 PC7     -0.583200
     24 P          -1.9480   -5.6920   -1.8120 p5        1 PC7      1.439800
     25 O1P        -1.1050   -6.9040   -1.9540 o         1 PC7     -0.818000
     26 O2P        -3.2230   -5.5290   -1.1130 o         1 PC7     -0.818000
     27 O4P        -2.1220   -5.2710   -3.4250 os        1 PC7     -0.569200
     28 C4         -2.2310   -6.3030   -4.3330 c3        1 PC7      0.199400
     29 C5         -1.1080   -6.2310   -5.3870 c3        1 PC7      0.090800
     30 N           0.2530   -6.7450   -4.9940 n4        1 PC7     -0.581800
     31 C7          0.1700   -8.1270   -4.4360 c3        1 PC7      0.079100
     32 C8          1.0980   -6.7760   -6.2250 c3        1 PC7      0.079100
     33 C6          0.9010   -5.8390   -3.9990 c3        1 PC7      0.079100
     34 C3         -1.6510   -2.5620    1.5450 c3        1 PC7      0.114400
     35 O3         -2.4560   -1.4980    1.0150 os        1 PC7     -0.435900
     36 C11        -3.2970   -0.8700    1.8910 c         1 PC7      0.633100
     37 O11        -3.2840   -1.2190    3.0740 o         1 PC7     -0.545000
     38 C12        -4.1140    0.2000    1.2360 c3        1 PC7     -0.126400
     39 C13        -5.5480    0.1560    1.7210 c3        1 PC7     -0.080400
     40 C14        -6.3390    1.3210    1.1650 c3        1 PC7     -0.077400
     41 C15        -7.7790    1.2720    1.6300 c3        1 PC7     -0.079400
     42 C16        -8.5720    2.4380    1.0820 c3        1 PC7     -0.078400
     43 C17       -10.0120    2.3880    1.5450 c3        1 PC7     -0.079400
     44 C18       -10.8060    3.5550    0.9980 c3        1 PC7     -0.078400
     45 C19       -12.2470    3.5050    1.4610 c3        1 PC7     -0.079400
     46 C20       -13.0410    4.6710    0.9140 c3        1 PC7     -0.078400
     47 C21       -14.4810    4.6210    1.3770 c3        1 PC7     -0.079400
     48 C22       -15.2750    5.7880    0.8300 c3        1 PC7     -0.078400
     49 C23       -16.7160    5.7370    1.2930 c3        1 PC7     -0.079400
     50 C24       -17.5100    6.9040    0.7460 c3        1 PC7     -0.079400
     51 C25       -18.9510    6.8540    1.2080 c3        1 PC7     -0.080400
     52 C26       -19.7460    8.0140    0.6660 c3        1 PC7     -0.092100
     53 H481       22.1090    5.6940   -0.2190 hc        1 PC7      0.032700
     54 H482       20.8990    6.3160   -1.4150 hc        1 PC7      0.032700
     55 H483       20.7980    6.8230    0.3190 hc        1 PC7      0.032700
     56 H471       20.4170    3.9370   -0.7450 hc        1 PC7      0.038200
     57 H472       20.3170    4.4430    0.9850 hc        1 PC7      0.038200
     58 H461       18.4120    5.9900    0.4220 hc        1 PC7      0.039200
     59 H462       18.5120    5.4840   -1.3070 hc        1 PC7      0.039200
     60 H451       18.0670    3.0970   -0.6350 hc        1 PC7      0.039200
     61 H452       17.9670    3.6030    1.0950 hc        1 PC7      0.039200
     62 H441       16.0600    5.1490    0.5320 hc        1 PC7      0.039200
     63 H442       16.1600    4.6440   -1.1980 hc        1 PC7      0.039200
     64 H431       15.7160    2.2570   -0.5250 hc        1 PC7      0.039200
     65 H432       15.6160    2.7630    1.2050 hc        1 PC7      0.039200
     66 H421       13.7090    4.3090    0.6420 hc        1 PC7      0.039200
     67 H422       13.8090    3.8030   -1.0880 hc        1 PC7      0.039200
     68 H411       13.3650    1.4170   -0.4160 hc        1 PC7      0.039200
     69 H412       13.2650    1.9230    1.3140 hc        1 PC7      0.039200
     70 H401       11.3580    3.4690    0.7520 hc        1 PC7      0.039200
     71 H402       11.4580    2.9630   -0.9780 hc        1 PC7      0.039200
     72 H391       11.0140    0.5760   -0.3060 hc        1 PC7      0.039700
     73 H392       10.9140    1.0820    1.4230 hc        1 PC7      0.039700
     74 H381        9.0070    2.6280    0.8610 hc        1 PC7      0.039700
     75 H382        9.1070    2.1230   -0.8690 hc        1 PC7      0.039700
     76 H371        8.6640   -0.2640   -0.1980 hc        1 PC7      0.040200
     77 H372        8.5620    0.2420    1.5320 hc        1 PC7      0.040200
     78 H361        6.6550    1.7870    0.9690 hc        1 PC7      0.039200
     79 H362        6.7570    1.2830   -0.7610 hc        1 PC7      0.039200
     80 H351        6.3140   -1.1060   -0.0890 hc        1 PC7      0.041700
     81 H352        6.2100   -0.5990    1.6410 hc        1 PC7      0.041700
     82 H341        4.3050    0.9480    1.0740 hc        1 PC7      0.039700
     83 H342        4.4060    0.4390   -0.6550 hc        1 PC7      0.039700
     84 H331        3.9720   -1.9540    0.0330 hc        1 PC7      0.056700
     85 H332        3.8470   -1.4340    1.7570 hc        1 PC7      0.056700
     86 H321        1.9550    0.1500    1.1050 hc        1 PC7      0.075700
     87 H322        2.0370   -0.4980   -0.5870 hc        1 PC7      0.075700
     88 H2         -0.1610   -3.9400    0.7990 h1        1 PC7      0.094700
     89 H11        -2.5500   -3.4480   -0.6730 h1        1 PC7      0.068700
     90 H12        -1.2910   -2.4510   -1.5840 h1        1 PC7      0.068700
     91 H41        -2.2450   -7.3070   -3.8260 h1        1 PC7      0.054700
     92 H42        -3.1840   -6.1640   -4.9260 h1        1 PC7      0.054700
     93 H51        -1.4330   -6.8320   -6.2820 hx        1 PC7      0.079700
     94 H52        -0.9780   -5.1510   -5.6790 hx        1 PC7      0.079700
     95 H71        -0.4780   -8.7520   -5.1010 hx        1 PC7      0.100144
     96 H72         1.2020   -8.5620   -4.3870 hx        1 PC7      0.100144
     97 H73        -0.2640   -8.0940   -3.3880 hx        1 PC7      0.100144
     98 H81         1.1230   -5.7540   -6.6860 hx        1 PC7      0.100144
     99 H82         2.1410   -7.0880   -5.9540 hx        1 PC7      0.100144
    100 H83         0.6700   -7.5090   -6.9570 hx        1 PC7      0.100144
    101 H61         0.2750   -5.8240   -3.0520 hx        1 PC7      0.100144
    102 H62         1.9230   -6.2290   -3.7620 hx        1 PC7      0.100144
    103 H63         0.9610   -4.8050   -4.4250 hx        1 PC7      0.100144
    104 H31        -2.3270   -3.3990    1.8620 h1        1 PC7      0.071700
    105 H32        -1.0680   -2.1850    2.4260 h1        1 PC7      0.071700
    106 H121       -3.6450    1.1870    1.4960 hc        1 PC7      0.075200
    107 H122       -4.0720    0.0800    0.1220 hc        1 PC7      0.075200
    108 H131       -6.0220   -0.8100    1.4030 hc        1 PC7      0.059700
    109 H132       -5.5640    0.1800    2.8430 hc        1 PC7      0.059700
    110 H141       -5.8710    2.2860    1.4940 hc        1 PC7      0.039200
    111 H142       -6.3050    1.3000    0.0440 hc        1 PC7      0.039200
    112 H151       -8.2480    0.3080    1.2980 hc        1 PC7      0.043200
    113 H152       -7.8130    1.2870    2.7520 hc        1 PC7      0.043200
    114 H161       -8.1030    3.4020    1.4140 hc        1 PC7      0.038700
    115 H162       -8.5370    2.4230   -0.0400 hc        1 PC7      0.038700
    116 H171      -10.4810    1.4250    1.2120 hc        1 PC7      0.040700
    117 H172      -10.0470    2.4030    2.6670 hc        1 PC7      0.040700
    118 H181      -10.3380    4.5180    1.3310 hc        1 PC7      0.038700
    119 H182      -10.7710    3.5410   -0.1230 hc        1 PC7      0.038700
    120 H191      -12.7150    2.5410    1.1280 hc        1 PC7      0.039700
    121 H192      -12.2820    3.5190    2.5820 hc        1 PC7      0.039700
    122 H201      -12.5720    5.6350    1.2470 hc        1 PC7      0.038700
    123 H202      -13.0060    4.6570   -0.2070 hc        1 PC7      0.038700
    124 H211      -14.9500    3.6580    1.0440 hc        1 PC7      0.039700
    125 H212      -14.5160    4.6350    2.4980 hc        1 PC7      0.039700
    126 H221      -14.8070    6.7510    1.1630 hc        1 PC7      0.038700
    127 H222      -15.2400    5.7740   -0.2910 hc        1 PC7      0.038700
    128 H231      -17.1840    4.7740    0.9600 hc        1 PC7      0.039700
    129 H232      -16.7510    5.7510    2.4140 hc        1 PC7      0.039700
    130 H241      -17.0420    7.8670    1.0790 hc        1 PC7      0.039200
    131 H242      -17.4750    6.8900   -0.3750 hc        1 PC7      0.039200
    132 H251      -19.4170    5.8890    0.8760 hc        1 PC7      0.038700
    133 H252      -18.9840    6.8660    2.3300 hc        1 PC7      0.038700
    134 H261      -19.7450    8.0050   -0.4500 hc        1 PC7      0.032033
    135 H262      -20.8040    7.9580    1.0190 hc        1 PC7      0.032033
    136 H263      -19.3110    8.9840    1.0080 hc        1 PC7      0.032033
@<TRIPOS>BOND
     1    1    2 1   
     2    1   53 1   
     3    1   54 1   
     4    1   55 1   
     5    2    3 1   
     6    2   56 1   
     7    2   57 1   
     8    3    4 1   
     9    3   58 1   
    10    3   59 1   
    11    4    5 1   
    12    4   60 1   
    13    4   61 1   
    14    5    6 1   
    15    5   62 1   
    16    5   63 1   
    17    6    7 1   
    18    6   64 1   
    19    6   65 1   
    20    7    8 1   
    21    7   66 1   
    22    7   67 1   
    23    8    9 1   
    24    8   68 1   
    25    8   69 1   
    26    9   10 1   
    27    9   70 1   
    28    9   71 1   
    29   10   11 1   
    30   10   72 1   
    31   10   73 1   
    32   11   12 1   
    33   11   74 1   
    34   11   75 1   
    35   12   13 1   
    36   12   76 1   
    37   12   77 1   
    38   13   14 1   
    39   13   78 1   
    40   13   79 1   
    41   14   15 1   
    42   14   80 1   
    43   14   81 1   
    44   15   16 1   
    45   15   82 1   
    46   15   83 1   
    47   16   17 1   
    48   16   84 1   
    49   16   85 1   
    50   17   18 1   
    51   17   86 1   
    52   17   87 1   
    53   18   19 2   
    54   18   20 1   
    55   20   21 1   
    56   21   22 1   
    57   21   34 1   
    58   21   88 1   
    59   22   23 1   
    60   22   89 1   
    61   22   90 1   
    62   23   24 1   
    63   24   25 1   
    64   24   26 1   
    65   24   27 1   
    66   27   28 1   
    67   28   29 1   
    68   28   91 1   
    69   28   92 1   
    70   29   30 1   
    71   29   93 1   
    72   29   94 1   
    73   30   31 1   
    74   30   32 1   
    75   30   33 1   
    76   31   95 1   
    77   31   96 1   
    78   31   97 1   
    79   32   98 1   
    80   32   99 1   
    81   32  100 1   
    82   33  101 1   
    83   33  102 1   
    84   33  103 1   
    85   34   35 1   
    86   34  104 1   
    87   34  105 1   
    88   35   36 1   
    89   36   37 2   
    90   36   38 1   
    91   38   39 1   
    92   38  106 1   
    93   38  107 1   
    94   39   40 1   
    95   39  108 1   
    96   39  109 1   
    97   40   41 1   
    98   40  110 1   
    99   40  111 1   
   100   41   42 1   
   101   41  112 1   
   102   41  113 1   
   103   42   43 1   
   104   42  114 1   
   105   42  115 1   
   106   43   44 1   
   107   43  116 1   
   108   43  117 1   
   109   44   45 1   
   110   44  118 1   
   111   44  119 1   
   112   45   46 1   
   113   45  120 1   
   114   45  121 1   
   115   46   47 1   
   116   46  122 1   
   117   46  123 1   
   118   47   48 1   
   119   47  124 1   
   120   47  125 1   
   121   48   49 1   
   122   48  126 1   
   123   48  127 1   
   124   49   50 1   
   125   49  128 1   
   126   49  129 1   
   127   50   51 1   
   128   50  130 1   
   129   50  131 1   
   130   51   52 1   
   131   51  132 1   
   132   51  133 1   
   133   52  134 1   
   134   52  135 1   
   135   52  136 1   
@<TRIPOS>SUBSTRUCTURE
     1 PC7         1 TEMP              0 ****  ****    0 ROOT
