@<TRIPOS>MOLECULE
PC7
  136   135     1     0     0
SMALL
bcc


@<TRIPOS>ATOM
      1 C48         0.4100    1.0160    0.1640 c3        1 PC7     -0.092100
      2 C47         1.9040    0.8530    0.2750 c3        1 PC7     -0.080400
      3 C46         2.3510    0.7930    1.7200 c3        1 PC7     -0.079400
      4 C45         3.8520    0.6280    1.8260 c3        1 PC7     -0.079400
      5 C44         4.2980    0.5680    3.2720 c3        1 PC7     -0.079400
      6 C43         5.7980    0.4040    3.3780 c3        1 PC7     -0.079400
      7 C42         6.2440    0.3440    4.8230 c3        1 PC7     -0.079400
      8 C41         7.7450    0.1790    4.9290 c3        1 PC7     -0.079400
      9 C40         8.1900    0.1170    6.3740 c3        1 PC7     -0.079400
     10 C39         9.6910   -0.0480    6.4800 c3        1 PC7     -0.079400
     11 C38        10.1370   -0.1110    7.9250 c3        1 PC7     -0.079400
     12 C37        11.6370   -0.2780    8.0310 c3        1 PC7     -0.079400
     13 C36        12.0830   -0.3420    9.4760 c3        1 PC7     -0.079400
     14 C35        13.5840   -0.5110    9.5810 c3        1 PC7     -0.078400
     15 C34        14.0290   -0.5770   11.0260 c3        1 PC7     -0.078400
     16 C33        15.5300   -0.7440   11.1260 c3        1 PC7     -0.079400
     17 C32        15.9670   -0.8300   12.5730 c3        1 PC7     -0.128400
     18 C31        17.4610   -0.8580   12.6820 c         1 PC7      0.632100
     19 O31        18.2910   -0.2500   12.0020 o         1 PC7     -0.549000
     20 O2         17.8920   -1.6650   13.6950 os        1 PC7     -0.430900
     21 C2         19.3110   -1.7740   13.9180 c3        1 PC7      0.128100
     22 C1         19.5160   -3.1270   14.6170 c3        1 PC7      0.175400
     23 O3P        19.9550   -4.0690   13.6800 os        1 PC7     -0.584200
     24 P          21.3500   -4.8590   13.9910 p5        1 PC7      1.439800
     25 O1P        21.8080   -5.4010   12.6890 o         1 PC7     -0.818000
     26 O2P        22.1230   -4.1850   15.0350 o         1 PC7     -0.818000
     27 O4P        20.6020   -6.2210   14.6230 os        1 PC7     -0.569200
     28 C4         21.1820   -7.4400   14.3450 c3        1 PC7      0.199400
     29 C5         20.1930   -8.3660   13.6080 c3        1 PC7      0.090800
     30 N          19.9960   -8.1430   12.1310 n4        1 PC7     -0.581800
     31 C7         21.3010   -8.1190   11.4080 c3        1 PC7      0.079100
     32 C8         19.1800   -9.2800   11.6080 c3        1 PC7      0.079100
     33 C6         19.2550   -6.8730   11.8750 c3        1 PC7      0.079100
     34 C3         19.7990   -0.5990   14.7590 c3        1 PC7      0.114400
     35 O3         19.2290   -0.7370   16.0700 os        1 PC7     -0.435900
     36 C11        19.4770    0.2740   16.9560 c         1 PC7      0.633100
     37 O11        20.1230    1.2500   16.5710 o         1 PC7     -0.545000
     38 C12        18.8730    0.0190   18.3030 c3        1 PC7     -0.126400
     39 C13        19.8600    0.3430   19.4050 c3        1 PC7     -0.080400
     40 C14        19.2080    0.2140   20.7650 c3        1 PC7     -0.077400
     41 C15        20.1960    0.5160   21.8710 c3        1 PC7     -0.079400
     42 C16        19.5480    0.3920   23.2340 c3        1 PC7     -0.078400
     43 C17        20.5370    0.6900   24.3400 c3        1 PC7     -0.079400
     44 C18        19.8900    0.5660   25.7030 c3        1 PC7     -0.078400
     45 C19        20.8790    0.8620   26.8100 c3        1 PC7     -0.079400
     46 C20        20.2320    0.7370   28.1730 c3        1 PC7     -0.078400
     47 C21        21.2220    1.0320   29.2800 c3        1 PC7     -0.079400
     48 C22        20.5760    0.9060   30.6430 c3        1 PC7     -0.078400
     49 C23        21.5660    1.2000   31.7490 c3        1 PC7     -0.079400
     50 C24        20.9200    1.0740   33.1120 c3        1 PC7     -0.079400
     51 C25        21.9090    1.3680   34.2200 c3        1 PC7     -0.080400
     52 C26        21.2710    1.2440   35.5800 c3        1 PC7     -0.092100
     53 H481       -0.1170    0.1600    0.6490 hc        1 PC7      0.032700
     54 H482        0.0790    1.9590    0.6630 hc        1 PC7      0.032700
     55 H483        0.1030    1.0590   -0.9090 hc        1 PC7      0.032700
     56 H471        2.2210   -0.0850   -0.2540 hc        1 PC7      0.038200
     57 H472        2.4160    1.7090   -0.2390 hc        1 PC7      0.038200
     58 H461        1.8410   -0.0640    2.2350 hc        1 PC7      0.039200
     59 H462        2.0370    1.7310    2.2490 hc        1 PC7      0.039200
     60 H451        4.3620    1.4850    1.3110 hc        1 PC7      0.039200
     61 H452        4.1660   -0.3090    1.2970 hc        1 PC7      0.039200
     62 H441        3.9840    1.5060    3.8010 hc        1 PC7      0.039200
     63 H442        3.7880   -0.2880    3.7870 hc        1 PC7      0.039200
     64 H431        6.1120   -0.5340    2.8480 hc        1 PC7      0.039200
     65 H432        6.3080    1.2610    2.8630 hc        1 PC7      0.039200
     66 H421        5.9300    1.2820    5.3530 hc        1 PC7      0.039200
     67 H422        5.7340   -0.5130    5.3380 hc        1 PC7      0.039200
     68 H411        8.0590   -0.7590    4.3990 hc        1 PC7      0.039200
     69 H412        8.2550    1.0360    4.4140 hc        1 PC7      0.039200
     70 H401        7.6800   -0.7390    6.8890 hc        1 PC7      0.039200
     71 H402        7.8770    1.0560    6.9040 hc        1 PC7      0.039200
     72 H391       10.0040   -0.9860    5.9490 hc        1 PC7      0.039700
     73 H392       10.2010    0.8080    5.9660 hc        1 PC7      0.039700
     74 H381        9.8250    0.8270    8.4560 hc        1 PC7      0.039700
     75 H382        9.6260   -0.9670    8.4400 hc        1 PC7      0.039700
     76 H371       11.9500   -1.2150    7.4990 hc        1 PC7      0.040200
     77 H372       12.1490    0.5790    7.5170 hc        1 PC7      0.040200
     78 H361       11.7720    0.5970   10.0070 hc        1 PC7      0.039200
     79 H362       11.5710   -1.1970    9.9900 hc        1 PC7      0.039200
     80 H351       13.8950   -1.4480    9.0480 hc        1 PC7      0.041700
     81 H352       14.0960    0.3460    9.0690 hc        1 PC7      0.041700
     82 H341       13.5180   -1.4340   11.5390 hc        1 PC7      0.039700
     83 H342       13.7170    0.3600   11.5580 hc        1 PC7      0.039700
     84 H331       15.8450   -1.6730   10.5820 hc        1 PC7      0.056700
     85 H332       16.0480    0.1200   10.6310 hc        1 PC7      0.056700
     86 H321       15.6070    0.0680   13.1430 hc        1 PC7      0.075700
     87 H322       15.5360   -1.7420   13.0630 hc        1 PC7      0.075700
     88 H2         19.8480   -1.7460   12.9280 h1        1 PC7      0.094700
     89 H11        18.5300   -3.4710   15.0390 h1        1 PC7      0.068700
     90 H12        20.2710   -3.0110   15.4450 h1        1 PC7      0.068700
     91 H41        21.3930   -7.9710   15.3210 h1        1 PC7      0.054700
     92 H42        22.1380   -7.3250   13.7630 h1        1 PC7      0.054700
     93 H51        20.5550   -9.4250   13.7300 hx        1 PC7      0.079700
     94 H52        19.1840   -8.2480   14.0950 hx        1 PC7      0.079700
     95 H71        21.8390   -7.1420   11.6150 hx        1 PC7      0.100144
     96 H72        21.9260   -8.9820   11.7520 hx        1 PC7      0.100144
     97 H73        21.1080   -8.1990   10.3070 hx        1 PC7      0.100144
     98 H81        19.7520  -10.2380   11.7220 hx        1 PC7      0.100144
     99 H82        18.2190   -9.3440   12.1820 hx        1 PC7      0.100144
    100 H83        18.9550   -9.1080   10.5230 hx        1 PC7      0.100144
    101 H61        19.8770   -6.0010   12.2530 hx        1 PC7      0.100144
    102 H62        19.0910   -6.7620   10.7730 hx        1 PC7      0.100144
    103 H63        18.2770   -6.8990   12.4190 hx        1 PC7      0.100144
    104 H31        19.4680    0.3750   14.3110 h1        1 PC7      0.071700
    105 H32        20.9160   -0.6190   14.8490 h1        1 PC7      0.071700
    106 H121       17.9620    0.6700   18.3910 hc        1 PC7      0.075200
    107 H122       18.5420   -1.0500   18.3740 hc        1 PC7      0.075200
    108 H131       20.2500    1.3860   19.2620 hc        1 PC7      0.059700
    109 H132       20.7380   -0.3510   19.3380 hc        1 PC7      0.059700
    110 H141       18.8050   -0.8250   20.8930 hc        1 PC7      0.039200
    111 H142       18.3380    0.9190   20.8350 hc        1 PC7      0.039200
    112 H151       21.0650   -0.1900   21.8020 hc        1 PC7      0.043200
    113 H152       20.6020    1.5540   21.7400 hc        1 PC7      0.043200
    114 H161       19.1400   -0.6450   23.3630 hc        1 PC7      0.038700
    115 H162       18.6800    1.1000   23.3030 hc        1 PC7      0.038700
    116 H171       20.9450    1.7270   24.2110 hc        1 PC7      0.040700
    117 H172       21.4040   -0.0180   24.2700 hc        1 PC7      0.040700
    118 H181       19.0230    1.2740   25.7740 hc        1 PC7      0.038700
    119 H182       19.4800   -0.4710   25.8320 hc        1 PC7      0.038700
    120 H191       21.2880    1.8990   26.6810 hc        1 PC7      0.039700
    121 H192       21.7460    0.1540   26.7390 hc        1 PC7      0.039700
    122 H201       19.3660    1.4450   28.2450 hc        1 PC7      0.038700
    123 H202       19.8230   -0.3000   28.3010 hc        1 PC7      0.038700
    124 H211       22.0890    0.3230   29.2070 hc        1 PC7      0.039700
    125 H212       21.6310    2.0680   29.1520 hc        1 PC7      0.039700
    126 H221       20.1660   -0.1310   30.7700 hc        1 PC7      0.039200
    127 H222       19.7090    1.6150   30.7150 hc        1 PC7      0.039200
    128 H231       22.4330    0.4920   31.6770 hc        1 PC7      0.039700
    129 H232       21.9750    2.2370   31.6220 hc        1 PC7      0.039700
    130 H241       20.0530    1.7830   33.1850 hc        1 PC7      0.039200
    131 H242       20.5110    0.0370   33.2400 hc        1 PC7      0.039200
    132 H251       22.7760    0.6600   34.1450 hc        1 PC7      0.038700
    133 H252       22.3190    2.4050   34.0900 hc        1 PC7      0.038700
    134 H261       20.4200    1.9600   35.6830 hc        1 PC7      0.032033
    135 H262       20.8780    0.2100   35.7380 hc        1 PC7      0.032033
    136 H263       22.0170    1.4640   36.3810 hc        1 PC7      0.032033
@<TRIPOS>BOND
     1    1    2 1   
     2    1   53 1   
     3    1   54 1   
     4    1   55 1   
     5    2    3 1   
     6    2   56 1   
     7    2   57 1   
     8    3    4 1   
     9    3   58 1   
    10    3   59 1   
    11    4    5 1   
    12    4   60 1   
    13    4   61 1   
    14    5    6 1   
    15    5   62 1   
    16    5   63 1   
    17    6    7 1   
    18    6   64 1   
    19    6   65 1   
    20    7    8 1   
    21    7   66 1   
    22    7   67 1   
    23    8    9 1   
    24    8   68 1   
    25    8   69 1   
    26    9   10 1   
    27    9   70 1   
    28    9   71 1   
    29   10   11 1   
    30   10   72 1   
    31   10   73 1   
    32   11   12 1   
    33   11   74 1   
    34   11   75 1   
    35   12   13 1   
    36   12   76 1   
    37   12   77 1   
    38   13   14 1   
    39   13   78 1   
    40   13   79 1   
    41   14   15 1   
    42   14   80 1   
    43   14   81 1   
    44   15   16 1   
    45   15   82 1   
    46   15   83 1   
    47   16   17 1   
    48   16   84 1   
    49   16   85 1   
    50   17   18 1   
    51   17   86 1   
    52   17   87 1   
    53   18   19 2   
    54   18   20 1   
    55   20   21 1   
    56   21   22 1   
    57   21   34 1   
    58   21   88 1   
    59   22   23 1   
    60   22   89 1   
    61   22   90 1   
    62   23   24 1   
    63   24   25 1   
    64   24   26 1   
    65   24   27 1   
    66   27   28 1   
    67   28   29 1   
    68   28   91 1   
    69   28   92 1   
    70   29   30 1   
    71   29   93 1   
    72   29   94 1   
    73   30   31 1   
    74   30   32 1   
    75   30   33 1   
    76   31   95 1   
    77   31   96 1   
    78   31   97 1   
    79   32   98 1   
    80   32   99 1   
    81   32  100 1   
    82   33  101 1   
    83   33  102 1   
    84   33  103 1   
    85   34   35 1   
    86   34  104 1   
    87   34  105 1   
    88   35   36 1   
    89   36   37 2   
    90   36   38 1   
    91   38   39 1   
    92   38  106 1   
    93   38  107 1   
    94   39   40 1   
    95   39  108 1   
    96   39  109 1   
    97   40   41 1   
    98   40  110 1   
    99   40  111 1   
   100   41   42 1   
   101   41  112 1   
   102   41  113 1   
   103   42   43 1   
   104   42  114 1   
   105   42  115 1   
   106   43   44 1   
   107   43  116 1   
   108   43  117 1   
   109   44   45 1   
   110   44  118 1   
   111   44  119 1   
   112   45   46 1   
   113   45  120 1   
   114   45  121 1   
   115   46   47 1   
   116   46  122 1   
   117   46  123 1   
   118   47   48 1   
   119   47  124 1   
   120   47  125 1   
   121   48   49 1   
   122   48  126 1   
   123   48  127 1   
   124   49   50 1   
   125   49  128 1   
   126   49  129 1   
   127   50   51 1   
   128   50  130 1   
   129   50  131 1   
   130   51   52 1   
   131   51  132 1   
   132   51  133 1   
   133   52  134 1   
   134   52  135 1   
   135   52  136 1   
@<TRIPOS>SUBSTRUCTURE
     1 PC7         1 TEMP              0 ****  ****    0 ROOT
