@<TRIPOS>MOLECULE
PC8
   82    81     1     0     0
SMALL
bcc


@<TRIPOS>ATOM
      1 O1          1.5190    5.2250    0.2710 o         1 PC8     -0.814500
      2 O2          0.1940    4.3860    2.4330 o         1 PC8     -0.814500
      3 P1          0.8610    4.2230    1.1420 p5        1 PC8      1.438800
      4 O3          2.0690    3.0730    1.2860 os        1 PC8     -0.577200
      5 C1          3.3770    3.4970    1.1700 c3        1 PC8      0.197400
      6 C2          4.0620    2.8560   -0.0520 c3        1 PC8      0.079800
      7 N1          3.8840    3.5270   -1.3900 n4        1 PC8     -0.576800
      8 C3          4.1610    4.9890   -1.3060 c3        1 PC8      0.075433
      9 C4          4.8540    2.9000   -2.3380 c3        1 PC8      0.075433
     10 C5          2.5070    3.3100   -1.9230 c3        1 PC8      0.075433
     11 O4         -0.0500    3.3030    0.1370 os        1 PC8     -0.580200
     12 C6         -0.7660    2.2970    0.8000 c3        1 PC8      0.175400
     13 C7         -1.3710    1.3810   -0.2700 c3        1 PC8      0.135100
     14 C8         -0.3100    0.5760   -1.0180 c3        1 PC8      0.112400
     15 O5          0.3530   -0.2940   -0.0900 os        1 PC8     -0.419900
     16 C9          1.7090   -0.3750   -0.1150 c         1 PC8      0.664100
     17 O6          2.3420    0.2130   -1.0020 o         1 PC8     -0.610000
     18 C10         2.2480   -1.2090    1.0070 c3        1 PC8     -0.135400
     19 C11         3.4810   -1.9770    0.5820 c3        1 PC8     -0.075400
     20 C12         4.0930   -2.7040    1.7600 c3        1 PC8     -0.080400
     21 C13         5.3170   -3.4890    1.3390 c3        1 PC8     -0.078400
     22 C14         5.9350   -4.2120    2.5170 c3        1 PC8     -0.080400
     23 C15         7.1590   -4.9990    2.0990 c3        1 PC8     -0.079400
     24 C16         7.7780   -5.7200    3.2680 c3        1 PC8     -0.093100
     25 O7         -2.2770    0.5190    0.4360 os        1 PC8     -0.426900
     26 C17        -3.2560   -0.1050   -0.2850 c         1 PC8      0.638100
     27 O8         -3.2930    0.0620   -1.5070 o         1 PC8     -0.555000
     28 C18        -4.1460   -0.9470    0.5760 c3        1 PC8     -0.127400
     29 C19        -5.5840   -0.8710    0.1060 c3        1 PC8     -0.079400
     30 C20        -6.4560   -1.8280    0.8900 c3        1 PC8     -0.078400
     31 C21        -7.8980   -1.7450    0.4380 c3        1 PC8     -0.079400
     32 C22        -8.7720   -2.7040    1.2170 c3        1 PC8     -0.079400
     33 C23       -10.2160   -2.6220    0.7670 c3        1 PC8     -0.080400
     34 C24       -11.0910   -3.5750    1.5390 c3        1 PC8     -0.092100
     35 H1          3.4480    4.6190    1.1440 h1        1 PC8      0.053200
     36 H2          3.9540    3.1060    2.0610 h1        1 PC8      0.053200
     37 H3          5.1700    2.8320    0.1480 hx        1 PC8      0.091200
     38 H4          3.6670    1.8020   -0.1610 hx        1 PC8      0.091200
     39 H5          5.1060    5.1520   -0.7290 hx        1 PC8      0.100811
     40 H6          4.2700    5.4000   -2.3420 hx        1 PC8      0.100811
     41 H7          3.2950    5.5120   -0.7920 hx        1 PC8      0.100811
     42 H8          4.6980    3.3240   -3.3640 hx        1 PC8      0.100811
     43 H9          5.9010    3.1130   -2.0010 hx        1 PC8      0.100811
     44 H10         4.6790    1.7910   -2.3610 hx        1 PC8      0.100811
     45 H11         1.7600    3.7780   -1.2100 hx        1 PC8      0.100811
     46 H12         2.4250    3.8020   -2.9260 hx        1 PC8      0.100811
     47 H13         2.3110    2.2080   -2.0050 hx        1 PC8      0.100811
     48 H14        -1.5720    2.7660    1.4260 h1        1 PC8      0.056700
     49 H15        -0.0680    1.7190    1.4640 h1        1 PC8      0.056700
     50 H16        -1.9380    1.9880   -1.0310 h1        1 PC8      0.087700
     51 H17         0.4120    1.2890   -1.4960 h1        1 PC8      0.074700
     52 H18        -0.7870   -0.0910   -1.7840 h1        1 PC8      0.074700
     53 H19         1.4500   -1.9110    1.3690 hc        1 PC8      0.088700
     54 H20         2.4900   -0.5060    1.8510 hc        1 PC8      0.088700
     55 H21         4.2280   -1.2680    0.1380 hc        1 PC8      0.049700
     56 H22         3.2080   -2.7140   -0.2190 hc        1 PC8      0.049700
     57 H23         3.3360   -3.4000    2.2080 hc        1 PC8      0.044700
     58 H24         4.3750   -1.9640    2.5550 hc        1 PC8      0.044700
     59 H25         6.0720   -2.7940    0.8860 hc        1 PC8      0.039200
     60 H26         5.0340   -4.2320    0.5480 hc        1 PC8      0.039200
     61 H27         5.1800   -4.9070    2.9700 hc        1 PC8      0.041700
     62 H28         6.2180   -3.4700    3.3080 hc        1 PC8      0.041700
     63 H29         7.9130   -4.3030    1.6430 hc        1 PC8      0.037700
     64 H30         6.8740   -5.7400    1.3060 hc        1 PC8      0.037700
     65 H31         8.0910   -4.9950    4.0580 hc        1 PC8      0.034033
     66 H32         7.0500   -6.4360    3.7200 hc        1 PC8      0.034033
     67 H33         8.6780   -6.2930    2.9380 hc        1 PC8      0.034033
     68 H34        -3.7690   -2.0030    0.5150 hc        1 PC8      0.079200
     69 H35        -4.0630   -0.6130    1.6440 hc        1 PC8      0.079200
     70 H36        -5.9650    0.1760    0.2280 hc        1 PC8      0.057700
     71 H37        -5.6320   -1.1160   -0.9890 hc        1 PC8      0.057700
     72 H38        -6.0800   -2.8770    0.7570 hc        1 PC8      0.040700
     73 H39        -6.3890   -1.5890    1.9840 hc        1 PC8      0.040700
     74 H40        -8.2750   -0.6970    0.5750 hc        1 PC8      0.042700
     75 H41        -7.9630   -1.9800   -0.6570 hc        1 PC8      0.042700
     76 H42        -8.3960   -3.7520    1.0800 hc        1 PC8      0.039200
     77 H43        -8.7070   -2.4700    2.3120 hc        1 PC8      0.039200
     78 H44       -10.5900   -1.5720    0.9040 hc        1 PC8      0.039200
     79 H45       -10.2790   -2.8540   -0.3290 hc        1 PC8      0.039200
     80 H46       -10.7480   -4.6290    1.3950 hc        1 PC8      0.032367
     81 H47       -11.0600   -3.3440    2.6310 hc        1 PC8      0.032367
     82 H48       -12.1490   -3.4980    1.1920 hc        1 PC8      0.032367
@<TRIPOS>BOND
     1    1    3 1   
     2    2    3 1   
     3    3    4 1   
     4    3   11 1   
     5    4    5 1   
     6    5    6 1   
     7    5   35 1   
     8    5   36 1   
     9    6    7 1   
    10    6   37 1   
    11    6   38 1   
    12    7    8 1   
    13    7    9 1   
    14    7   10 1   
    15    8   39 1   
    16    8   40 1   
    17    8   41 1   
    18    9   42 1   
    19    9   43 1   
    20    9   44 1   
    21   10   45 1   
    22   10   46 1   
    23   10   47 1   
    24   11   12 1   
    25   12   13 1   
    26   12   48 1   
    27   12   49 1   
    28   13   14 1   
    29   13   25 1   
    30   13   50 1   
    31   14   15 1   
    32   14   51 1   
    33   14   52 1   
    34   15   16 1   
    35   16   17 2   
    36   16   18 1   
    37   18   19 1   
    38   18   53 1   
    39   18   54 1   
    40   19   20 1   
    41   19   55 1   
    42   19   56 1   
    43   20   21 1   
    44   20   57 1   
    45   20   58 1   
    46   21   22 1   
    47   21   59 1   
    48   21   60 1   
    49   22   23 1   
    50   22   61 1   
    51   22   62 1   
    52   23   24 1   
    53   23   63 1   
    54   23   64 1   
    55   24   65 1   
    56   24   66 1   
    57   24   67 1   
    58   25   26 1   
    59   26   27 2   
    60   26   28 1   
    61   28   29 1   
    62   28   68 1   
    63   28   69 1   
    64   29   30 1   
    65   29   70 1   
    66   29   71 1   
    67   30   31 1   
    68   30   72 1   
    69   30   73 1   
    70   31   32 1   
    71   31   74 1   
    72   31   75 1   
    73   32   33 1   
    74   32   76 1   
    75   32   77 1   
    76   33   34 1   
    77   33   78 1   
    78   33   79 1   
    79   34   80 1   
    80   34   81 1   
    81   34   82 1   
@<TRIPOS>SUBSTRUCTURE
     1 PC8         1 TEMP              0 ****  ****    0 ROOT
