@<TRIPOS>MOLECULE
PC8
   82    81     1     0     0
SMALL
bcc


@<TRIPOS>ATOM
      1 O1          0.8550   -2.2560    1.9070 o         1 PC8     -0.814500
      2 O2          3.5230   -2.3640    1.9520 o         1 PC8     -0.814500
      3 P1          2.2260   -1.7250    1.7300 p5        1 PC8      1.438800
      4 O3          2.1460   -0.3130    2.6260 os        1 PC8     -0.577200
      5 C1          1.2540   -0.2700    3.6780 c3        1 PC8      0.197400
      6 C2          0.1710    0.8020    3.4430 c3        1 PC8      0.079800
      7 N1         -1.0370    0.4140    2.6300 n4        1 PC8     -0.576800
      8 C3         -1.6250   -0.8690    3.1080 c3        1 PC8      0.075433
      9 C4         -2.0480    1.5040    2.7840 c3        1 PC8      0.075433
     10 C5         -0.6970    0.2970    1.1810 c3        1 PC8      0.075433
     11 O4          2.2090   -0.9440    0.2890 os        1 PC8     -0.580200
     12 C6          3.4460   -0.3820   -0.0540 c3        1 PC8      0.175400
     13 C7          3.2240    0.5070   -1.2830 c3        1 PC8      0.135100
     14 C8          2.3890    1.7450   -0.9660 c3        1 PC8      0.112400
     15 O5          3.1030    2.5580   -0.0230 os        1 PC8     -0.419900
     16 C9          2.4360    3.0630    1.0480 c         1 PC8      0.664100
     17 O6          1.2100    2.9100    1.1360 o         1 PC8     -0.610000
     18 C10         3.3520    3.7610    2.0070 c3        1 PC8     -0.135400
     19 C11         2.6730    4.9480    2.6550 c3        1 PC8     -0.075400
     20 C12         3.5590    5.5580    3.7200 c3        1 PC8     -0.080400
     21 C13         2.8940    6.7570    4.3620 c3        1 PC8     -0.078400
     22 C14         3.7750    7.3650    5.4310 c3        1 PC8     -0.080400
     23 C15         3.1130    8.5650    6.0740 c3        1 PC8     -0.079400
     24 C16         3.9870    9.1740    7.1390 c3        1 PC8     -0.093100
     25 O7          4.5400    0.8660   -1.7340 os        1 PC8     -0.426900
     26 C17         4.6760    1.2920   -3.0260 c         1 PC8      0.638100
     27 O8          3.6680    1.3890   -3.7300 o         1 PC8     -0.555000
     28 C18         6.0990    1.6040   -3.3730 c3        1 PC8     -0.127400
     29 C19         6.4140    1.1870   -4.7940 c3        1 PC8     -0.079400
     30 C20         7.8080    1.6290   -5.1860 c3        1 PC8     -0.078400
     31 C21         8.1380    1.1980   -6.5990 c3        1 PC8     -0.079400
     32 C22         9.5290    1.6430   -6.9970 c3        1 PC8     -0.079400
     33 C23         9.8610    1.2120   -8.4100 c3        1 PC8     -0.080400
     34 C24        11.2450    1.6530   -8.8110 c3        1 PC8     -0.092100
     35 H1          1.8100    0.0820    4.5980 h1        1 PC8      0.053200
     36 H2          0.8010   -1.2790    3.8790 h1        1 PC8      0.053200
     37 H3         -0.2130    1.1290    4.4500 hx        1 PC8      0.091200
     38 H4          0.6550    1.6760    2.9130 hx        1 PC8      0.091200
     39 H5         -2.6460   -0.9910    2.6630 hx        1 PC8      0.100811
     40 H6         -1.6960   -0.8470    4.2260 hx        1 PC8      0.100811
     41 H7         -0.9730   -1.7350    2.7760 hx        1 PC8      0.100811
     42 H8         -2.3780    1.5620    3.8530 hx        1 PC8      0.100811
     43 H9         -1.5870    2.4790    2.4720 hx        1 PC8      0.100811
     44 H10        -2.9330    1.2840    2.1310 hx        1 PC8      0.100811
     45 H11         0.0730   -0.5230    1.0500 hx        1 PC8      0.100811
     46 H12        -0.2740    1.2730    0.8200 hx        1 PC8      0.100811
     47 H13        -1.6240    0.0340    0.6110 hx        1 PC8      0.100811
     48 H14         4.1770   -1.2030   -0.2810 h1        1 PC8      0.056700
     49 H15         3.8300    0.2290    0.8080 h1        1 PC8      0.056700
     50 H16         2.6890   -0.0690   -2.0900 h1        1 PC8      0.087700
     51 H17         1.3990    1.4160   -0.5550 h1        1 PC8      0.074700
     52 H18         2.2560    2.3780   -1.8830 h1        1 PC8      0.074700
     53 H19         3.6530    3.0040    2.7820 hc        1 PC8      0.088700
     54 H20         4.2830    4.0840    1.4690 hc        1 PC8      0.088700
     55 H21         1.6990    4.6210    3.1070 hc        1 PC8      0.049700
     56 H22         2.4330    5.7170    1.8750 hc        1 PC8      0.049700
     57 H23         3.7900    4.7900    4.5050 hc        1 PC8      0.044700
     58 H24         4.5360    5.8690    3.2640 hc        1 PC8      0.044700
     59 H25         1.9140    6.4470    4.8130 hc        1 PC8      0.039200
     60 H26         2.6680    7.5270    3.5770 hc        1 PC8      0.039200
     61 H27         4.0020    6.5960    6.2160 hc        1 PC8      0.041700
     62 H28         4.7550    7.6750    4.9800 hc        1 PC8      0.041700
     63 H29         2.1320    8.2550    6.5220 hc        1 PC8      0.037700
     64 H30         2.8870    9.3330    5.2870 hc        1 PC8      0.037700
     65 H31         4.2030    8.4310    7.9450 hc        1 PC8      0.034033
     66 H32         3.4800   10.0560    7.6000 hc        1 PC8      0.034033
     67 H33         4.9590    9.5130    6.7060 hc        1 PC8      0.034033
     68 H34         6.2370    2.7120   -3.2500 hc        1 PC8      0.079200
     69 H35         6.7850    1.0900   -2.6490 hc        1 PC8      0.079200
     70 H36         6.3300    0.0720   -4.8860 hc        1 PC8      0.057700
     71 H37         5.6580    1.6360   -5.4920 hc        1 PC8      0.057700
     72 H38         7.8880    2.7450   -5.1040 hc        1 PC8      0.040700
     73 H39         8.5570    1.1900   -4.4750 hc        1 PC8      0.040700
     74 H40         8.0620    0.0820   -6.6800 hc        1 PC8      0.042700
     75 H41         7.3860    1.6330   -7.3100 hc        1 PC8      0.042700
     76 H42        10.2810    1.2080   -6.2860 hc        1 PC8      0.039200
     77 H43         9.6050    2.7590   -6.9170 hc        1 PC8      0.039200
     78 H44         9.1070    1.6460   -9.1190 hc        1 PC8      0.039200
     79 H45         9.7830    0.0960   -8.4890 hc        1 PC8      0.039200
     80 H46        11.4690    1.3250   -9.8550 hc        1 PC8      0.032367
     81 H47        12.0120    1.2100   -8.1300 hc        1 PC8      0.032367
     82 H48        11.3350    2.7650   -8.7630 hc        1 PC8      0.032367
@<TRIPOS>BOND
     1    1    3 1   
     2    2    3 1   
     3    3    4 1   
     4    3   11 1   
     5    4    5 1   
     6    5    6 1   
     7    5   35 1   
     8    5   36 1   
     9    6    7 1   
    10    6   37 1   
    11    6   38 1   
    12    7    8 1   
    13    7    9 1   
    14    7   10 1   
    15    8   39 1   
    16    8   40 1   
    17    8   41 1   
    18    9   42 1   
    19    9   43 1   
    20    9   44 1   
    21   10   45 1   
    22   10   46 1   
    23   10   47 1   
    24   11   12 1   
    25   12   13 1   
    26   12   48 1   
    27   12   49 1   
    28   13   14 1   
    29   13   25 1   
    30   13   50 1   
    31   14   15 1   
    32   14   51 1   
    33   14   52 1   
    34   15   16 1   
    35   16   17 2   
    36   16   18 1   
    37   18   19 1   
    38   18   53 1   
    39   18   54 1   
    40   19   20 1   
    41   19   55 1   
    42   19   56 1   
    43   20   21 1   
    44   20   57 1   
    45   20   58 1   
    46   21   22 1   
    47   21   59 1   
    48   21   60 1   
    49   22   23 1   
    50   22   61 1   
    51   22   62 1   
    52   23   24 1   
    53   23   63 1   
    54   23   64 1   
    55   24   65 1   
    56   24   66 1   
    57   24   67 1   
    58   25   26 1   
    59   26   27 2   
    60   26   28 1   
    61   28   29 1   
    62   28   68 1   
    63   28   69 1   
    64   29   30 1   
    65   29   70 1   
    66   29   71 1   
    67   30   31 1   
    68   30   72 1   
    69   30   73 1   
    70   31   32 1   
    71   31   74 1   
    72   31   75 1   
    73   32   33 1   
    74   32   76 1   
    75   32   77 1   
    76   33   34 1   
    77   33   78 1   
    78   33   79 1   
    79   34   80 1   
    80   34   81 1   
    81   34   82 1   
@<TRIPOS>SUBSTRUCTURE
     1 PC8         1 TEMP              0 ****  ****    0 ROOT
