@<TRIPOS>MOLECULE
PC8
   82    81     1     0     0
SMALL
bcc


@<TRIPOS>ATOM
      1 O1          1.8660   -2.2520    0.7760 o         1 PC8     -0.819500
      2 O2          3.2900   -0.4970    2.0880 o         1 PC8     -0.819500
      3 P1          2.2410   -0.8650    1.1270 p5        1 PC8      1.428800
      4 O3          0.8150   -0.3190    1.8320 os        1 PC8     -0.577200
      5 C1          0.7170   -0.4930    3.1960 c3        1 PC8      0.190400
      6 C2         -0.5400   -1.3080    3.5650 c3        1 PC8      0.086800
      7 N1         -0.6070   -2.7210    3.0510 n4        1 PC8     -0.581800
      8 C3          0.6860   -3.4300    3.2760 c3        1 PC8      0.076767
      9 C4         -1.6870   -3.4350    3.7940 c3        1 PC8      0.076767
     10 C5         -0.9390   -2.7330    1.5940 c3        1 PC8      0.076767
     11 O4          2.2320    0.0920   -0.1800 os        1 PC8     -0.556200
     12 C6          2.7120    1.3890    0.0730 c3        1 PC8      0.169400
     13 C7          2.7580    2.1480   -1.2540 c3        1 PC8      0.145100
     14 C8          2.3330    3.6070   -1.1070 c3        1 PC8      0.115400
     15 O5          3.0940    4.1740   -0.0300 os        1 PC8     -0.433900
     16 C9          2.8210    5.4730    0.2990 c         1 PC8      0.631100
     17 O6          1.9310    6.0610   -0.3200 o         1 PC8     -0.548000
     18 C10         3.7040    5.9810    1.3960 c3        1 PC8     -0.128400
     19 C11         2.9710    6.9780    2.2680 c3        1 PC8     -0.078400
     20 C12         3.9070    7.5880    3.2890 c3        1 PC8     -0.079400
     21 C13         3.1770    8.5730    4.1770 c3        1 PC8     -0.078400
     22 C14         4.1110    9.1880    5.1960 c3        1 PC8     -0.079400
     23 C15         3.3830   10.1740    6.0850 c3        1 PC8     -0.080400
     24 C16         4.3090   10.7900    7.1020 c3        1 PC8     -0.092100
     25 O7          4.1230    2.0690   -1.6990 os        1 PC8     -0.426900
     26 C17         4.3700    2.2020   -3.0370 c         1 PC8      0.636100
     27 O8          3.4300    2.4510   -3.7950 o         1 PC8     -0.554000
     28 C18         5.8220    2.0380   -3.3650 c3        1 PC8     -0.127400
     29 C19         6.0020    1.3040   -4.6770 c3        1 PC8     -0.079400
     30 C20         7.4620    1.2620   -5.0740 c3        1 PC8     -0.078400
     31 C21         7.6510    0.5130   -6.3760 c3        1 PC8     -0.079400
     32 C22         9.1090    0.4730   -6.7780 c3        1 PC8     -0.079400
     33 C23         9.3000   -0.2760   -8.0800 c3        1 PC8     -0.080400
     34 C24        10.7500   -0.3190   -8.4860 c3        1 PC8     -0.092100
     35 H1          1.6470   -0.9670    3.6190 h1        1 PC8      0.059200
     36 H2          0.5600    0.5110    3.6920 h1        1 PC8      0.059200
     37 H3         -0.6010   -1.3550    4.6880 hx        1 PC8      0.078700
     38 H4         -1.4420   -0.7700    3.1580 hx        1 PC8      0.078700
     39 H5          1.0130   -3.2760    4.3350 hx        1 PC8      0.100144
     40 H6          0.5470   -4.5220    3.0670 hx        1 PC8      0.100144
     41 H7          1.4630   -3.0200    2.5510 hx        1 PC8      0.100144
     42 H8         -1.4110   -3.5130    4.8780 hx        1 PC8      0.100144
     43 H9         -2.6480   -2.8690    3.6880 hx        1 PC8      0.100144
     44 H10        -1.8120   -4.4650    3.3670 hx        1 PC8      0.100144
     45 H11        -1.9280   -2.2360    1.4380 hx        1 PC8      0.100144
     46 H12        -0.9690   -3.7940    1.2360 hx        1 PC8      0.100144
     47 H13        -0.1210   -2.1780    1.0280 hx        1 PC8      0.100144
     48 H14         2.0050    1.8970    0.7820 h1        1 PC8      0.061700
     49 H15         3.7330    1.3240    0.5410 h1        1 PC8      0.061700
     50 H16         2.0850    1.6580   -2.0140 h1        1 PC8      0.100700
     51 H17         1.2420    3.6750   -0.8630 h1        1 PC8      0.066700
     52 H18         2.5490    4.1790   -2.0480 h1        1 PC8      0.066700
     53 H19         4.5940    6.4650    0.9110 hc        1 PC8      0.080200
     54 H20         4.0760    5.1170    2.0080 hc        1 PC8      0.080200
     55 H21         2.1210    6.4660    2.7910 hc        1 PC8      0.055700
     56 H22         2.5260    7.7820    1.6240 hc        1 PC8      0.055700
     57 H23         4.7510    8.1080    2.7640 hc        1 PC8      0.041200
     58 H24         4.3590    6.7760    3.9190 hc        1 PC8      0.041200
     59 H25         2.7230    9.3820    3.5460 hc        1 PC8      0.041200
     60 H26         2.3350    8.0520    4.7040 hc        1 PC8      0.041200
     61 H27         4.5670    8.3800    5.8270 hc        1 PC8      0.039700
     62 H28         4.9540    9.7100    4.6690 hc        1 PC8      0.039700
     63 H29         2.9270   10.9810    5.4530 hc        1 PC8      0.038700
     64 H30         2.5410    9.6520    6.6110 hc        1 PC8      0.038700
     65 H31         5.1420   11.3370    6.5980 hc        1 PC8      0.032367
     66 H32         3.7530   11.5120    7.7470 hc        1 PC8      0.032367
     67 H33         4.7550   10.0030    7.7580 hc        1 PC8      0.032367
     68 H34         6.2690    3.0670   -3.4280 hc        1 PC8      0.078200
     69 H35         6.3370    1.4900   -2.5330 hc        1 PC8      0.078200
     70 H36         5.6040    0.2600   -4.5800 hc        1 PC8      0.058200
     71 H37         5.4000    1.8150   -5.4760 hc        1 PC8      0.058200
     72 H38         8.0580    0.7650   -4.2640 hc        1 PC8      0.040700
     73 H39         7.8540    2.3070   -5.1810 hc        1 PC8      0.040700
     74 H40         7.0500    1.0080   -7.1840 hc        1 PC8      0.042700
     75 H41         7.2610   -0.5330   -6.2680 hc        1 PC8      0.042700
     76 H42         9.7090   -0.0210   -5.9700 hc        1 PC8      0.039200
     77 H43         9.4990    1.5190   -6.8870 hc        1 PC8      0.039200
     78 H44         8.9080   -1.3220   -7.9700 hc        1 PC8      0.038700
     79 H45         8.6970    0.2180   -8.8870 hc        1 PC8      0.038700
     80 H46        11.3630   -0.8300   -7.7050 hc        1 PC8      0.032033
     81 H47        10.8680   -0.8750   -9.4470 hc        1 PC8      0.032033
     82 H48        11.1520    0.7140   -8.6250 hc        1 PC8      0.032033
@<TRIPOS>BOND
     1    1    3 1   
     2    2    3 1   
     3    3    4 1   
     4    3   11 1   
     5    4    5 1   
     6    5    6 1   
     7    5   35 1   
     8    5   36 1   
     9    6    7 1   
    10    6   37 1   
    11    6   38 1   
    12    7    8 1   
    13    7    9 1   
    14    7   10 1   
    15    8   39 1   
    16    8   40 1   
    17    8   41 1   
    18    9   42 1   
    19    9   43 1   
    20    9   44 1   
    21   10   45 1   
    22   10   46 1   
    23   10   47 1   
    24   11   12 1   
    25   12   13 1   
    26   12   48 1   
    27   12   49 1   
    28   13   14 1   
    29   13   25 1   
    30   13   50 1   
    31   14   15 1   
    32   14   51 1   
    33   14   52 1   
    34   15   16 1   
    35   16   17 2   
    36   16   18 1   
    37   18   19 1   
    38   18   53 1   
    39   18   54 1   
    40   19   20 1   
    41   19   55 1   
    42   19   56 1   
    43   20   21 1   
    44   20   57 1   
    45   20   58 1   
    46   21   22 1   
    47   21   59 1   
    48   21   60 1   
    49   22   23 1   
    50   22   61 1   
    51   22   62 1   
    52   23   24 1   
    53   23   63 1   
    54   23   64 1   
    55   24   65 1   
    56   24   66 1   
    57   24   67 1   
    58   25   26 1   
    59   26   27 2   
    60   26   28 1   
    61   28   29 1   
    62   28   68 1   
    63   28   69 1   
    64   29   30 1   
    65   29   70 1   
    66   29   71 1   
    67   30   31 1   
    68   30   72 1   
    69   30   73 1   
    70   31   32 1   
    71   31   74 1   
    72   31   75 1   
    73   32   33 1   
    74   32   76 1   
    75   32   77 1   
    76   33   34 1   
    77   33   78 1   
    78   33   79 1   
    79   34   80 1   
    80   34   81 1   
    81   34   82 1   
@<TRIPOS>SUBSTRUCTURE
     1 PC8         1 TEMP              0 ****  ****    0 ROOT
