@<TRIPOS>MOLECULE
PC8
   82    81     1     0     0
SMALL
bcc


@<TRIPOS>ATOM
      1 O1          0.9680   -2.2590    1.9870 o         1 PC8     -0.814500
      2 O2          3.6390   -2.3070    2.0160 o         1 PC8     -0.814500
      3 P1          2.3270   -1.7000    1.7920 p5        1 PC8      1.438800
      4 O3          2.2210   -0.2750    2.6640 os        1 PC8     -0.577200
      5 C1          1.3350   -0.2330    3.7210 c3        1 PC8      0.197400
      6 C2          0.2280    0.8100    3.4760 c3        1 PC8      0.079800
      7 N1         -0.9770    0.3830    2.6780 n4        1 PC8     -0.576800
      8 C3         -1.5340   -0.9050    3.1810 c3        1 PC8      0.075433
      9 C4         -2.0110    1.4520    2.8200 c3        1 PC8      0.075433
     10 C5         -0.6430    0.2480    1.2280 c3        1 PC8      0.075433
     11 O4          2.2840   -0.9450    0.3380 os        1 PC8     -0.580200
     12 C6          3.5060   -0.3630   -0.0230 c3        1 PC8      0.175400
     13 C7          3.2570    0.4990   -1.2660 c3        1 PC8      0.135100
     14 C8          2.4000    1.7270   -0.9630 c3        1 PC8      0.112400
     15 O5          3.1020    2.5670   -0.0360 os        1 PC8     -0.419900
     16 C9          2.4310    3.0730    1.0330 c         1 PC8      0.664100
     17 O6          1.2090    2.8980    1.1280 o         1 PC8     -0.610000
     18 C10         3.3390    3.7990    1.9780 c3        1 PC8     -0.135400
     19 C11         2.6320    4.9630    2.6390 c3        1 PC8     -0.075400
     20 C12         3.5140    5.5990    3.6910 c3        1 PC8     -0.080400
     21 C13         2.8210    6.7750    4.3460 c3        1 PC8     -0.078400
     22 C14         3.6990    7.4090    5.4030 c3        1 PC8     -0.080400
     23 C15         3.0070    8.5850    6.0600 c3        1 PC8     -0.079400
     24 C16         3.8770    9.2190    7.1140 c3        1 PC8     -0.093100
     25 O7          4.5610    0.8770   -1.7330 os        1 PC8     -0.426900
     26 C17         4.6790    1.2830   -3.0330 c         1 PC8      0.638100
     27 O8          3.6640    1.3480   -3.7310 o         1 PC8     -0.555000
     28 C18         6.0930    1.6170   -3.3980 c3        1 PC8     -0.127400
     29 C19         6.4090    1.1690   -4.8090 c3        1 PC8     -0.079400
     30 C20         7.7910    1.6290   -5.2210 c3        1 PC8     -0.078400
     31 C21         8.1210    1.1690   -6.6250 c3        1 PC8     -0.079400
     32 C22         9.5000    1.6320   -7.0430 c3        1 PC8     -0.079400
     33 C23         9.8330    1.1710   -8.4460 c3        1 PC8     -0.080400
     34 C24        11.2050    1.6300   -8.8680 c3        1 PC8     -0.092100
     35 H1          0.9060   -1.2490    3.9420 h1        1 PC8      0.053200
     36 H2          1.8900    0.1450    4.6310 h1        1 PC8      0.053200
     37 H3         -0.1580    1.1450    4.4800 hx        1 PC8      0.091200
     38 H4          0.6880    1.6860    2.9290 hx        1 PC8      0.091200
     39 H5         -1.5990   -0.8660    4.2980 hx        1 PC8      0.100811
     40 H6         -0.8650   -1.7620    2.8590 hx        1 PC8      0.100811
     41 H7         -2.5550   -1.0570    2.7440 hx        1 PC8      0.100811
     42 H8         -2.8950    1.2020    2.1770 hx        1 PC8      0.100811
     43 H9         -1.5730    2.4310    2.4890 hx        1 PC8      0.100811
     44 H10        -2.3350    1.5220    3.8900 hx        1 PC8      0.100811
     45 H11        -1.5680   -0.0440    0.6690 hx        1 PC8      0.100811
     46 H12         0.1440   -0.5580    1.1070 hx        1 PC8      0.100811
     47 H13        -0.2430    1.2260    0.8490 hx        1 PC8      0.100811
     48 H14         4.2520   -1.1730   -0.2430 h1        1 PC8      0.056700
     49 H15         3.8830    0.2700    0.8250 h1        1 PC8      0.056700
     50 H16         2.7270   -0.1000   -2.0590 h1        1 PC8      0.087700
     51 H17         2.2500    2.3430   -1.8890 h1        1 PC8      0.074700
     52 H18         1.4180    1.3850   -0.5420 h1        1 PC8      0.074700
     53 H19         4.2500    4.1520    1.4260 hc        1 PC8      0.088700
     54 H20         3.6770    3.0520    2.7470 hc        1 PC8      0.088700
     55 H21         2.3550    5.7250    1.8640 hc        1 PC8      0.049700
     56 H22         1.6770    4.6040    3.1050 hc        1 PC8      0.049700
     57 H23         4.4740    5.9430    3.2210 hc        1 PC8      0.044700
     58 H24         3.7830    4.8380    4.4700 hc        1 PC8      0.044700
     59 H25         2.5580    7.5380    3.5670 hc        1 PC8      0.039200
     60 H26         1.8590    6.4330    4.8110 hc        1 PC8      0.039200
     61 H27         4.6600    7.7510    4.9380 hc        1 PC8      0.041700
     62 H28         3.9620    6.6460    6.1820 hc        1 PC8      0.041700
     63 H29         2.7440    9.3470    5.2790 hc        1 PC8      0.037700
     64 H30         2.0440    8.2420    6.5220 hc        1 PC8      0.037700
     65 H31         4.1290    8.4820    7.9140 hc        1 PC8      0.034033
     66 H32         3.3490   10.0830    7.5850 hc        1 PC8      0.034033
     67 H33         4.8310    9.5900    6.6670 hc        1 PC8      0.034033
     68 H34         6.7950    1.1370   -2.6650 hc        1 PC8      0.079200
     69 H35         6.2080    2.7300   -3.3050 hc        1 PC8      0.079200
     70 H36         5.6390    1.5820   -5.5140 hc        1 PC8      0.057700
     71 H37         6.3480    0.0510   -4.8710 hc        1 PC8      0.057700
     72 H38         7.8460    2.7490   -5.1700 hc        1 PC8      0.040700
     73 H39         8.5530    1.2260   -4.5030 hc        1 PC8      0.040700
     74 H40         8.0690    0.0490   -6.6750 hc        1 PC8      0.042700
     75 H41         7.3560    1.5680   -7.3420 hc        1 PC8      0.042700
     76 H42        10.2650    1.2340   -6.3260 hc        1 PC8      0.039200
     77 H43         9.5530    2.7520   -6.9940 hc        1 PC8      0.039200
     78 H44         9.0660    1.5680   -9.1620 hc        1 PC8      0.039200
     79 H45         9.7790    0.0510   -8.4940 hc        1 PC8      0.039200
     80 H46        11.9860    1.2230   -8.1810 hc        1 PC8      0.032367
     81 H47        11.4300    1.2790   -9.9040 hc        1 PC8      0.032367
     82 H48        11.2710    2.7450   -8.8510 hc        1 PC8      0.032367
@<TRIPOS>BOND
     1    1    3 1   
     2    2    3 1   
     3    3    4 1   
     4    3   11 1   
     5    4    5 1   
     6    5    6 1   
     7    5   35 1   
     8    5   36 1   
     9    6    7 1   
    10    6   37 1   
    11    6   38 1   
    12    7    8 1   
    13    7    9 1   
    14    7   10 1   
    15    8   39 1   
    16    8   40 1   
    17    8   41 1   
    18    9   42 1   
    19    9   43 1   
    20    9   44 1   
    21   10   45 1   
    22   10   46 1   
    23   10   47 1   
    24   11   12 1   
    25   12   13 1   
    26   12   48 1   
    27   12   49 1   
    28   13   14 1   
    29   13   25 1   
    30   13   50 1   
    31   14   15 1   
    32   14   51 1   
    33   14   52 1   
    34   15   16 1   
    35   16   17 2   
    36   16   18 1   
    37   18   19 1   
    38   18   53 1   
    39   18   54 1   
    40   19   20 1   
    41   19   55 1   
    42   19   56 1   
    43   20   21 1   
    44   20   57 1   
    45   20   58 1   
    46   21   22 1   
    47   21   59 1   
    48   21   60 1   
    49   22   23 1   
    50   22   61 1   
    51   22   62 1   
    52   23   24 1   
    53   23   63 1   
    54   23   64 1   
    55   24   65 1   
    56   24   66 1   
    57   24   67 1   
    58   25   26 1   
    59   26   27 2   
    60   26   28 1   
    61   28   29 1   
    62   28   68 1   
    63   28   69 1   
    64   29   30 1   
    65   29   70 1   
    66   29   71 1   
    67   30   31 1   
    68   30   72 1   
    69   30   73 1   
    70   31   32 1   
    71   31   74 1   
    72   31   75 1   
    73   32   33 1   
    74   32   76 1   
    75   32   77 1   
    76   33   34 1   
    77   33   78 1   
    78   33   79 1   
    79   34   80 1   
    80   34   81 1   
    81   34   82 1   
@<TRIPOS>SUBSTRUCTURE
     1 PC8         1 TEMP              0 ****  ****    0 ROOT
