@<TRIPOS>MOLECULE
PC9
  136   135     1     0     0
SMALL
bcc


@<TRIPOS>ATOM
      1 C48         0.2520    0.3900    0.6040 c3        1 PC9     -0.092100
      2 C47         1.7520    0.2530    0.6420 c3        1 PC9     -0.080400
      3 C46         2.2610    0.1050    2.0600 c3        1 PC9     -0.079400
      4 C45         3.7680   -0.0320    2.0930 c3        1 PC9     -0.079400
      5 C44         4.2750   -0.1790    3.5120 c3        1 PC9     -0.079400
      6 C43         5.7820   -0.3150    3.5450 c3        1 PC9     -0.079400
      7 C42         6.2890   -0.4610    4.9630 c3        1 PC9     -0.079400
      8 C41         7.7970   -0.5970    4.9960 c3        1 PC9     -0.079400
      9 C40         8.3030   -0.7420    6.4150 c3        1 PC9     -0.077400
     10 C39         9.8110   -0.8750    6.4460 c3        1 PC9     -0.083400
     11 C38        10.3090   -1.0210    7.8690 c3        1 PC9     -0.082400
     12 C37        11.8240   -1.0930    7.9420 c3        1 PC9      0.013700
     13 BR2        12.5050   -2.7840    7.2550 br        1 PC9     -0.158400
     14 C36        12.3310   -0.8060    9.3460 c3        1 PC9      0.014700
     15 BR1        11.8930   -2.2450   10.5830 br        1 PC9     -0.160400
     16 C35        13.8150   -0.4870    9.3480 c3        1 PC9     -0.082400
     17 C34        14.2540    0.1830   10.6340 c3        1 PC9     -0.083400
     18 C33        15.7140    0.5780   10.5570 c3        1 PC9     -0.078400
     19 C32        16.1560    1.2400   11.8450 c3        1 PC9     -0.127400
     20 C31        17.6180    1.5620   11.8050 c         1 PC9      0.637100
     21 O31        18.5410    0.9090   11.3090 o         1 PC9     -0.553000
     22 O2         17.9050    2.7400   12.4340 os        1 PC9     -0.426900
     23 C2         19.2730    3.1810   12.4380 c3        1 PC9      0.135100
     24 C1         19.2100    4.6880   12.7130 c3        1 PC9      0.175400
     25 O3P        20.4900    5.2120   12.4900 os        1 PC9     -0.579200
     26 P          20.6460    6.7720   12.9700 p5        1 PC9      1.438800
     27 O1P        22.0410    7.1480   12.6420 o         1 PC9     -0.814000
     28 O2P        19.3950    7.4990   12.7560 o         1 PC9     -0.814000
     29 O4P        20.7860    6.3780   14.5910 os        1 PC9     -0.577200
     30 C4         21.7850    6.9920   15.3170 c3        1 PC9      0.197400
     31 C5         22.8090    5.9630   15.8350 c3        1 PC9      0.079800
     32 N          23.9310    5.5630   14.9140 n4        1 PC9     -0.576800
     33 C7         24.6010    6.7570   14.3230 c3        1 PC9      0.075433
     34 C8         24.9250    4.7970   15.7250 c3        1 PC9      0.075433
     35 C6         23.4420    4.6750   13.8180 c3        1 PC9      0.075433
     36 C3         20.0930    2.4280   13.4830 c3        1 PC9      0.112400
     37 O3         19.4690    2.5810   14.7650 os        1 PC9     -0.420900
     38 C11        20.2360    2.9150   15.8370 c         1 PC9      0.664100
     39 O11        21.4680    2.9600   15.7160 o         1 PC9     -0.609000
     40 C12        19.4130    3.1920   17.0570 c3        1 PC9     -0.135400
     41 C13        20.1940    2.9270   18.3250 c3        1 PC9     -0.075400
     42 C14        19.3980    3.3400   19.5440 c3        1 PC9     -0.080400
     43 C15        20.1710    3.0690   20.8170 c3        1 PC9     -0.078400
     44 C16        19.3810    3.4920   22.0370 c3        1 PC9     -0.079400
     45 C17        20.1550    3.2260   23.3110 c3        1 PC9     -0.078400
     46 C18        19.3670    3.6530   24.5310 c3        1 PC9     -0.079400
     47 C19        20.1430    3.3920   25.8040 c3        1 PC9     -0.078400
     48 C20        19.3570    3.8210   27.0240 c3        1 PC9     -0.079400
     49 C21        20.1340    3.5630   28.2970 c3        1 PC9     -0.078400
     50 C22        19.3490    3.9950   29.5170 c3        1 PC9     -0.079400
     51 C23        20.1260    3.7380   30.7910 c3        1 PC9     -0.079400
     52 C24        19.3410    4.1700   32.0100 c3        1 PC9     -0.079400
     53 C25        20.1180    3.9150   33.2850 c3        1 PC9     -0.080400
     54 C26        19.3400    4.3440   34.5020 c3        1 PC9     -0.093100
     55 H481       -0.0770    1.2880    1.1800 hc        1 PC9      0.032700
     56 H482       -0.1020    0.4970   -0.4500 hc        1 PC9      0.032700
     57 H483       -0.2380   -0.5100    1.0490 hc        1 PC9      0.032700
     58 H471        2.2240    1.1530    0.1670 hc        1 PC9      0.038700
     59 H472        2.0650   -0.6400    0.0380 hc        1 PC9      0.038700
     60 H461        1.9500    0.9970    2.6650 hc        1 PC9      0.039700
     61 H462        1.7910   -0.7960    2.5350 hc        1 PC9      0.039700
     62 H451        4.2380    0.8690    1.6170 hc        1 PC9      0.039700
     63 H452        4.0780   -0.9240    1.4880 hc        1 PC9      0.039700
     64 H441        3.8060   -1.0800    3.9870 hc        1 PC9      0.039700
     65 H442        3.9650    0.7140    4.1160 hc        1 PC9      0.039700
     66 H431        6.0930   -1.2070    2.9400 hc        1 PC9      0.039700
     67 H432        6.2520    0.5860    3.0680 hc        1 PC9      0.039700
     68 H421        5.8200   -1.3620    5.4390 hc        1 PC9      0.040200
     69 H422        5.9780    0.4310    5.5680 hc        1 PC9      0.040200
     70 H411        8.1080   -1.4900    4.3930 hc        1 PC9      0.041200
     71 H412        8.2660    0.3040    4.5190 hc        1 PC9      0.041200
     72 H401        7.8360   -1.6440    6.8910 hc        1 PC9      0.041200
     73 H402        7.9900    0.1510    7.0190 hc        1 PC9      0.041200
     74 H391       10.1200   -1.7660    5.8380 hc        1 PC9      0.048200
     75 H392       10.2770    0.0290    5.9720 hc        1 PC9      0.048200
     76 H381        9.8500   -1.9310    8.3390 hc        1 PC9      0.060200
     77 H382        9.9650   -0.1320    8.4650 hc        1 PC9      0.060200
     78 H37        12.2590   -0.3280    7.2450 h1        1 PC9      0.084700
     79 H36        11.7670    0.0750    9.7520 h1        1 PC9      0.084700
     80 H351       14.0320    0.2030    8.4880 hc        1 PC9      0.063200
     81 H352       14.4180   -1.4190    9.1820 hc        1 PC9      0.063200
     82 H341       14.0980   -0.5120   11.5010 hc        1 PC9      0.049200
     83 H342       13.6270    1.0950   10.8200 hc        1 PC9      0.049200
     84 H331       16.3490   -0.3280   10.3640 hc        1 PC9      0.059200
     85 H332       15.8730    1.2830    9.6980 hc        1 PC9      0.059200
     86 H321       15.9870    0.5520   12.7170 hc        1 PC9      0.080700
     87 H322       15.5690    2.1780   12.0290 hc        1 PC9      0.080700
     88 H2         19.7390    2.9860   11.4310 h1        1 PC9      0.087700
     89 H11        18.9100    4.8810   13.7790 h1        1 PC9      0.056700
     90 H12        18.4780    5.1900   12.0250 h1        1 PC9      0.056700
     91 H41        22.2820    7.8110   14.7280 h1        1 PC9      0.053200
     92 H42        21.3220    7.4310   16.2510 h1        1 PC9      0.053200
     93 H51        23.2910    6.3930   16.7580 hx        1 PC9      0.091200
     94 H52        22.2490    5.0160   16.0990 hx        1 PC9      0.091200
     95 H71        25.5700    6.4400   13.8590 hx        1 PC9      0.100811
     96 H72        24.7920    7.5090   15.1310 hx        1 PC9      0.100811
     97 H73        23.9390    7.2070   13.5200 hx        1 PC9      0.100811
     98 H81        24.4080    3.9260   16.2100 hx        1 PC9      0.100811
     99 H82        25.3660    5.4640   16.5090 hx        1 PC9      0.100811
    100 H83        25.7410    4.4200   15.0540 hx        1 PC9      0.100811
    101 H61        22.9540    3.7680   14.2670 hx        1 PC9      0.100811
    102 H62        22.6850    5.2440   13.1960 hx        1 PC9      0.100811
    103 H63        24.3090    4.3800   13.1750 hx        1 PC9      0.100811
    104 H31        21.1370    2.8390   13.4850 h1        1 PC9      0.074700
    105 H32        20.0930    1.3270   13.2670 h1        1 PC9      0.074700
    106 H121       18.4810    2.5670   17.0270 hc        1 PC9      0.088700
    107 H122       19.0990    4.2710   17.0030 hc        1 PC9      0.088700
    108 H131       20.4510    1.8370   18.3890 hc        1 PC9      0.049700
    109 H132       21.1640    3.4920   18.2900 hc        1 PC9      0.049700
    110 H141       18.4260    2.7800   19.5670 hc        1 PC9      0.044700
    111 H142       19.1480    4.4320   19.4800 hc        1 PC9      0.044700
    112 H151       21.1460    3.6230   20.7900 hc        1 PC9      0.039700
    113 H152       20.4120    1.9760   20.8850 hc        1 PC9      0.039700
    114 H161       19.1350    4.5850   21.9670 hc        1 PC9      0.041700
    115 H162       18.4070    2.9360   22.0660 hc        1 PC9      0.041700
    116 H171       20.3980    2.1330   23.3830 hc        1 PC9      0.039200
    117 H172       21.1310    3.7800   23.2800 hc        1 PC9      0.039200
    118 H181       18.3940    3.0970   24.5630 hc        1 PC9      0.040200
    119 H182       19.1220    4.7450   24.4570 hc        1 PC9      0.040200
    120 H191       21.1180    3.9470   25.7710 hc        1 PC9      0.039200
    121 H192       20.3870    2.3000   25.8790 hc        1 PC9      0.039200
    122 H201       19.1110    4.9130   26.9480 hc        1 PC9      0.040200
    123 H202       18.3830    3.2650   27.0590 hc        1 PC9      0.040200
    124 H211       20.3790    2.4710   28.3740 hc        1 PC9      0.039200
    125 H212       21.1090    4.1180   28.2620 hc        1 PC9      0.039200
    126 H221       18.3750    3.4390   29.5530 hc        1 PC9      0.039700
    127 H222       19.1030    5.0870   29.4400 hc        1 PC9      0.039700
    128 H231       21.1010    4.2930   30.7540 hc        1 PC9      0.039200
    129 H232       20.3710    2.6460   30.8680 hc        1 PC9      0.039200
    130 H241       19.0960    5.2630   31.9330 hc        1 PC9      0.039700
    131 H242       18.3670    3.6150   32.0470 hc        1 PC9      0.039700
    132 H251       21.0920    4.4700   33.2460 hc        1 PC9      0.038200
    133 H252       20.3630    2.8230   33.3600 hc        1 PC9      0.038200
    134 H261       19.9300    4.1470   35.4290 hc        1 PC9      0.032700
    135 H262       18.3760    3.7830   34.5710 hc        1 PC9      0.032700
    136 H263       19.1070    5.4350   34.4570 hc        1 PC9      0.032700
@<TRIPOS>BOND
     1    1    2 1   
     2    1   55 1   
     3    1   56 1   
     4    1   57 1   
     5    2    3 1   
     6    2   58 1   
     7    2   59 1   
     8    3    4 1   
     9    3   60 1   
    10    3   61 1   
    11    4    5 1   
    12    4   62 1   
    13    4   63 1   
    14    5    6 1   
    15    5   64 1   
    16    5   65 1   
    17    6    7 1   
    18    6   66 1   
    19    6   67 1   
    20    7    8 1   
    21    7   68 1   
    22    7   69 1   
    23    8    9 1   
    24    8   70 1   
    25    8   71 1   
    26    9   10 1   
    27    9   72 1   
    28    9   73 1   
    29   10   11 1   
    30   10   74 1   
    31   10   75 1   
    32   11   12 1   
    33   11   76 1   
    34   11   77 1   
    35   12   13 1   
    36   12   14 1   
    37   12   78 1   
    38   14   15 1   
    39   14   16 1   
    40   14   79 1   
    41   16   17 1   
    42   16   80 1   
    43   16   81 1   
    44   17   18 1   
    45   17   82 1   
    46   17   83 1   
    47   18   19 1   
    48   18   84 1   
    49   18   85 1   
    50   19   20 1   
    51   19   86 1   
    52   19   87 1   
    53   20   21 2   
    54   20   22 1   
    55   22   23 1   
    56   23   24 1   
    57   23   36 1   
    58   23   88 1   
    59   24   25 1   
    60   24   89 1   
    61   24   90 1   
    62   25   26 1   
    63   26   27 1   
    64   26   28 1   
    65   26   29 1   
    66   29   30 1   
    67   30   31 1   
    68   30   91 1   
    69   30   92 1   
    70   31   32 1   
    71   31   93 1   
    72   31   94 1   
    73   32   33 1   
    74   32   34 1   
    75   32   35 1   
    76   33   95 1   
    77   33   96 1   
    78   33   97 1   
    79   34   98 1   
    80   34   99 1   
    81   34  100 1   
    82   35  101 1   
    83   35  102 1   
    84   35  103 1   
    85   36   37 1   
    86   36  104 1   
    87   36  105 1   
    88   37   38 1   
    89   38   39 2   
    90   38   40 1   
    91   40   41 1   
    92   40  106 1   
    93   40  107 1   
    94   41   42 1   
    95   41  108 1   
    96   41  109 1   
    97   42   43 1   
    98   42  110 1   
    99   42  111 1   
   100   43   44 1   
   101   43  112 1   
   102   43  113 1   
   103   44   45 1   
   104   44  114 1   
   105   44  115 1   
   106   45   46 1   
   107   45  116 1   
   108   45  117 1   
   109   46   47 1   
   110   46  118 1   
   111   46  119 1   
   112   47   48 1   
   113   47  120 1   
   114   47  121 1   
   115   48   49 1   
   116   48  122 1   
   117   48  123 1   
   118   49   50 1   
   119   49  124 1   
   120   49  125 1   
   121   50   51 1   
   122   50  126 1   
   123   50  127 1   
   124   51   52 1   
   125   51  128 1   
   126   51  129 1   
   127   52   53 1   
   128   52  130 1   
   129   52  131 1   
   130   53   54 1   
   131   53  132 1   
   132   53  133 1   
   133   54  134 1   
   134   54  135 1   
   135   54  136 1   
@<TRIPOS>SUBSTRUCTURE
     1 PC9         1 TEMP              0 ****  ****    0 ROOT
