@<TRIPOS>MOLECULE
PC9
  136   135     1     0     0
SMALL
bcc


@<TRIPOS>ATOM
      1 C48         0.2660    0.2060    0.7510 c3        1 PC9     -0.092100
      2 C47         1.7570   -0.0050    0.8100 c3        1 PC9     -0.080400
      3 C46         2.2610   -0.0090    2.2380 c3        1 PC9     -0.079400
      4 C45         3.7590   -0.2210    2.2920 c3        1 PC9     -0.079400
      5 C44         4.2620   -0.2250    3.7200 c3        1 PC9     -0.079400
      6 C43         5.7590   -0.4370    3.7750 c3        1 PC9     -0.079400
      7 C42         6.2620   -0.4410    5.2020 c3        1 PC9     -0.079400
      8 C41         7.7600   -0.6530    5.2560 c3        1 PC9     -0.079400
      9 C40         8.2620   -0.6570    6.6840 c3        1 PC9     -0.077400
     10 C39         9.7610   -0.8690    6.7360 c3        1 PC9     -0.083400
     11 C38        10.2540   -0.8740    8.1680 c3        1 PC9     -0.082400
     12 C37        11.7610   -1.0220    8.2550 c3        1 PC9      0.013700
     13 BR2        12.3450   -2.8170    7.7740 br        1 PC9     -0.158400
     14 C36        12.2880   -0.6030    9.6180 c3        1 PC9      0.014700
     15 BR1        11.7710   -1.8600   11.0140 br        1 PC9     -0.160400
     16 C35        13.7870   -0.3700    9.5900 c3        1 PC9     -0.082400
     17 C34        14.2660    0.4210   10.7900 c3        1 PC9     -0.083400
     18 C33        15.7470    0.7140   10.6780 c3        1 PC9     -0.078400
     19 C32        16.2280    1.4970   11.8810 c3        1 PC9     -0.127400
     20 C31        17.7090    1.7170   11.8200 c         1 PC9      0.637100
     21 O31        18.5850    0.9710   11.3780 o         1 PC9     -0.553000
     22 O2         18.0740    2.9190   12.3590 os        1 PC9     -0.426900
     23 C2         19.4680    3.2660   12.3380 c3        1 PC9      0.135100
     24 C1         19.5080    4.7890   12.5030 c3        1 PC9      0.175400
     25 O3P        20.8220    5.2060   12.2560 os        1 PC9     -0.579200
     26 P          21.0820    6.7840   12.6190 p5        1 PC9      1.438800
     27 O1P        22.5040    7.0350   12.2870 o         1 PC9     -0.814000
     28 O2P        19.8890    7.5770   12.3290 o         1 PC9     -0.814000
     29 O4P        21.1760    6.5060   14.2670 os        1 PC9     -0.577200
     30 C4         22.2100    7.0990   14.9610 c3        1 PC9      0.197400
     31 C5         23.1510    6.0400   15.5680 c3        1 PC9      0.079800
     32 N          24.2540    5.4970   14.6970 n4        1 PC9     -0.576800
     33 C7         25.0120    6.5950   14.0320 c3        1 PC9      0.075433
     34 C8         25.1830    4.7260   15.5780 c3        1 PC9      0.075433
     35 C6         23.7160    4.5660   13.6610 c3        1 PC9      0.075433
     36 C3         20.2360    2.5380   13.4380 c3        1 PC9      0.112400
     37 O3         19.6080    2.8050   14.7000 os        1 PC9     -0.419900
     38 C11        20.3810    3.1500   15.7630 c         1 PC9      0.664100
     39 O11        21.6150    3.1250   15.6570 o         1 PC9     -0.609000
     40 C12        19.5630    3.5310   16.9590 c3        1 PC9     -0.134400
     41 C13        20.2290    3.0940   18.2450 c3        1 PC9     -0.075400
     42 C14        19.4640    3.6060   19.4470 c3        1 PC9     -0.080400
     43 C15        20.1140    3.1580   20.7380 c3        1 PC9     -0.078400
     44 C16        19.3550    3.6750   21.9420 c3        1 PC9     -0.079400
     45 C17        20.0040    3.2270   23.2340 c3        1 PC9     -0.078400
     46 C18        19.2460    3.7440   24.4370 c3        1 PC9     -0.079400
     47 C19        19.8940    3.2960   25.7290 c3        1 PC9     -0.078400
     48 C20        19.1360    3.8140   26.9330 c3        1 PC9     -0.079400
     49 C21        19.7840    3.3660   28.2250 c3        1 PC9     -0.078400
     50 C22        19.0260    3.8850   29.4280 c3        1 PC9     -0.079400
     51 C23        19.6740    3.4370   30.7210 c3        1 PC9     -0.079400
     52 C24        18.9150    3.9540   31.9240 c3        1 PC9     -0.079400
     53 C25        19.5620    3.5070   33.2180 c3        1 PC9     -0.080400
     54 C26        18.8110    4.0210   34.4180 c3        1 PC9     -0.093100
     55 H481       -0.0120    1.1840    1.2140 hc        1 PC9      0.032700
     56 H482       -0.0840    0.2050   -0.3090 hc        1 PC9      0.032700
     57 H483       -0.2700   -0.6060    1.3000 hc        1 PC9      0.032700
     58 H471        2.0190   -0.9800    0.3190 hc        1 PC9      0.038700
     59 H472        2.2760    0.8050    0.2330 hc        1 PC9      0.038700
     60 H461        1.7450   -0.8190    2.8160 hc        1 PC9      0.039700
     61 H462        2.0010    0.9650    2.7300 hc        1 PC9      0.039700
     62 H451        4.0190   -1.1960    1.8000 hc        1 PC9      0.039700
     63 H452        4.2750    0.5890    1.7140 hc        1 PC9      0.039700
     64 H441        3.7450   -1.0350    4.2990 hc        1 PC9      0.039700
     65 H442        4.0020    0.7490    4.2130 hc        1 PC9      0.039700
     66 H431        6.0190   -1.4110    3.2820 hc        1 PC9      0.039700
     67 H432        6.2760    0.3730    3.1960 hc        1 PC9      0.039700
     68 H421        6.0020    0.5330    5.6950 hc        1 PC9      0.040200
     69 H422        5.7460   -1.2510    5.7810 hc        1 PC9      0.040200
     70 H411        8.0200   -1.6280    4.7640 hc        1 PC9      0.041200
     71 H412        8.2760    0.1570    4.6780 hc        1 PC9      0.041200
     72 H401        8.0010    0.3170    7.1770 hc        1 PC9      0.041200
     73 H402        7.7470   -1.4690    7.2630 hc        1 PC9      0.041200
     74 H391       10.0170   -1.8410    6.2380 hc        1 PC9      0.048200
     75 H392       10.2740   -0.0540    6.1600 hc        1 PC9      0.048200
     76 H381        9.7450   -1.6950    8.7410 hc        1 PC9      0.060200
     77 H382        9.9610    0.0960    8.6540 hc        1 PC9      0.060200
     78 H37        12.2380   -0.3690    7.4760 h1        1 PC9      0.084700
     79 H36        11.7760    0.3510    9.9160 h1        1 PC9      0.084700
     80 H351       14.0420    0.2010    8.6550 hc        1 PC9      0.063200
     81 H352       14.3360   -1.3480    9.5380 hc        1 PC9      0.063200
     82 H341       13.6960    1.3850   10.8620 hc        1 PC9      0.049200
     83 H342       14.0680   -0.1550   11.7320 hc        1 PC9      0.049200
     84 H331       15.9500    1.3010    9.7430 hc        1 PC9      0.059200
     85 H332       16.3260   -0.2440   10.5990 hc        1 PC9      0.059200
     86 H321       16.0120    0.9320   12.8280 hc        1 PC9      0.080700
     87 H322       15.7040    2.4870   11.9450 hc        1 PC9      0.080700
     88 H2         19.9200    2.9670   11.3500 h1        1 PC9      0.087700
     89 H11        19.2150    5.0790   13.5490 h1        1 PC9      0.056700
     90 H12        18.8170    5.2880   11.7720 h1        1 PC9      0.056700
     91 H41        22.7710    7.8340   14.3200 h1        1 PC9      0.053200
     92 H42        21.7710    7.6390   15.8530 h1        1 PC9      0.053200
     93 H51        23.6500    6.4980   16.4670 hx        1 PC9      0.091200
     94 H52        22.5210    5.1560   15.8860 hx        1 PC9      0.091200
     95 H71        25.9630    6.1790   13.6100 hx        1 PC9      0.100811
     96 H72        24.3930    7.0280   13.1860 hx        1 PC9      0.100811
     97 H73        25.2440    7.3900   14.7850 hx        1 PC9      0.100811
     98 H81        25.6610    5.4190   16.3180 hx        1 PC9      0.100811
     99 H82        25.9770    4.2450   14.9500 hx        1 PC9      0.100811
    100 H83        24.6000    3.9330   16.1180 hx        1 PC9      0.100811
    101 H61        23.0050    5.1370   12.9880 hx        1 PC9      0.100811
    102 H62        24.5680    4.1670   13.0540 hx        1 PC9      0.100811
    103 H63        23.1640    3.7290   14.1680 hx        1 PC9      0.100811
    104 H31        20.1790    1.4270   13.2920 h1        1 PC9      0.074700
    105 H32        21.3000    2.8920   13.4290 h1        1 PC9      0.074700
    106 H121       18.5380    3.0810   16.8710 hc        1 PC9      0.088200
    107 H122       19.4460    4.6490   16.9330 hc        1 PC9      0.088200
    108 H131       21.2840    3.4760   18.2700 hc        1 PC9      0.050200
    109 H132       20.2830    1.9740   18.2800 hc        1 PC9      0.050200
    110 H141       19.4200    4.7270   19.4160 hc        1 PC9      0.044200
    111 H142       18.4070    3.2330   19.4080 hc        1 PC9      0.044200
    112 H151       21.1730    3.5260   20.7750 hc        1 PC9      0.039700
    113 H152       20.1530    2.0370   20.7710 hc        1 PC9      0.039700
    114 H161       19.3170    4.7960   21.9090 hc        1 PC9      0.041700
    115 H162       18.2960    3.3070   21.9050 hc        1 PC9      0.041700
    116 H171       21.0630    3.5940   23.2700 hc        1 PC9      0.039200
    117 H172       20.0410    2.1060   23.2670 hc        1 PC9      0.039200
    118 H181       19.2080    4.8650   24.4040 hc        1 PC9      0.040200
    119 H182       18.1860    3.3770   24.4010 hc        1 PC9      0.040200
    120 H191       20.9530    3.6630   25.7660 hc        1 PC9      0.039200
    121 H192       19.9310    2.1750   25.7620 hc        1 PC9      0.039200
    122 H201       19.0980    4.9350   26.9000 hc        1 PC9      0.040200
    123 H202       18.0760    3.4470   26.8960 hc        1 PC9      0.040200
    124 H211       19.8210    2.2450   28.2580 hc        1 PC9      0.039200
    125 H212       20.8430    3.7330   28.2620 hc        1 PC9      0.039200
    126 H221       18.9880    5.0050   29.3950 hc        1 PC9      0.039700
    127 H222       17.9660    3.5170   29.3920 hc        1 PC9      0.039700
    128 H231       19.7110    2.3160   30.7540 hc        1 PC9      0.039200
    129 H232       20.7330    3.8040   30.7570 hc        1 PC9      0.039200
    130 H241       18.8780    5.0750   31.8910 hc        1 PC9      0.039700
    131 H242       17.8560    3.5870   31.8880 hc        1 PC9      0.039700
    132 H251       20.6220    3.8740   33.2510 hc        1 PC9      0.038200
    133 H252       19.6000    2.3860   33.2480 hc        1 PC9      0.038200
    134 H261       18.7830    5.1370   34.4190 hc        1 PC9      0.032700
    135 H262       17.7590    3.6460   34.4160 hc        1 PC9      0.032700
    136 H263       19.3040    3.6800   35.3600 hc        1 PC9      0.032700
@<TRIPOS>BOND
     1    1    2 1   
     2    1   55 1   
     3    1   56 1   
     4    1   57 1   
     5    2    3 1   
     6    2   58 1   
     7    2   59 1   
     8    3    4 1   
     9    3   60 1   
    10    3   61 1   
    11    4    5 1   
    12    4   62 1   
    13    4   63 1   
    14    5    6 1   
    15    5   64 1   
    16    5   65 1   
    17    6    7 1   
    18    6   66 1   
    19    6   67 1   
    20    7    8 1   
    21    7   68 1   
    22    7   69 1   
    23    8    9 1   
    24    8   70 1   
    25    8   71 1   
    26    9   10 1   
    27    9   72 1   
    28    9   73 1   
    29   10   11 1   
    30   10   74 1   
    31   10   75 1   
    32   11   12 1   
    33   11   76 1   
    34   11   77 1   
    35   12   13 1   
    36   12   14 1   
    37   12   78 1   
    38   14   15 1   
    39   14   16 1   
    40   14   79 1   
    41   16   17 1   
    42   16   80 1   
    43   16   81 1   
    44   17   18 1   
    45   17   82 1   
    46   17   83 1   
    47   18   19 1   
    48   18   84 1   
    49   18   85 1   
    50   19   20 1   
    51   19   86 1   
    52   19   87 1   
    53   20   21 2   
    54   20   22 1   
    55   22   23 1   
    56   23   24 1   
    57   23   36 1   
    58   23   88 1   
    59   24   25 1   
    60   24   89 1   
    61   24   90 1   
    62   25   26 1   
    63   26   27 1   
    64   26   28 1   
    65   26   29 1   
    66   29   30 1   
    67   30   31 1   
    68   30   91 1   
    69   30   92 1   
    70   31   32 1   
    71   31   93 1   
    72   31   94 1   
    73   32   33 1   
    74   32   34 1   
    75   32   35 1   
    76   33   95 1   
    77   33   96 1   
    78   33   97 1   
    79   34   98 1   
    80   34   99 1   
    81   34  100 1   
    82   35  101 1   
    83   35  102 1   
    84   35  103 1   
    85   36   37 1   
    86   36  104 1   
    87   36  105 1   
    88   37   38 1   
    89   38   39 2   
    90   38   40 1   
    91   40   41 1   
    92   40  106 1   
    93   40  107 1   
    94   41   42 1   
    95   41  108 1   
    96   41  109 1   
    97   42   43 1   
    98   42  110 1   
    99   42  111 1   
   100   43   44 1   
   101   43  112 1   
   102   43  113 1   
   103   44   45 1   
   104   44  114 1   
   105   44  115 1   
   106   45   46 1   
   107   45  116 1   
   108   45  117 1   
   109   46   47 1   
   110   46  118 1   
   111   46  119 1   
   112   47   48 1   
   113   47  120 1   
   114   47  121 1   
   115   48   49 1   
   116   48  122 1   
   117   48  123 1   
   118   49   50 1   
   119   49  124 1   
   120   49  125 1   
   121   50   51 1   
   122   50  126 1   
   123   50  127 1   
   124   51   52 1   
   125   51  128 1   
   126   51  129 1   
   127   52   53 1   
   128   52  130 1   
   129   52  131 1   
   130   53   54 1   
   131   53  132 1   
   132   53  133 1   
   133   54  134 1   
   134   54  135 1   
   135   54  136 1   
@<TRIPOS>SUBSTRUCTURE
     1 PC9         1 TEMP              0 ****  ****    0 ROOT
