@<TRIPOS>MOLECULE
PC9
  136   135     1     0     0
SMALL
bcc


@<TRIPOS>ATOM
      1 C48         0.2590    0.2640    0.7260 c3        1 PC9     -0.092100
      2 C47         1.7530    0.0740    0.7780 c3        1 PC9     -0.080400
      3 C46         2.2590    0.0260    2.2040 c3        1 PC9     -0.079400
      4 C45         3.7590   -0.1650    2.2500 c3        1 PC9     -0.079400
      5 C44         4.2630   -0.2120    3.6770 c3        1 PC9     -0.079400
      6 C43         5.7640   -0.4040    3.7230 c3        1 PC9     -0.079400
      7 C42         6.2690   -0.4500    5.1490 c3        1 PC9     -0.079400
      8 C41         7.7690   -0.6410    5.1950 c3        1 PC9     -0.079400
      9 C40         8.2730   -0.6880    6.6220 c3        1 PC9     -0.077400
     10 C39         9.7750   -0.8770    6.6650 c3        1 PC9     -0.083400
     11 C38        10.2700   -0.9250    8.0960 c3        1 PC9     -0.082400
     12 C37        11.7800   -1.0510    8.1760 c3        1 PC9      0.013700
     13 Br2        12.3920   -2.8180    7.6320 br        1 PC9     -0.158400
     14 C36        12.3020   -0.6700    9.5520 c3        1 PC9      0.014700
     15 Br1        11.8080   -1.9830   10.9040 br        1 PC9     -0.160400
     16 C35        13.7970   -0.4120    9.5310 c3        1 PC9     -0.082400
     17 C34        14.2640    0.3440   10.7570 c3        1 PC9     -0.083400
     18 C33        15.7400    0.6690   10.6520 c3        1 PC9     -0.078400
     19 C32        16.2100    1.4170   11.8810 c3        1 PC9     -0.127400
     20 C31        17.6850    1.6680   11.8230 c         1 PC9      0.637100
     21 O31        18.5760    0.9460   11.3690 o         1 PC9     -0.553000
     22 O2         18.0270    2.8690   12.3800 os        1 PC9     -0.426900
     23 C2         19.4140    3.2440   12.3620 c3        1 PC9      0.135100
     24 C1         19.4220    4.7660   12.5490 c3        1 PC9      0.175400
     25 O3P        20.7270    5.2130   12.3030 os        1 PC9     -0.579200
     26 P          20.9560    6.7910   12.6870 p5        1 PC9      1.438800
     27 O1P        22.3700    7.0770   12.3520 o         1 PC9     -0.814000
     28 O2P        19.7440    7.5630   12.4150 o         1 PC9     -0.814000
     29 O4P        21.0630    6.4920   14.3310 os        1 PC9     -0.577200
     30 C4         22.0880    7.0970   15.0280 c3        1 PC9      0.197400
     31 C5         23.0540    6.0490   15.6160 c3        1 PC9      0.079800
     32 N          24.1640    5.5420   14.7320 n4        1 PC9     -0.576800
     33 C7         24.8950    6.6650   14.0790 c3        1 PC9      0.075433
     34 C8         25.1120    4.7780   15.5980 c3        1 PC9      0.075433
     35 C6         23.6400    4.6140   13.6860 c3        1 PC9      0.075433
     36 C3         20.1990    2.5160   13.4510 c3        1 PC9      0.112400
     37 O3         19.5710    2.7570   14.7180 os        1 PC9     -0.420900
     38 C11        20.3430    3.1070   15.7810 c         1 PC9      0.664100
     39 O11        21.5760    3.1050   15.6690 o         1 PC9     -0.609000
     40 C12        19.5230    3.4630   16.9830 c3        1 PC9     -0.135400
     41 C13        20.2180    3.0590   18.2650 c3        1 PC9     -0.075400
     42 C14        19.4470    3.5500   19.4720 c3        1 PC9     -0.080400
     43 C15        20.1280    3.1360   20.7590 c3        1 PC9     -0.078400
     44 C16        19.3630    3.6320   21.9670 c3        1 PC9     -0.079400
     45 C17        20.0440    3.2200   23.2550 c3        1 PC9     -0.078400
     46 C18        19.2810    3.7190   24.4630 c3        1 PC9     -0.079400
     47 C19        19.9620    3.3080   25.7510 c3        1 PC9     -0.078400
     48 C20        19.1990    3.8070   26.9590 c3        1 PC9     -0.079400
     49 C21        19.8810    3.3970   28.2470 c3        1 PC9     -0.078400
     50 C22        19.1180    3.8970   29.4560 c3        1 PC9     -0.079400
     51 C23        19.8000    3.4870   30.7430 c3        1 PC9     -0.079400
     52 C24        19.0380    3.9880   31.9520 c3        1 PC9     -0.079400
     53 C25        19.7180    3.5790   33.2410 c3        1 PC9     -0.080400
     54 C26        18.9630    4.0750   34.4470 c3        1 PC9     -0.093100
     55 H481       -0.0340    1.2200    1.2240 hc        1 PC9      0.032700
     56 H482       -0.2640   -0.5750    1.2460 hc        1 PC9      0.032700
     57 H483       -0.0920    0.2960   -0.3330 hc        1 PC9      0.032700
     58 H471        2.0300   -0.8780    0.2520 hc        1 PC9      0.038700
     59 H472        2.2590    0.9120    0.2300 hc        1 PC9      0.038700
     60 H461        1.7550   -0.8120    2.7530 hc        1 PC9      0.039700
     61 H462        1.9840    0.9780    2.7310 hc        1 PC9      0.039700
     62 H451        4.2630    0.6740    1.7010 hc        1 PC9      0.039700
     63 H452        4.0340   -1.1170    1.7230 hc        1 PC9      0.039700
     64 H441        3.9890    0.7390    4.2040 hc        1 PC9      0.039700
     65 H442        3.7600   -1.0510    4.2260 hc        1 PC9      0.039700
     66 H431        6.2680    0.4350    3.1740 hc        1 PC9      0.039700
     67 H432        6.0390   -1.3550    3.1960 hc        1 PC9      0.039700
     68 H421        5.7660   -1.2900    5.6990 hc        1 PC9      0.040200
     69 H422        5.9940    0.5010    5.6770 hc        1 PC9      0.040200
     70 H411        8.0440   -1.5930    4.6680 hc        1 PC9      0.041200
     71 H412        8.2720    0.1980    4.6450 hc        1 PC9      0.041200
     72 H401        7.7720   -1.5280    7.1710 hc        1 PC9      0.041200
     73 H402        7.9970    0.2640    7.1490 hc        1 PC9      0.041200
     74 H391       10.0460   -1.8270    6.1330 hc        1 PC9      0.048200
     75 H392       10.2750   -0.0350    6.1180 hc        1 PC9      0.048200
     76 H381        9.9620    0.0240    8.6160 hc        1 PC9      0.060200
     77 H382        9.7760   -1.7730    8.6390 hc        1 PC9      0.060200
     78 H37        12.2450   -0.3630    7.4200 h1        1 PC9      0.084700
     79 H36        11.7740    0.2640    9.8840 h1        1 PC9      0.084700
     80 H351       14.0410    0.1950    8.6160 hc        1 PC9      0.063200
     81 H352       14.3610   -1.3780    9.4440 hc        1 PC9      0.063200
     82 H341       14.0790   -0.2680   11.6790 hc        1 PC9      0.049200
     83 H342       13.6780    1.2950   10.8640 hc        1 PC9      0.049200
     84 H331       15.9290    1.2910    9.7380 hc        1 PC9      0.059200
     85 H332       16.3350   -0.2760   10.5390 hc        1 PC9      0.059200
     86 H321       15.6660    2.3940   11.9820 hc        1 PC9      0.080700
     87 H322       16.0080    0.8160   12.8080 hc        1 PC9      0.080700
     88 H2         19.8700    2.9690   11.3700 h1        1 PC9      0.087700
     89 H11        18.7180    5.2610   11.8280 h1        1 PC9      0.056700
     90 H12        19.1290    5.0340   13.6000 h1        1 PC9      0.056700
     91 H41        22.6310    7.8520   14.3960 h1        1 PC9      0.053200
     92 H42        21.6420    7.6140   15.9300 h1        1 PC9      0.053200
     93 H51        23.5480    6.5060   16.5190 hx        1 PC9      0.091200
     94 H52        22.4450    5.1480   15.9250 hx        1 PC9      0.091200
     95 H71        25.1150    7.4540   14.8420 hx        1 PC9      0.100811
     96 H72        25.8520    6.2740   13.6460 hx        1 PC9      0.100811
     97 H73        24.2630    7.0960   13.2420 hx        1 PC9      0.100811
     98 H81        24.5490    3.9650   16.1290 hx        1 PC9      0.100811
     99 H82        25.9130    4.3220   14.9600 hx        1 PC9      0.100811
    100 H83        25.5790    5.4700   16.3450 hx        1 PC9      0.100811
    101 H61        24.4960    4.2410   13.0690 hx        1 PC9      0.100811
    102 H62        22.9150    5.1800   13.0240 hx        1 PC9      0.100811
    103 H63        23.1070    3.7590   14.1830 hx        1 PC9      0.100811
    104 H31        21.2570    2.8890   13.4410 h1        1 PC9      0.074700
    105 H32        20.1600    1.4060   13.2910 h1        1 PC9      0.074700
    106 H121       19.3630    4.5760   16.9530 hc        1 PC9      0.088700
    107 H122       18.5160    2.9730   16.9090 hc        1 PC9      0.088700
    108 H131       21.2580    3.4820   18.2760 hc        1 PC9      0.049700
    109 H132       20.3160    1.9420   18.3060 hc        1 PC9      0.049700
    110 H141       19.3590    4.6680   19.4350 hc        1 PC9      0.044700
    111 H142       18.4050    3.1340   19.4470 hc        1 PC9      0.044700
    112 H151       21.1730    3.5460   20.7810 hc        1 PC9      0.039700
    113 H152       20.2110    2.0180   20.7990 hc        1 PC9      0.039700
    114 H161       19.2800    4.7510   21.9270 hc        1 PC9      0.041700
    115 H162       18.3190    3.2220   21.9460 hc        1 PC9      0.041700
    116 H171       21.0890    3.6290   23.2760 hc        1 PC9      0.039200
    117 H172       20.1260    2.1020   23.2960 hc        1 PC9      0.039200
    118 H181       18.2360    3.3090   24.4430 hc        1 PC9      0.040200
    119 H182       19.1980    4.8370   24.4210 hc        1 PC9      0.040200
    120 H191       21.0070    3.7160   25.7710 hc        1 PC9      0.039200
    121 H192       20.0430    2.1890   25.7930 hc        1 PC9      0.039200
    122 H201       18.1540    3.3980   26.9400 hc        1 PC9      0.040200
    123 H202       19.1170    4.9250   26.9170 hc        1 PC9      0.040200
    124 H211       20.9250    3.8050   28.2670 hc        1 PC9      0.039200
    125 H212       19.9620    2.2790   28.2900 hc        1 PC9      0.039200
    126 H221       18.0730    3.4880   29.4360 hc        1 PC9      0.039700
    127 H222       19.0360    5.0150   29.4120 hc        1 PC9      0.039700
    128 H231       19.8810    2.3690   30.7870 hc        1 PC9      0.039200
    129 H232       20.8450    3.8960   30.7620 hc        1 PC9      0.039200
    130 H241       17.9930    3.5790   31.9330 hc        1 PC9      0.039700
    131 H242       18.9560    5.1060   31.9090 hc        1 PC9      0.039700
    132 H251       19.8000    2.4610   33.2810 hc        1 PC9      0.038200
    133 H252       20.7640    3.9870   33.2570 hc        1 PC9      0.038200
    134 H261       18.8930    5.1900   34.4360 hc        1 PC9      0.032700
    135 H262       17.9270    3.6600   34.4610 hc        1 PC9      0.032700
    136 H263       19.4820    3.7640   35.3850 hc        1 PC9      0.032700
@<TRIPOS>BOND
     1    1    2 1   
     2    1   55 1   
     3    1   56 1   
     4    1   57 1   
     5    2    3 1   
     6    2   58 1   
     7    2   59 1   
     8    3    4 1   
     9    3   60 1   
    10    3   61 1   
    11    4    5 1   
    12    4   62 1   
    13    4   63 1   
    14    5    6 1   
    15    5   64 1   
    16    5   65 1   
    17    6    7 1   
    18    6   66 1   
    19    6   67 1   
    20    7    8 1   
    21    7   68 1   
    22    7   69 1   
    23    8    9 1   
    24    8   70 1   
    25    8   71 1   
    26    9   10 1   
    27    9   72 1   
    28    9   73 1   
    29   10   11 1   
    30   10   74 1   
    31   10   75 1   
    32   11   12 1   
    33   11   76 1   
    34   11   77 1   
    35   12   13 1   
    36   12   14 1   
    37   12   78 1   
    38   14   15 1   
    39   14   16 1   
    40   14   79 1   
    41   16   17 1   
    42   16   80 1   
    43   16   81 1   
    44   17   18 1   
    45   17   82 1   
    46   17   83 1   
    47   18   19 1   
    48   18   84 1   
    49   18   85 1   
    50   19   20 1   
    51   19   86 1   
    52   19   87 1   
    53   20   21 2   
    54   20   22 1   
    55   22   23 1   
    56   23   24 1   
    57   23   36 1   
    58   23   88 1   
    59   24   25 1   
    60   24   89 1   
    61   24   90 1   
    62   25   26 1   
    63   26   27 1   
    64   26   28 1   
    65   26   29 1   
    66   29   30 1   
    67   30   31 1   
    68   30   91 1   
    69   30   92 1   
    70   31   32 1   
    71   31   93 1   
    72   31   94 1   
    73   32   33 1   
    74   32   34 1   
    75   32   35 1   
    76   33   95 1   
    77   33   96 1   
    78   33   97 1   
    79   34   98 1   
    80   34   99 1   
    81   34  100 1   
    82   35  101 1   
    83   35  102 1   
    84   35  103 1   
    85   36   37 1   
    86   36  104 1   
    87   36  105 1   
    88   37   38 1   
    89   38   39 2   
    90   38   40 1   
    91   40   41 1   
    92   40  106 1   
    93   40  107 1   
    94   41   42 1   
    95   41  108 1   
    96   41  109 1   
    97   42   43 1   
    98   42  110 1   
    99   42  111 1   
   100   43   44 1   
   101   43  112 1   
   102   43  113 1   
   103   44   45 1   
   104   44  114 1   
   105   44  115 1   
   106   45   46 1   
   107   45  116 1   
   108   45  117 1   
   109   46   47 1   
   110   46  118 1   
   111   46  119 1   
   112   47   48 1   
   113   47  120 1   
   114   47  121 1   
   115   48   49 1   
   116   48  122 1   
   117   48  123 1   
   118   49   50 1   
   119   49  124 1   
   120   49  125 1   
   121   50   51 1   
   122   50  126 1   
   123   50  127 1   
   124   51   52 1   
   125   51  128 1   
   126   51  129 1   
   127   52   53 1   
   128   52  130 1   
   129   52  131 1   
   130   53   54 1   
   131   53  132 1   
   132   53  133 1   
   133   54  134 1   
   134   54  135 1   
   135   54  136 1   
@<TRIPOS>SUBSTRUCTURE
     1 PC9         1 TEMP              0 ****  ****    0 ROOT
