@<TRIPOS>MOLECULE
PC9
  136   135     1     0     0
SMALL
bcc


@<TRIPOS>ATOM
      1 C48       -19.2680    5.3060   -3.3480 c3        1 PC9     -0.092100
      2 C47       -18.4490    4.2070   -2.7210 c3        1 PC9     -0.080400
      3 C46       -17.0100    4.6330   -2.5200 c3        1 PC9     -0.079400
      4 C45       -16.1910    3.5270   -1.8900 c3        1 PC9     -0.079400
      5 C44       -14.7530    3.9530   -1.6900 c3        1 PC9     -0.079400
      6 C43       -13.9340    2.8470   -1.0590 c3        1 PC9     -0.079400
      7 C42       -12.4960    3.2740   -0.8590 c3        1 PC9     -0.079400
      8 C41       -11.6780    2.1670   -0.2290 c3        1 PC9     -0.079400
      9 C40       -10.2390    2.5950   -0.0290 c3        1 PC9     -0.077400
     10 C39        -9.4230    1.4860    0.6020 c3        1 PC9     -0.083400
     11 C38        -7.9860    1.9230    0.8000 c3        1 PC9     -0.082400
     12 C37        -7.1230    0.8140    1.3730 c3        1 PC9      0.013700
     13 BR2        -7.5450    0.4550    3.2410 br        1 PC9     -0.158400
     14 C36        -5.6430    1.0950    1.1720 c3        1 PC9      0.014700
     15 BR1        -5.0270    2.5730    2.2820 br        1 PC9     -0.160400
     16 C35        -4.8050   -0.1540    1.3740 c3        1 PC9     -0.082400
     17 C34        -3.4120   -0.0080    0.7970 c3        1 PC9     -0.083400
     18 C33        -2.6410   -1.3040    0.9310 c3        1 PC9     -0.078400
     19 C32        -1.2460   -1.1560    0.3630 c3        1 PC9     -0.127400
     20 C31        -0.4480   -2.4070    0.5700 c         1 PC9      0.637100
     21 O31        -0.4750   -3.1950    1.5180 o         1 PC9     -0.553000
     22 O2          0.4220   -2.6400   -0.4580 os        1 PC9     -0.426900
     23 C2          1.2300   -3.8260   -0.3960 c3        1 PC9      0.135100
     24 C1          1.6780   -4.0860   -1.8380 c3        1 PC9      0.175400
     25 O3P         2.2720   -5.3540   -1.8730 os        1 PC9     -0.579200
     26 P           3.0120   -5.6860   -3.2980 p5        1 PC9      1.438800
     27 O1P         3.5630   -7.0530   -3.1470 o         1 PC9     -0.814000
     28 O2P         2.2780   -5.0790   -4.4080 o         1 PC9     -0.814000
     29 O4P         4.3560   -4.7510   -2.9470 os        1 PC9     -0.577200
     30 C4          5.5990   -5.2940   -3.1970 c3        1 PC9      0.197400
     31 C5          6.4040   -5.4610   -1.8930 c3        1 PC9      0.079800
     32 N           6.1890   -6.7190   -1.0910 n4        1 PC9     -0.576800
     33 C7          6.2690   -7.9330   -1.9520 c3        1 PC9      0.075433
     34 C8          7.2660   -6.7800   -0.0570 c3        1 PC9      0.075433
     35 C6          4.8720   -6.6930   -0.3880 c3        1 PC9      0.075433
     36 C3          2.4070   -3.6440    0.5590 c3        1 PC9      0.112400
     37 O3          3.1460   -2.4780    0.1700 os        1 PC9     -0.419900
     38 C11         4.5020   -2.5500    0.0970 c         1 PC9      0.664100
     39 O11         5.0820   -3.5790    0.4670 o         1 PC9     -0.609000
     40 C12         5.1060   -1.2950   -0.4580 c3        1 PC9     -0.134400
     41 C13         6.4350   -0.9870    0.1970 c3        1 PC9     -0.075400
     42 C14         7.0990    0.2000   -0.4680 c3        1 PC9     -0.080400
     43 C15         8.4210    0.5250    0.1920 c3        1 PC9     -0.078400
     44 C16         9.0900    1.7080   -0.4760 c3        1 PC9     -0.079400
     45 C17        10.4120    2.0350    0.1840 c3        1 PC9     -0.078400
     46 C18        11.0820    3.2170   -0.4840 c3        1 PC9     -0.079400
     47 C19        12.4040    3.5440    0.1750 c3        1 PC9     -0.078400
     48 C20        13.0740    4.7260   -0.4940 c3        1 PC9     -0.079400
     49 C21        14.3960    5.0530    0.1650 c3        1 PC9     -0.078400
     50 C22        15.0660    6.2350   -0.5030 c3        1 PC9     -0.079400
     51 C23        16.3880    6.5630    0.1560 c3        1 PC9     -0.079400
     52 C24        17.0580    7.7440   -0.5130 c3        1 PC9     -0.079400
     53 C25        18.3810    8.0730    0.1450 c3        1 PC9     -0.080400
     54 C26        19.0510    9.2490   -0.5170 c3        1 PC9     -0.093100
     55 H481      -19.2680    6.2160   -2.7010 hc        1 PC9      0.032700
     56 H482      -18.8530    5.5860   -4.3460 hc        1 PC9      0.032700
     57 H483      -20.3240    4.9710   -3.4870 hc        1 PC9      0.032700
     58 H471      -18.4810    3.2940   -3.3730 hc        1 PC9      0.038700
     59 H472      -18.8950    3.9220   -1.7320 hc        1 PC9      0.038700
     60 H461      -16.9760    5.5450   -1.8680 hc        1 PC9      0.039700
     61 H462      -16.5610    4.9170   -3.5080 hc        1 PC9      0.039700
     62 H451      -16.2260    2.6150   -2.5420 hc        1 PC9      0.039700
     63 H452      -16.6400    3.2430   -0.9020 hc        1 PC9      0.039700
     64 H441      -14.7180    4.8650   -1.0370 hc        1 PC9      0.039700
     65 H442      -14.3040    4.2370   -2.6780 hc        1 PC9      0.039700
     66 H431      -13.9690    1.9350   -1.7120 hc        1 PC9      0.039700
     67 H432      -14.3830    2.5630   -0.0710 hc        1 PC9      0.039700
     68 H421      -12.4610    4.1860   -0.2070 hc        1 PC9      0.040200
     69 H422      -12.0470    3.5570   -1.8480 hc        1 PC9      0.040200
     70 H411      -11.7120    1.2550   -0.8810 hc        1 PC9      0.041200
     71 H412      -12.1270    1.8840    0.7600 hc        1 PC9      0.041200
     72 H401      -10.2050    3.5060    0.6250 hc        1 PC9      0.041200
     73 H402       -9.7910    2.8790   -1.0170 hc        1 PC9      0.041200
     74 H391       -9.4550    0.5770   -0.0550 hc        1 PC9      0.048200
     75 H392       -9.8770    1.2010    1.5870 hc        1 PC9      0.048200
     76 H381       -7.9540    2.8280    1.4640 hc        1 PC9      0.060200
     77 H382       -7.5610    2.2290   -0.1940 hc        1 PC9      0.060200
     78 H37        -7.3740   -0.1490    0.8540 h1        1 PC9      0.084700
     79 H36        -5.4940    1.4690    0.1240 h1        1 PC9      0.084700
     80 H351       -5.3190   -1.0150    0.8640 hc        1 PC9      0.063200
     81 H352       -4.7380   -0.4100    2.4640 hc        1 PC9      0.063200
     82 H341       -2.8620    0.8130    1.3280 hc        1 PC9      0.049200
     83 H342       -3.4770    0.2800   -0.2860 hc        1 PC9      0.049200
     84 H331       -3.1810   -2.1270    0.3920 hc        1 PC9      0.059200
     85 H332       -2.5760   -1.6040    2.0110 hc        1 PC9      0.059200
     86 H321       -0.7000   -0.3200    0.8780 hc        1 PC9      0.080700
     87 H322       -1.2880   -0.9140   -0.7320 hc        1 PC9      0.080700
     88 H2          0.6120   -4.6880   -0.0170 h1        1 PC9      0.087700
     89 H11         0.8010   -4.0670   -2.5390 h1        1 PC9      0.056700
     90 H12         2.4290   -3.3140   -2.1620 h1        1 PC9      0.056700
     91 H41         5.5230   -6.2620   -3.7650 h1        1 PC9      0.053200
     92 H42         6.1930   -4.5480   -3.8070 h1        1 PC9      0.053200
     93 H51         7.4980   -5.4350   -2.1590 hx        1 PC9      0.091200
     94 H52         6.1510   -4.5940   -1.2140 hx        1 PC9      0.091200
     95 H71         7.1630   -7.8510   -2.6210 hx        1 PC9      0.100811
     96 H72         6.3630   -8.8390   -1.2980 hx        1 PC9      0.100811
     97 H73         5.3240   -8.0240   -2.5720 hx        1 PC9      0.100811
     98 H81         7.2390   -5.8410    0.5570 hx        1 PC9      0.100811
     99 H82         7.0940   -7.6670    0.6070 hx        1 PC9      0.100811
    100 H83         8.2640   -6.8790   -0.5590 hx        1 PC9      0.100811
    101 H61         4.0450   -6.6410   -1.1610 hx        1 PC9      0.100811
    102 H62         4.7630   -7.6300    0.2130 hx        1 PC9      0.100811
    103 H63         4.8250   -5.7880    0.2750 hx        1 PC9      0.100811
    104 H31         3.0470   -4.5650    0.5210 h1        1 PC9      0.074700
    105 H32         2.0430   -3.4470    1.6020 h1        1 PC9      0.074700
    106 H121        4.3910   -0.4410   -0.3200 hc        1 PC9      0.088200
    107 H122        5.2360   -1.4550   -1.5630 hc        1 PC9      0.088200
    108 H131        7.1030   -1.8870    0.1300 hc        1 PC9      0.050200
    109 H132        6.2780   -0.7720    1.2870 hc        1 PC9      0.050200
    110 H141        6.4200    1.0910   -0.4110 hc        1 PC9      0.044200
    111 H142        7.2640   -0.0210   -1.5560 hc        1 PC9      0.044200
    112 H151        9.0980   -0.3680    0.1400 hc        1 PC9      0.039700
    113 H152        8.2540    0.7520    1.2780 hc        1 PC9      0.039700
    114 H161        8.4130    2.6010   -0.4240 hc        1 PC9      0.041700
    115 H162        9.2570    1.4820   -1.5620 hc        1 PC9      0.041700
    116 H171       11.0890    1.1420    0.1340 hc        1 PC9      0.039200
    117 H172       10.2450    2.2620    1.2700 hc        1 PC9      0.039200
    118 H181       10.4050    4.1110   -0.4340 hc        1 PC9      0.040200
    119 H182       11.2490    2.9900   -1.5710 hc        1 PC9      0.040200
    120 H191       13.0810    2.6510    0.1250 hc        1 PC9      0.039200
    121 H192       12.2370    3.7720    1.2610 hc        1 PC9      0.039200
    122 H201       12.3970    5.6200   -0.4440 hc        1 PC9      0.040200
    123 H202       13.2410    4.4990   -1.5800 hc        1 PC9      0.040200
    124 H211       15.0730    4.1600    0.1160 hc        1 PC9      0.039200
    125 H212       14.2290    5.2810    1.2510 hc        1 PC9      0.039200
    126 H221       14.3890    7.1280   -0.4530 hc        1 PC9      0.039700
    127 H222       15.2330    6.0080   -1.5890 hc        1 PC9      0.039700
    128 H231       17.0650    5.6690    0.1060 hc        1 PC9      0.039200
    129 H232       16.2210    6.7900    1.2420 hc        1 PC9      0.039200
    130 H241       16.3810    8.6380   -0.4630 hc        1 PC9      0.039700
    131 H242       17.2250    7.5170   -1.5990 hc        1 PC9      0.039700
    132 H251       19.0550    7.1780    0.0960 hc        1 PC9      0.038200
    133 H252       18.2120    8.2980    1.2320 hc        1 PC9      0.038200
    134 H261       20.0240    9.4740   -0.0170 hc        1 PC9      0.032700
    135 H262       19.2500    9.0330   -1.5950 hc        1 PC9      0.032700
    136 H263       18.4040   10.1570   -0.4560 hc        1 PC9      0.032700
@<TRIPOS>BOND
     1    1    2 1   
     2    1   55 1   
     3    1   56 1   
     4    1   57 1   
     5    2    3 1   
     6    2   58 1   
     7    2   59 1   
     8    3    4 1   
     9    3   60 1   
    10    3   61 1   
    11    4    5 1   
    12    4   62 1   
    13    4   63 1   
    14    5    6 1   
    15    5   64 1   
    16    5   65 1   
    17    6    7 1   
    18    6   66 1   
    19    6   67 1   
    20    7    8 1   
    21    7   68 1   
    22    7   69 1   
    23    8    9 1   
    24    8   70 1   
    25    8   71 1   
    26    9   10 1   
    27    9   72 1   
    28    9   73 1   
    29   10   11 1   
    30   10   74 1   
    31   10   75 1   
    32   11   12 1   
    33   11   76 1   
    34   11   77 1   
    35   12   13 1   
    36   12   14 1   
    37   12   78 1   
    38   14   15 1   
    39   14   16 1   
    40   14   79 1   
    41   16   17 1   
    42   16   80 1   
    43   16   81 1   
    44   17   18 1   
    45   17   82 1   
    46   17   83 1   
    47   18   19 1   
    48   18   84 1   
    49   18   85 1   
    50   19   20 1   
    51   19   86 1   
    52   19   87 1   
    53   20   21 2   
    54   20   22 1   
    55   22   23 1   
    56   23   24 1   
    57   23   36 1   
    58   23   88 1   
    59   24   25 1   
    60   24   89 1   
    61   24   90 1   
    62   25   26 1   
    63   26   27 1   
    64   26   28 1   
    65   26   29 1   
    66   29   30 1   
    67   30   31 1   
    68   30   91 1   
    69   30   92 1   
    70   31   32 1   
    71   31   93 1   
    72   31   94 1   
    73   32   33 1   
    74   32   34 1   
    75   32   35 1   
    76   33   95 1   
    77   33   96 1   
    78   33   97 1   
    79   34   98 1   
    80   34   99 1   
    81   34  100 1   
    82   35  101 1   
    83   35  102 1   
    84   35  103 1   
    85   36   37 1   
    86   36  104 1   
    87   36  105 1   
    88   37   38 1   
    89   38   39 2   
    90   38   40 1   
    91   40   41 1   
    92   40  106 1   
    93   40  107 1   
    94   41   42 1   
    95   41  108 1   
    96   41  109 1   
    97   42   43 1   
    98   42  110 1   
    99   42  111 1   
   100   43   44 1   
   101   43  112 1   
   102   43  113 1   
   103   44   45 1   
   104   44  114 1   
   105   44  115 1   
   106   45   46 1   
   107   45  116 1   
   108   45  117 1   
   109   46   47 1   
   110   46  118 1   
   111   46  119 1   
   112   47   48 1   
   113   47  120 1   
   114   47  121 1   
   115   48   49 1   
   116   48  122 1   
   117   48  123 1   
   118   49   50 1   
   119   49  124 1   
   120   49  125 1   
   121   50   51 1   
   122   50  126 1   
   123   50  127 1   
   124   51   52 1   
   125   51  128 1   
   126   51  129 1   
   127   52   53 1   
   128   52  130 1   
   129   52  131 1   
   130   53   54 1   
   131   53  132 1   
   132   53  133 1   
   133   54  134 1   
   134   54  135 1   
   135   54  136 1   
@<TRIPOS>SUBSTRUCTURE
     1 PC9         1 TEMP              0 ****  ****    0 ROOT
