@<TRIPOS>MOLECULE
PCA
   15    15     1     0     0
SMALL
bcc


@<TRIPOS>ATOM
      1 N           0.6670    0.7400   -0.6950 n         1 PCA     -0.503900
      2 CA         -0.2770    0.5980    0.4150 c3        1 PCA     -0.070300
      3 CB         -1.5400   -0.0920   -0.1480 c3        1 PCA     -0.080400
      4 CG         -1.2340   -0.4020   -1.6100 c3        1 PCA     -0.168400
      5 CD          0.2050    0.0640   -1.8220 c         1 PCA      0.671500
      6 OE          0.8450   -0.0830   -2.8810 o         1 PCA     -0.682500
      7 C           0.3000   -0.1610    1.6530 c         1 PCA      0.906600
      8 O           1.5550   -0.2230    1.7700 o         1 PCA     -0.830300
      9 OXT        -0.5310   -0.6400    2.4690 o         1 PCA     -0.830300
     10 H           1.6300    0.6630   -0.4420 hn        1 PCA      0.323500
     11 HA         -0.5340    1.6360    0.7660 h1        1 PCA      0.047700
     12 HB2        -1.7510   -1.0190    0.4410 hc        1 PCA      0.053700
     13 HB3        -2.4240    0.5830   -0.0580 hc        1 PCA      0.053700
     14 HG2        -1.2980   -1.4950   -1.8300 hc        1 PCA      0.054200
     15 HG3        -1.9140    0.1400   -2.3100 hc        1 PCA      0.054200
@<TRIPOS>BOND
     1    1    2 1   
     2    1    5 1   
     3    1   10 1   
     4    2    3 1   
     5    2    7 1   
     6    2   11 1   
     7    3    4 1   
     8    3   12 1   
     9    3   13 1   
    10    4    5 1   
    11    4   14 1   
    12    4   15 1   
    13    5    6 2   
    14    7    8 1   
    15    7    9 1   
@<TRIPOS>SUBSTRUCTURE
     1 PCA         1 TEMP              0 ****  ****    0 ROOT
