@<TRIPOS>MOLECULE
PCB
   34    35     1     0     0
SMALL
bcc


@<TRIPOS>ATOM
      1 C1         -0.0300   -0.0400    0.7330 cp        1 PCB      0.013000
      2 C2         -0.8740   -0.9250    1.4240 ca        1 PCB      0.009400
      3 CL2        -1.9400   -1.9450    0.5900 cl        1 PCB     -0.050400
      4 C3         -0.8450   -0.9720    2.8190 ca        1 PCB     -0.026000
      5 C4          0.0180   -0.1570    3.5640 ca        1 PCB     -0.338500
      6 C5          0.8610    0.7140    2.8590 ca        1 PCB      0.117400
      7 CL5         1.9500    1.7280    3.6750 cl        1 PCB     -0.055400
      8 C6          0.8380    0.7770    1.4630 ca        1 PCB     -0.124000
      9 S          -0.0870   -0.2820    5.2610 sy        1 PCB      1.388300
     10 O1         -1.0650   -1.2390    5.5730 o         1 PCB     -0.644300
     11 O2         -0.2280    0.9770    5.8460 o         1 PCB     -0.644300
     12 CM          1.4360   -0.9170    5.6160 c3        1 PCB     -0.371300
     13 C1'        -0.0300    0.0400   -0.7330 cp        1 PCB      0.013000
     14 C2'        -0.8740    0.9250   -1.4240 ca        1 PCB      0.009400
     15 CL2'       -1.9390    1.9450   -0.5900 cl        1 PCB     -0.050400
     16 C3'        -0.8440    0.9710   -2.8200 ca        1 PCB     -0.026000
     17 C4'         0.0180    0.1560   -3.5650 ca        1 PCB     -0.338500
     18 C5'         0.8610   -0.7150   -2.8590 ca        1 PCB      0.117400
     19 CL5'        1.9500   -1.7290   -3.6750 cl        1 PCB     -0.055400
     20 C6'         0.8380   -0.7780   -1.4630 ca        1 PCB     -0.124000
     21 S'         -0.0870    0.2820   -5.2620 sy        1 PCB      1.388300
     22 O1'        -0.2280   -0.9780   -5.8470 o         1 PCB     -0.644300
     23 O2'        -1.0640    1.2390   -5.5740 o         1 PCB     -0.644300
     24 CM'         1.4370    0.9160   -5.6160 c3        1 PCB     -0.371300
     25 H3         -1.5250   -1.6660    3.3540 ha        1 PCB      0.192000
     26 H6          1.5020    1.4790    0.9300 ha        1 PCB      0.165000
     27 HM1         1.3890   -1.5980    6.5050 h1        1 PCB      0.122700
     28 HM2         1.8890   -1.5240    4.7950 h1        1 PCB      0.122700
     29 HM3         2.1840   -0.1240    5.8690 h1        1 PCB      0.122700
     30 H3'        -1.5240    1.6660   -3.3550 ha        1 PCB      0.192000
     31 H6'         1.5010   -1.4800   -0.9300 ha        1 PCB      0.165000
     32 HM'1        1.3900    1.5970   -6.5060 h1        1 PCB      0.122700
     33 HM'2        1.8890    1.5240   -4.7950 h1        1 PCB      0.122700
     34 HM'3        2.1850    0.1230   -5.8690 h1        1 PCB      0.122700
@<TRIPOS>BOND
     1    1    2 ar  
     2    1    8 ar  
     3    1   13 1   
     4    2    3 1   
     5    2    4 ar  
     6    4    5 ar  
     7    4   25 1   
     8    5    6 ar  
     9    5    9 1   
    10    6    7 1   
    11    6    8 ar  
    12    8   26 1   
    13    9   10 2   
    14    9   11 2   
    15    9   12 1   
    16   12   27 1   
    17   12   28 1   
    18   12   29 1   
    19   13   14 ar  
    20   13   20 ar  
    21   14   15 1   
    22   14   16 ar  
    23   16   17 ar  
    24   16   30 1   
    25   17   18 ar  
    26   17   21 1   
    27   18   19 1   
    28   18   20 ar  
    29   20   31 1   
    30   21   22 2   
    31   21   23 2   
    32   21   24 1   
    33   24   32 1   
    34   24   33 1   
    35   24   34 1   
@<TRIPOS>SUBSTRUCTURE
     1 PCB         1 TEMP              0 ****  ****    0 ROOT
