@<TRIPOS>MOLECULE
PCB
   34    35     1     0     0
SMALL
bcc


@<TRIPOS>ATOM
      1 C1          0.0040    0.0120   -0.0110 cp        1 PCB      0.013000
      2 C2          1.3710    0.3330    0.0320 ca        1 PCB      0.009400
      3 Cl2         2.2250    0.7050   -1.3830 cl        1 PCB     -0.050400
      4 C3          2.0470    0.3450    1.2540 ca        1 PCB     -0.026000
      5 C4          1.3940    0.0510    2.4590 ca        1 PCB     -0.338500
      6 C5          0.0280   -0.2580    2.4000 ca        1 PCB      0.117400
      7 Cl5        -0.8500   -0.6130    3.8080 cl        1 PCB     -0.055400
      8 C6         -0.6610   -0.2820    1.1830 ca        1 PCB     -0.124000
      9 S           2.3530    0.0550    3.8690 sy        1 PCB      1.388300
     10 O1          3.6680    0.3810    3.5070 o         1 PCB     -0.644300
     11 O2          2.1730   -1.1220    4.5970 o         1 PCB     -0.644300
     12 CM          1.6710    1.3580    4.6980 c3        1 PCB     -0.371300
     13 C1'        -0.7440   -0.0120   -1.2740 cp        1 PCB      0.013000
     14 C2'        -0.8460   -1.1800   -2.0490 ca        1 PCB      0.009400
     15 Cl2'       -0.1030   -2.6210   -1.5570 cl        1 PCB     -0.050400
     16 C3'        -1.5660   -1.1630   -3.2450 ca        1 PCB     -0.026000
     17 C4'        -2.2060   -0.0030   -3.7020 ca        1 PCB     -0.338500
     18 C5'        -2.1010    1.1510   -2.9130 ca        1 PCB      0.117400
     19 Cl5'       -2.8560    2.5990   -3.3780 cl        1 PCB     -0.055400
     20 C6'        -1.3790    1.1520   -1.7160 ca        1 PCB     -0.124000
     21 S'         -3.0070   -0.1130   -5.2030 sy        1 PCB      1.388300
     22 O1'        -2.6180    0.9240   -6.0530 o         1 PCB     -0.644300
     23 O2'        -2.8570   -1.4200   -5.6890 o         1 PCB     -0.644300
     24 CM'        -4.6070    0.1120   -4.7120 c3        1 PCB     -0.371300
     25 H3          3.1290    0.5880    1.2740 ha        1 PCB      0.191000
     26 H6         -1.7330   -0.5390    1.1600 ha        1 PCB      0.165000
     27 HM1         1.2110    2.1360    4.0420 h1        1 PCB      0.122700
     28 HM2         2.4450    1.8940    5.3070 h1        1 PCB      0.122700
     29 HM3         0.8740    1.0400    5.4170 h1        1 PCB      0.122700
     30 H3'        -1.6300   -2.0880   -3.8540 ha        1 PCB      0.191000
     31 H6'        -1.3010    2.0750   -1.1180 ha        1 PCB      0.165000
     32 HM'1       -4.9320    1.1810   -4.7820 h1        1 PCB      0.122700
     33 HM'2       -4.8220   -0.2140   -3.6660 h1        1 PCB      0.122700
     34 HM'3       -5.3100   -0.4710   -5.3620 h1        1 PCB      0.122700
@<TRIPOS>BOND
     1    1    2 ar  
     2    1    8 ar  
     3    1   13 1   
     4    2    3 1   
     5    2    4 ar  
     6    4    5 ar  
     7    4   25 1   
     8    5    6 ar  
     9    5    9 1   
    10    6    7 1   
    11    6    8 ar  
    12    8   26 1   
    13    9   10 2   
    14    9   11 2   
    15    9   12 1   
    16   12   27 1   
    17   12   28 1   
    18   12   29 1   
    19   13   14 ar  
    20   13   20 ar  
    21   14   15 1   
    22   14   16 ar  
    23   16   17 ar  
    24   16   30 1   
    25   17   18 ar  
    26   17   21 1   
    27   18   19 1   
    28   18   20 ar  
    29   20   31 1   
    30   21   22 2   
    31   21   23 2   
    32   21   24 1   
    33   24   32 1   
    34   24   33 1   
    35   24   34 1   
@<TRIPOS>SUBSTRUCTURE
     1 PCB         1 TEMP              0 ****  ****    0 ROOT
