@<TRIPOS>MOLECULE
PCB
   34    35     1     0     0
SMALL
bcc


@<TRIPOS>ATOM
      1 C1          0.0050    0.0120   -0.0110 cp        1 PCB      0.013000
      2 C2          1.3710    0.3360    0.0310 ca        1 PCB      0.009400
      3 CL2         2.2230    0.7130   -1.3850 cl        1 PCB     -0.050400
      4 C3          2.0480    0.3480    1.2520 ca        1 PCB     -0.026000
      5 C4          1.3970    0.0500    2.4570 ca        1 PCB     -0.338500
      6 C5          0.0310   -0.2620    2.3980 ca        1 PCB      0.117400
      7 CL5        -0.8440   -0.6210    3.8070 cl        1 PCB     -0.055400
      8 C6         -0.6590   -0.2850    1.1830 ca        1 PCB     -0.124000
      9 S           2.3570    0.0540    3.8660 sy        1 PCB      1.388300
     10 O1          3.6720    0.3850    3.5030 o         1 PCB     -0.644300
     11 O2          2.1810   -1.1250    4.5920 o         1 PCB     -0.644300
     12 CM          1.6730    1.3540    4.6980 c3        1 PCB     -0.371300
     13 C1'        -0.7440   -0.0110   -1.2750 cp        1 PCB      0.013000
     14 C2'        -0.8450   -1.1780   -2.0500 ca        1 PCB      0.009400
     15 CL2'       -0.0990   -2.6190   -1.5610 cl        1 PCB     -0.050400
     16 C3'        -1.5660   -1.1610   -3.2460 ca        1 PCB     -0.026000
     17 C4'        -2.2080   -0.0010   -3.7010 ca        1 PCB     -0.338500
     18 C5'        -2.1050    1.1520   -2.9100 ca        1 PCB      0.117400
     19 CL5'       -2.8630    2.5990   -3.3720 cl        1 PCB     -0.055400
     20 C6'        -1.3810    1.1520   -1.7140 ca        1 PCB     -0.124000
     21 S'         -3.0110   -0.1100   -5.2010 sy        1 PCB      1.388300
     22 O1'        -2.6240    0.9280   -6.0500 o         1 PCB     -0.644300
     23 O2'        -2.8600   -1.4170   -5.6890 o         1 PCB     -0.644300
     24 CM'        -4.6100    0.1120   -4.7090 c3        1 PCB     -0.371300
     25 H3          3.1300    0.5930    1.2710 ha        1 PCB      0.192000
     26 H6         -1.7300   -0.5440    1.1600 ha        1 PCB      0.165000
     27 HM1         1.2080    2.1310    4.0440 h1        1 PCB      0.122700
     28 HM2         2.4470    1.8920    5.3050 h1        1 PCB      0.122700
     29 HM3         0.8790    1.0320    5.4180 h1        1 PCB      0.122700
     30 H3'        -1.6280   -2.0850   -3.8570 ha        1 PCB      0.192000
     31 H6'        -1.3050    2.0750   -1.1150 ha        1 PCB      0.165000
     32 HM'1       -4.9380    1.1800   -4.7790 h1        1 PCB      0.122700
     33 HM'2       -4.8230   -0.2140   -3.6620 h1        1 PCB      0.122700
     34 HM'3       -5.3130   -0.4740   -5.3570 h1        1 PCB      0.122700
@<TRIPOS>BOND
     1    1    2 ar  
     2    1    8 ar  
     3    1   13 1   
     4    2    3 1   
     5    2    4 ar  
     6    4    5 ar  
     7    4   25 1   
     8    5    6 ar  
     9    5    9 1   
    10    6    7 1   
    11    6    8 ar  
    12    8   26 1   
    13    9   10 2   
    14    9   11 2   
    15    9   12 1   
    16   12   27 1   
    17   12   28 1   
    18   12   29 1   
    19   13   14 ar  
    20   13   20 ar  
    21   14   15 1   
    22   14   16 ar  
    23   16   17 ar  
    24   16   30 1   
    25   17   18 ar  
    26   17   21 1   
    27   18   19 1   
    28   18   20 ar  
    29   20   31 1   
    30   21   22 2   
    31   21   23 2   
    32   21   24 1   
    33   24   32 1   
    34   24   33 1   
    35   24   34 1   
@<TRIPOS>SUBSTRUCTURE
     1 PCB         1 TEMP              0 ****  ****    0 ROOT
