@<TRIPOS>MOLECULE
PCC
   15    15     1     0     0
SMALL
bcc


@<TRIPOS>ATOM
      1 N          -0.7530    0.5750   -0.7980 n         1 PCC     -0.503900
      2 CA          0.3950   -0.3320   -0.7410 c3        1 PCC     -0.070300
      3 CB         -0.0190   -1.5320    0.1420 c3        1 PCC     -0.080400
      4 CG         -1.4260   -1.2230    0.6410 c3        1 PCC     -0.168400
      5 CD         -1.7500    0.1610    0.0820 c         1 PCC      0.671500
      6 C           1.7140    0.3360   -0.2370 c         1 PCC      0.906600
      7 O           1.8000    1.5930   -0.3100 o         1 PCC     -0.830300
      8 OE1        -2.7950    0.7950    0.3280 o         1 PCC     -0.682500
      9 OXT         2.6180   -0.4320    0.1880 o         1 PCC     -0.830300
     10 H          -0.5210    1.5450   -0.8510 hn        1 PCC      0.323500
     11 HA          0.5940   -0.6820   -1.7920 h1        1 PCC      0.047700
     12 HB2        -0.0030   -2.4760   -0.4540 hc        1 PCC      0.053700
     13 HB3         0.7100   -1.6430    0.9830 hc        1 PCC      0.053700
     14 HG2        -2.1780   -1.9630    0.2770 hc        1 PCC      0.054200
     15 HG3        -1.4770   -1.1840    1.7550 hc        1 PCC      0.054200
@<TRIPOS>BOND
     1    1    2 1   
     2    1    5 1   
     3    1   10 1   
     4    2    3 1   
     5    2    6 1   
     6    2   11 1   
     7    3    4 1   
     8    3   12 1   
     9    3   13 1   
    10    4    5 1   
    11    4   14 1   
    12    4   15 1   
    13    5    8 2   
    14    6    7 1   
    15    6    9 1   
@<TRIPOS>SUBSTRUCTURE
     1 PCC         1 TEMP              0 ****  ****    0 ROOT
