@<TRIPOS>MOLECULE
PCE
   43    43     1     0     0
SMALL
bcc


@<TRIPOS>ATOM
      1 N           0.5870    1.9850   -0.7590 n3        1 PCE     -0.898800
      2 CA          0.1930    0.5870   -0.8000 c3        1 PCE      0.126500
      3 CB          0.8660   -0.2340   -1.9150 c3        1 PCE     -0.112400
      4 CG          0.3500    0.0990   -3.3060 c3        1 PCE     -0.059700
      5 CD1         1.3510   -0.3630   -4.3580 c3        1 PCE     -0.074900
      6 CD2        -1.0040   -0.5510   -3.5570 c3        1 PCE     -0.074900
      7 CE1         0.8550   -0.0770   -5.7600 c3        1 PCE     -0.075400
      8 CE2        -1.5040   -0.2600   -4.9570 c3        1 PCE     -0.075400
      9 CZ         -0.5020   -0.7040   -6.0040 c3        1 PCE     -0.074400
     10 CH          0.4410   -0.1430    0.5570 c3        1 PCE      0.165100
     11 OH          0.0140   -1.4830    0.4220 oh        1 PCE     -0.646800
     12 CM         -0.2410    0.5930    1.7070 c3        1 PCE     -0.087400
     13 CA2        -0.2450   -0.2160    2.9940 c3        1 PCE     -0.187700
     14 CB2         0.1180    0.6460    4.1960 c3        1 PCE     -0.012300
     15 CG2         1.4960    1.0430    4.2280 c1        1 PCE     -0.077100
     16 CD3         2.6460    1.3780    4.2740 c1        1 PCE     -0.257500
     17 C          -1.6270   -0.8810    3.2320 c         1 PCE      0.914600
     18 O          -2.0650   -0.9690    4.4110 o         1 PCE     -0.840800
     19 OXT        -2.2440   -1.3290    2.2190 o         1 PCE     -0.840800
     20 H           1.4070    2.1010   -0.1960 hn        1 PCE      0.332800
     21 H2          0.7920    2.3120   -1.6840 hn        1 PCE      0.332800
     22 HA         -0.9230    0.5760   -0.9830 h1        1 PCE      0.068700
     23 HB2         1.9750   -0.0700   -1.8790 hc        1 PCE      0.053200
     24 HB3         0.6840   -1.3220   -1.7050 hc        1 PCE      0.053200
     25 HG          0.2260    1.2130   -3.4110 hc        1 PCE      0.037700
     26 HD12        2.3310    0.1560   -4.1960 hc        1 PCE      0.044200
     27 HD13        1.5290   -1.4640   -4.2380 hc        1 PCE      0.044200
     28 HD23       -0.9170   -1.6600   -3.4120 hc        1 PCE      0.044200
     29 HD22       -1.7470   -0.1720   -2.8070 hc        1 PCE      0.044200
     30 HE12        0.7850    1.0320   -5.9110 hc        1 PCE      0.031950
     31 HE13        1.5910   -0.4720   -6.5070 hc        1 PCE      0.031950
     32 HE23       -1.6950    0.8400   -5.0660 hc        1 PCE      0.031950
     33 HE22       -2.4790   -0.7890   -5.1240 hc        1 PCE      0.031950
     34 HZ2        -0.8700   -0.4200   -7.0240 hc        1 PCE      0.031200
     35 HZ3        -0.4070   -1.8210   -5.9780 hc        1 PCE      0.031200
     36 HH          1.5520   -0.2060    0.7370 h1        1 PCE      0.030700
     37 HO         -0.8710   -1.5670    0.8270 ho        1 PCE      0.467000
     38 HM1         0.2850    1.5690    1.8690 hc        1 PCE      0.050700
     39 HM2        -1.3010    0.8160    1.4100 hc        1 PCE      0.050700
     40 HA2         0.4940   -1.0590    2.9110 hc        1 PCE      0.052700
     41 HB21       -0.5350    1.5630    4.2020 hc        1 PCE      0.075700
     42 HB22       -0.1300    0.0610    5.1290 hc        1 PCE      0.075700
     43 HD31        3.6610    1.6690    4.3120 ha        1 PCE      0.143500
@<TRIPOS>BOND
     1    1    2 1   
     2    1   20 1   
     3    1   21 1   
     4    2    3 1   
     5    2   10 1   
     6    2   22 1   
     7    3    4 1   
     8    3   23 1   
     9    3   24 1   
    10    4    5 1   
    11    4    6 1   
    12    4   25 1   
    13    5    7 1   
    14    5   26 1   
    15    5   27 1   
    16    6    8 1   
    17    6   28 1   
    18    6   29 1   
    19    7    9 1   
    20    7   30 1   
    21    7   31 1   
    22    8    9 1   
    23    8   32 1   
    24    8   33 1   
    25    9   34 1   
    26    9   35 1   
    27   10   11 1   
    28   10   12 1   
    29   10   36 1   
    30   11   37 1   
    31   12   13 1   
    32   12   38 1   
    33   12   39 1   
    34   13   14 1   
    35   13   17 1   
    36   13   40 1   
    37   14   15 1   
    38   14   41 1   
    39   14   42 1   
    40   15   16 3   
    41   16   43 1   
    42   17   18 1   
    43   17   19 1   
@<TRIPOS>SUBSTRUCTURE
     1 PCE         1 TEMP              0 ****  ****    0 ROOT
