@<TRIPOS>MOLECULE
PCF
  130   128     1     0     0
SMALL
bcc


@<TRIPOS>ATOM
      1 N          -7.3410    1.1780   -3.1870 n4        1 PCF      0.057000
      2 P          -4.0570   -1.9300   -0.6970 p3        1 PCF      2.543000
      3 O11        -3.2040   -1.8410    0.6770 o         1 PCF     -0.740000
      4 O12        -4.8120   -3.2240   -0.7350 o         1 PCF     -1.128500
      5 O13        -5.1070   -0.6890   -0.7650 os        1 PCF     -0.745000
      6 O14        -3.1240   -1.8600   -1.8680 o         1 PCF     -1.128500
      7 C11        -5.7000   -0.3460   -2.0580 c3        1 PCF      0.043000
      8 C12        -6.8610    0.6760   -1.8460 c3        1 PCF     -0.156000
      9 C13        -6.2630    1.9010   -3.8470 c3        1 PCF     -0.200667
     10 C14        -7.7410    0.0550   -4.0070 c3        1 PCF     -0.200667
     11 C15        -8.4440    2.0420   -3.0040 c3        1 PCF     -0.200667
     12 C1         -2.7940   -3.0900    1.3310 c3        1 PCF      0.042000
     13 C2         -1.6110   -2.8240    2.2240 c3        1 PCF     -0.014000
     14 C3         -2.0930   -2.4330    3.5940 c3        1 PCF     -0.041000
     15 O31        -2.1020   -1.0090    3.7060 os        1 PCF     -0.270000
     16 O32        -3.0830   -1.2630    5.7600 o         1 PCF     -0.431000
     17 C31        -2.5230   -0.5260    5.0020 c2        1 PCF      0.344000
     18 C32        -2.1220    0.8950    5.4630 c3        1 PCF     -0.166000
     19 C33        -3.4200    1.7060    5.8560 c3        1 PCF     -0.153000
     20 C34        -3.0240    3.1530    6.2850 c3        1 PCF     -0.159000
     21 C35        -4.2420    4.0770    6.1420 c3        1 PCF     -0.156000
     22 C36        -3.7840    5.5320    6.1490 c3        1 PCF     -0.158000
     23 C37        -4.9500    6.4500    5.6650 c3        1 PCF     -0.157000
     24 C38        -4.4000    7.8660    5.3680 c3        1 PCF     -0.158000
     25 C39        -5.4540    8.6790    4.5980 c3        1 PCF     -0.157000
     26 C40        -4.8060    9.9760    4.0540 c3        1 PCF     -0.158000
     27 C41        -5.7990   10.6920    3.0840 c3        1 PCF     -0.157000
     28 C42        -5.0980   11.8760    2.4210 c3        1 PCF     -0.158000
     29 C43        -6.0440   12.5100    1.3580 c3        1 PCF     -0.158000
     30 O21        -0.7960   -4.0220    2.3200 os        1 PCF     -0.269000
     31 O22         0.6060   -3.0520    0.7870 o         1 PCF     -0.384000
     32 C21         0.3760   -4.0060    1.4770 c2        1 PCF      0.321000
     33 C22         1.3760   -5.2040    1.5110 c3        1 PCF     -0.157000
     34 C23         2.2160   -5.2340    0.1750 c3        1 PCF     -0.157000
     35 C24         3.2140   -6.3970    0.2290 c3        1 PCF     -0.158000
     36 C25         3.8510   -6.6040   -1.1840 c3        1 PCF     -0.157000
     37 C26         5.1180   -7.5120   -1.0580 c3        1 PCF     -0.158000
     38 C27         5.8610   -7.5630   -2.4370 c3        1 PCF     -0.158000
     39 C28         7.2140   -8.3570   -2.2820 c3        1 PCF     -0.158000
     40 C29         8.0590   -8.2460   -3.6480 c3        1 PCF     -0.158000
     41 C30         9.4250   -8.9700   -3.4750 c3        1 PCF     -0.158000
     42 C47        10.3480   -8.6490   -4.7010 c3        1 PCF     -0.158000
     43 C48        11.7000   -9.3890   -4.5340 c3        1 PCF     -0.158000
     44 C49        12.7170   -8.9100   -5.6700 c3        1 PCF     -0.158000
     45 C50        14.0780   -9.6150   -5.4720 c3        1 PCF     -0.158000
     46 C51        15.0810   -9.0940   -6.5140 c3        1 PCF     -0.159000
     47 C52        16.4210   -9.6650   -6.2430 c3        1 PCF     -0.210000
     48 C44        -5.3250   13.6960    0.6620 c3        1 PCF     -0.158000
     49 C45        -6.2510   14.3180   -0.3460 c3        1 PCF     -0.159000
     50 C46        -5.5150   15.4370   -1.1000 c3        1 PCF     -0.211000
     51 H111       -6.0550   -1.1600   -2.4830 h1        1 PCF      0.094500
     52 H112       -5.0230    0.0470   -2.6280 h1        1 PCF      0.094500
     53 H121       -7.6080    0.2330   -1.3740 hx        1 PCF      0.133000
     54 H122       -6.5380    1.4310   -1.3090 hx        1 PCF      0.133000
     55 H131       -6.6340    2.4580   -4.5660 hx        1 PCF      0.140222
     56 H132       -5.6190    1.2560   -4.2280 hx        1 PCF      0.140222
     57 H133       -5.8030    2.4750   -3.1910 hx        1 PCF      0.140222
     58 H141       -8.3240    0.3720   -4.7370 hx        1 PCF      0.140222
     59 H142       -8.2320   -0.5990   -3.4550 hx        1 PCF      0.140222
     60 H143       -6.9440   -0.3720   -4.3870 hx        1 PCF      0.140222
     61 H151       -8.7600    2.3690   -3.8890 hx        1 PCF      0.140222
     62 H152       -8.1740    2.8000   -2.4560 hx        1 PCF      0.140222
     63 H153       -9.1650    1.5590   -2.5590 hx        1 PCF      0.140222
     64 H11        -3.5220   -3.4290    1.8570 h1        1 PCF      0.097000
     65 H12        -2.5480   -3.7500    0.6510 h1        1 PCF      0.097000
     66 H21        -1.0750   -2.0920    1.8460 h1        1 PCF      0.124000
     67 H31        -2.9940   -2.7750    3.7300 h1        1 PCF      0.130500
     68 H32        -1.4830   -2.8180    4.2840 h1        1 PCF      0.130500
     69 H321       -1.6620    1.3520    4.7380 hc        1 PCF      0.132000
     70 H322       -1.5300    0.8310    6.2360 hc        1 PCF      0.132000
     71 H331       -4.0300    1.7490    5.0780 hc        1 PCF      0.087500
     72 H332       -3.8800    1.2500    6.6140 hc        1 PCF      0.087500
     73 H341       -2.7260    3.1480    7.2140 hc        1 PCF      0.084000
     74 H342       -2.3080    3.4730    5.7190 hc        1 PCF      0.084000
     75 H351       -4.6960    3.8850    5.3090 hc        1 PCF      0.078500
     76 H352       -4.8530    3.9250    6.8870 hc        1 PCF      0.078500
     77 H361       -3.5230    5.7880    7.0610 hc        1 PCF      0.081000
     78 H362       -3.0160    5.6360    5.5480 hc        1 PCF      0.081000
     79 H371       -5.6310    6.5060    6.3630 hc        1 PCF      0.078500
     80 H372       -5.3470    6.0740    4.8490 hc        1 PCF      0.078500
     81 H381       -4.1900    8.3200    6.2130 hc        1 PCF      0.080000
     82 H382       -3.5860    7.7920    4.8270 hc        1 PCF      0.080000
     83 H391       -6.1800    8.9070    5.1910 hc        1 PCF      0.078500
     84 H392       -5.7960    8.1490    3.8540 hc        1 PCF      0.078500
     85 H401       -4.5910   10.5770    4.8070 hc        1 PCF      0.079000
     86 H402       -3.9760    9.7490    3.5660 hc        1 PCF      0.079000
     87 H411       -6.5670   11.0100    3.5840 hc        1 PCF      0.079000
     88 H412       -6.0960   10.0600    2.3940 hc        1 PCF      0.079000
     89 H421       -4.2780   11.5680    1.9870 hc        1 PCF      0.079000
     90 H422       -4.8780   12.5390    3.0940 hc        1 PCF      0.079000
     91 H431       -6.2860   11.8200    0.6730 hc        1 PCF      0.078500
     92 H432       -6.8650   12.8370    1.8020 hc        1 PCF      0.078500
     93 H221        0.8780   -6.0400    1.6010 hc        1 PCF      0.118500
     94 H222        1.9920   -5.1000    2.2870 hc        1 PCF      0.118500
     95 H231        2.7080   -4.3830    0.0750 hc        1 PCF      0.095500
     96 H232        1.6210   -5.3530   -0.5800 hc        1 PCF      0.095500
     97 H241        2.7520   -7.2060    0.4970 hc        1 PCF      0.080500
     98 H242        3.9250   -6.1900    0.8840 hc        1 PCF      0.080500
     99 H251        3.2000   -7.0330   -1.7760 hc        1 PCF      0.081000
    100 H252        4.1130   -5.7210   -1.5620 hc        1 PCF      0.081000
    101 H261        4.8480   -8.4190   -0.7980 hc        1 PCF      0.079500
    102 H262        5.7200   -7.1410   -0.3740 hc        1 PCF      0.079500
    103 H271        6.0500   -6.6520   -2.7380 hc        1 PCF      0.079500
    104 H272        5.2950   -8.0110   -3.0950 hc        1 PCF      0.079500
    105 H281        7.7370   -7.9740   -1.5400 hc        1 PCF      0.079500
    106 H282        7.0200   -9.3000   -2.0940 hc        1 PCF      0.079500
    107 H291        7.5570   -8.6660   -4.3780 hc        1 PCF      0.078500
    108 H292        8.2150   -7.2990   -3.8610 hc        1 PCF      0.078500
    109 H301        9.8540   -8.6620   -2.6570 hc        1 PCF      0.079000
    110 H302        9.2760   -9.9370   -3.4230 hc        1 PCF      0.079000
    111 H471       10.5070   -7.6890   -4.7460 hc        1 PCF      0.078500
    112 H472        9.9120   -8.9470   -5.5260 hc        1 PCF      0.078500
    113 H481       12.0760   -9.1860   -3.6530 hc        1 PCF      0.079000
    114 H482       11.5530  -10.3620   -4.6130 hc        1 PCF      0.079000
    115 H491       12.3520   -9.1420   -6.5580 hc        1 PCF      0.078500
    116 H492       12.8410   -7.9300   -5.6100 hc        1 PCF      0.078500
    117 H501       14.4140   -9.4270   -4.5760 hc        1 PCF      0.079000
    118 H502       13.9650  -10.5790   -5.5820 hc        1 PCF      0.079000
    119 H511       15.1270   -8.1170   -6.4630 hc        1 PCF      0.077500
    120 H512       14.7870   -9.3610   -7.4120 hc        1 PCF      0.077500
    121 H521       16.7100   -9.4070   -5.3460 hc        1 PCF      0.072000
    122 H522       17.0530   -9.3280   -6.8950 hc        1 PCF      0.072000
    123 H523       16.3780  -10.6450   -6.3040 hc        1 PCF      0.072000
    124 H441       -4.5180   13.3690    0.2080 hc        1 PCF      0.079000
    125 H442       -5.0770   14.3570    1.3240 hc        1 PCF      0.079000
    126 H451       -7.0210   14.6900    0.1100 hc        1 PCF      0.078000
    127 H452       -6.5490   13.6320   -0.9850 hc        1 PCF      0.078000
    128 H461       -5.1440   16.0820   -0.4520 hc        1 PCF      0.072000
    129 H462       -6.1330   15.8890   -1.6850 hc        1 PCF      0.072000
    130 H463       -4.7740   15.0430   -1.6400 hc        1 PCF      0.072000
@<TRIPOS>BOND
     1    1    8 1   
     2    1    9 1   
     3    1   10 1   
     4    1   11 1   
     5    2    4 1   
     6    2    5 1   
     7    2    6 1   
     8    3   12 1   
     9    5    7 1   
    10    7    8 1   
    11    7   51 1   
    12    7   52 1   
    13    8   53 1   
    14    8   54 1   
    15    9   55 1   
    16    9   56 1   
    17    9   57 1   
    18   10   58 1   
    19   10   59 1   
    20   10   60 1   
    21   11   61 1   
    22   11   62 1   
    23   11   63 1   
    24   12   13 1   
    25   12   64 1   
    26   12   65 1   
    27   13   14 1   
    28   13   30 1   
    29   13   66 1   
    30   14   15 1   
    31   14   67 1   
    32   14   68 1   
    33   15   17 1   
    34   16   17 1   
    35   17   18 1   
    36   18   19 1   
    37   18   69 1   
    38   18   70 1   
    39   19   20 1   
    40   19   71 1   
    41   19   72 1   
    42   20   21 1   
    43   20   73 1   
    44   20   74 1   
    45   21   22 1   
    46   21   75 1   
    47   21   76 1   
    48   22   23 1   
    49   22   77 1   
    50   22   78 1   
    51   23   24 1   
    52   23   79 1   
    53   23   80 1   
    54   24   25 1   
    55   24   81 1   
    56   24   82 1   
    57   25   26 1   
    58   25   83 1   
    59   25   84 1   
    60   26   27 1   
    61   26   85 1   
    62   26   86 1   
    63   27   28 1   
    64   27   87 1   
    65   27   88 1   
    66   28   29 1   
    67   28   89 1   
    68   28   90 1   
    69   29   48 1   
    70   29   91 1   
    71   29   92 1   
    72   30   32 1   
    73   31   32 1   
    74   32   33 1   
    75   33   34 1   
    76   33   93 1   
    77   33   94 1   
    78   34   35 1   
    79   34   95 1   
    80   34   96 1   
    81   35   36 1   
    82   35   97 1   
    83   35   98 1   
    84   36   37 1   
    85   36   99 1   
    86   36  100 1   
    87   37   38 1   
    88   37  101 1   
    89   37  102 1   
    90   38   39 1   
    91   38  103 1   
    92   38  104 1   
    93   39   40 1   
    94   39  105 1   
    95   39  106 1   
    96   40   41 1   
    97   40  107 1   
    98   40  108 1   
    99   41   42 1   
   100   41  109 1   
   101   41  110 1   
   102   42   43 1   
   103   42  111 1   
   104   42  112 1   
   105   43   44 1   
   106   43  113 1   
   107   43  114 1   
   108   44   45 1   
   109   44  115 1   
   110   44  116 1   
   111   45   46 1   
   112   45  117 1   
   113   45  118 1   
   114   46   47 1   
   115   46  119 1   
   116   46  120 1   
   117   47  121 1   
   118   47  122 1   
   119   47  123 1   
   120   48   49 1   
   121   48  124 1   
   122   48  125 1   
   123   49   50 1   
   124   49  126 1   
   125   49  127 1   
   126   50  128 1   
   127   50  129 1   
   128   50  130 1   
@<TRIPOS>SUBSTRUCTURE
     1 PCF         1 TEMP              0 ****  ****    0 ROOT
