@<TRIPOS>MOLECULE
PCF
  130   129     1     0     0
SMALL
bcc


@<TRIPOS>ATOM
      1 N          -0.3670    0.1930    1.3770 n4        1 PCF     -0.579800
      2 P           3.2570    1.8120    2.0360 p5        1 PCF      1.440800
      3 O11         3.4620    0.9430    3.4190 os        1 PCF     -0.575200
      4 O12         4.5110    2.3980    1.5670 o         1 PCF     -0.822500
      5 O13         2.7860    0.5260    1.0810 os        1 PCF     -0.558200
      6 O14         1.9530    2.4930    2.2390 o         1 PCF     -0.822500
      7 C11         1.8310    0.7940    0.1180 c3        1 PCF      0.193400
      8 C12         0.6100   -0.1330    0.2790 c3        1 PCF      0.091800
      9 C13         0.2420   -0.0560    2.7170 c3        1 PCF      0.075100
     10 C14        -0.8290    1.6090    1.2910 c3        1 PCF      0.075100
     11 C15        -1.5490   -0.7070    1.2200 c3        1 PCF      0.075100
     12 C1          3.9730    1.6520    4.5080 c3        1 PCF      0.179400
     13 C2          3.1110    1.4530    5.7660 c3        1 PCF      0.127100
     14 C3          1.6250    1.3950    5.4310 c3        1 PCF      0.132400
     15 O31         0.9090    1.6330    6.6570 os        1 PCF     -0.433900
     16 O32        -0.9290    0.8580    5.6440 o         1 PCF     -0.592000
     17 C31        -0.4150    1.3200    6.6700 c         1 PCF      0.650100
     18 C32        -1.0600    1.5830    7.9960 c3        1 PCF     -0.130400
     19 C33        -2.4590    2.1350    7.8230 c3        1 PCF     -0.077400
     20 C34        -3.1500    2.2730    9.1630 c3        1 PCF     -0.079400
     21 C35        -4.5440    2.8410    9.0010 c3        1 PCF     -0.078400
     22 C36        -5.2390    2.9750   10.3390 c3        1 PCF     -0.079400
     23 C37        -6.6330    3.5440   10.1790 c3        1 PCF     -0.078400
     24 C38        -7.3280    3.6770   11.5170 c3        1 PCF     -0.079400
     25 C39        -8.7220    4.2450   11.3580 c3        1 PCF     -0.078400
     26 C40        -9.4180    4.3770   12.6960 c3        1 PCF     -0.079400
     27 C41       -10.8120    4.9440   12.5370 c3        1 PCF     -0.078400
     28 C42       -11.5070    5.0760   13.8750 c3        1 PCF     -0.079400
     29 C43       -12.9010    5.6430   13.7170 c3        1 PCF     -0.079400
     30 O21         3.4170    0.1780    6.3660 os        1 PCF     -0.435900
     31 O22         5.0900    1.1470    7.5000 o         1 PCF     -0.547000
     32 C21         4.4670    0.1170    7.2380 c         1 PCF      0.636100
     33 C22         4.6770   -1.2660    7.7760 c3        1 PCF     -0.126400
     34 C23         6.1530   -1.5690    7.9290 c3        1 PCF     -0.080400
     35 C24         6.3590   -2.9070    8.6050 c3        1 PCF     -0.077400
     36 C25         7.8330   -3.2230    8.7460 c3        1 PCF     -0.079400
     37 C26         8.0450   -4.5570    9.4290 c3        1 PCF     -0.078400
     38 C27         9.5180   -4.8720    9.5720 c3        1 PCF     -0.079400
     39 C28         9.7310   -6.2050   10.2560 c3        1 PCF     -0.078400
     40 C29        11.2040   -6.5200   10.4010 c3        1 PCF     -0.079400
     41 C30        11.4170   -7.8520   11.0870 c3        1 PCF     -0.078400
     42 C47        12.8900   -8.1660   11.2330 c3        1 PCF     -0.079400
     43 C48        13.1030   -9.4980   11.9210 c3        1 PCF     -0.078400
     44 C49        14.5770   -9.8110   12.0680 c3        1 PCF     -0.079400
     45 C50        14.7900  -11.1430   12.7550 c3        1 PCF     -0.079400
     46 C51        16.2630  -11.4570   12.9030 c3        1 PCF     -0.080400
     47 C52        16.4800  -12.7830   13.5870 c3        1 PCF     -0.092100
     48 C44       -13.5970    5.7740   15.0550 c3        1 PCF     -0.079400
     49 C45       -14.9910    6.3420   14.8980 c3        1 PCF     -0.080400
     50 C46       -15.6880    6.4740   16.2280 c3        1 PCF     -0.092100
     51 H111        2.2570    0.5300   -0.8960 h1        1 PCF      0.056700
     52 H112        1.5200    1.8760    0.1290 h1        1 PCF      0.056700
     53 H121        0.9920   -1.1740    0.4780 hx        1 PCF      0.080200
     54 H122        0.0330   -0.1160   -0.6870 hx        1 PCF      0.080200
     55 H131        1.1550    0.6080    2.8240 hx        1 PCF      0.102256
     56 H132        0.5480   -1.1300    2.7910 hx        1 PCF      0.102256
     57 H133       -0.4980    0.2030    3.5210 hx        1 PCF      0.102256
     58 H141        0.0000    2.3050    1.6270 hx        1 PCF      0.102256
     59 H142       -1.7100    1.7450    1.9710 hx        1 PCF      0.102256
     60 H143       -1.1200    1.8350    0.2340 hx        1 PCF      0.102256
     61 H151       -2.0710   -0.4780    0.2560 hx        1 PCF      0.102256
     62 H152       -2.2550   -0.5440    2.0770 hx        1 PCF      0.102256
     63 H153       -1.2070   -1.7750    1.2200 hx        1 PCF      0.102256
     64 H11         4.0200    2.7510    4.2710 h1        1 PCF      0.048700
     65 H12         5.0080    1.2710    4.7440 h1        1 PCF      0.048700
     66 H21         3.3280    2.2750    6.5030 h1        1 PCF      0.088700
     67 H31         1.3530    0.3860    5.0240 h1        1 PCF      0.081200
     68 H32         1.3450    2.2010    4.7020 h1        1 PCF      0.081200
     69 H321       -1.0900    0.6080    8.5520 hc        1 PCF      0.080700
     70 H322       -0.4260    2.2960    8.5880 hc        1 PCF      0.080700
     71 H331       -3.0500    1.4540    7.1550 hc        1 PCF      0.054700
     72 H332       -2.4100    3.1350    7.3180 hc        1 PCF      0.054700
     73 H341       -3.2090    1.2700    9.6630 hc        1 PCF      0.042200
     74 H342       -2.5460    2.9420    9.8320 hc        1 PCF      0.042200
     75 H351       -4.4850    3.8460    8.5050 hc        1 PCF      0.041200
     76 H352       -5.1460    2.1750    8.3290 hc        1 PCF      0.041200
     77 H361       -5.2980    1.9710   10.8350 hc        1 PCF      0.040700
     78 H362       -4.6360    3.6410   11.0110 hc        1 PCF      0.040700
     79 H371       -6.5740    4.5490    9.6840 hc        1 PCF      0.039700
     80 H372       -7.2360    2.8790    9.5060 hc        1 PCF      0.039700
     81 H381       -6.7260    4.3420   12.1900 hc        1 PCF      0.040200
     82 H382       -7.3860    2.6720   12.0120 hc        1 PCF      0.040200
     83 H391       -8.6640    5.2500   10.8630 hc        1 PCF      0.039200
     84 H392       -9.3250    3.5800   10.6840 hc        1 PCF      0.039200
     85 H401       -9.4750    3.3710   13.1900 hc        1 PCF      0.040200
     86 H402       -8.8150    5.0420   13.3690 hc        1 PCF      0.040200
     87 H411      -10.7540    5.9500   12.0430 hc        1 PCF      0.039200
     88 H412      -11.4140    4.2790   11.8640 hc        1 PCF      0.039200
     89 H421      -11.5640    4.0700   14.3690 hc        1 PCF      0.039700
     90 H422      -10.9050    5.7410   14.5480 hc        1 PCF      0.039700
     91 H431      -12.8440    6.6490   13.2220 hc        1 PCF      0.039200
     92 H432      -13.5040    4.9780   13.0430 hc        1 PCF      0.039200
     93 H221        4.1620   -1.3190    8.7720 hc        1 PCF      0.074700
     94 H222        4.1900   -2.0130    7.0950 hc        1 PCF      0.074700
     95 H231        6.6410   -0.7540    8.5280 hc        1 PCF      0.059700
     96 H232        6.6410   -1.5740    6.9190 hc        1 PCF      0.059700
     97 H241        5.8790   -2.8960    9.6180 hc        1 PCF      0.038700
     98 H242        5.8570   -3.7130    8.0080 hc        1 PCF      0.038700
     99 H251        8.3360   -2.4130    9.3380 hc        1 PCF      0.043700
    100 H252        8.3130   -3.2380    7.7320 hc        1 PCF      0.043700
    101 H261        7.5640   -4.5420   10.4420 hc        1 PCF      0.038700
    102 H262        7.5420   -5.3670    8.8360 hc        1 PCF      0.038700
    103 H271        9.9990   -4.8890    8.5580 hc        1 PCF      0.040700
    104 H272       10.0210   -4.0620   10.1620 hc        1 PCF      0.040700
    105 H281        9.2290   -7.0160    9.6650 hc        1 PCF      0.038700
    106 H282        9.2480   -6.1890   11.2690 hc        1 PCF      0.038700
    107 H291       11.6860   -6.5370    9.3880 hc        1 PCF      0.040200
    108 H292       11.7060   -5.7090   10.9910 hc        1 PCF      0.040200
    109 H301       10.9160   -8.6640   10.4960 hc        1 PCF      0.038700
    110 H302       10.9340   -7.8350   12.1000 hc        1 PCF      0.038700
    111 H471       13.3910   -7.3540   11.8240 hc        1 PCF      0.039700
    112 H472       13.3730   -8.1840   10.2210 hc        1 PCF      0.039700
    113 H481       12.6030  -10.3100   11.3300 hc        1 PCF      0.038700
    114 H482       12.6200   -9.4810   12.9330 hc        1 PCF      0.038700
    115 H491       15.0770   -8.9990   12.6580 hc        1 PCF      0.039700
    116 H492       15.0600   -9.8290   11.0550 hc        1 PCF      0.039700
    117 H501       14.2900  -11.9560   12.1640 hc        1 PCF      0.038700
    118 H502       14.3060  -11.1260   13.7670 hc        1 PCF      0.038700
    119 H511       16.7610  -10.6430   13.4930 hc        1 PCF      0.038700
    120 H512       16.7450  -11.4730   11.8900 hc        1 PCF      0.038700
    121 H521       16.0120  -13.6100   13.0010 hc        1 PCF      0.032700
    122 H522       16.0270  -12.7780   14.6080 hc        1 PCF      0.032700
    123 H523       17.5720  -12.9940   13.6860 hc        1 PCF      0.032700
    124 H441      -13.6540    4.7690   15.5490 hc        1 PCF      0.039700
    125 H442      -12.9940    6.4390   15.7280 hc        1 PCF      0.039700
    126 H451      -15.5920    5.6760   14.2230 hc        1 PCF      0.038200
    127 H452      -14.9320    7.3470   14.4020 hc        1 PCF      0.038200
    128 H461      -15.1170    7.1540   16.9060 hc        1 PCF      0.032700
    129 H462      -16.7130    6.8940   16.0890 hc        1 PCF      0.032700
    130 H463      -15.7780    5.4790   16.7260 hc        1 PCF      0.032700
@<TRIPOS>BOND
     1    1    8 1   
     2    1    9 1   
     3    1   10 1   
     4    1   11 1   
     5    2    3 1   
     6    2    4 1   
     7    2    5 1   
     8    2    6 1   
     9    3   12 1   
    10    5    7 1   
    11    7    8 1   
    12    7   51 1   
    13    7   52 1   
    14    8   53 1   
    15    8   54 1   
    16    9   55 1   
    17    9   56 1   
    18    9   57 1   
    19   10   58 1   
    20   10   59 1   
    21   10   60 1   
    22   11   61 1   
    23   11   62 1   
    24   11   63 1   
    25   12   13 1   
    26   12   64 1   
    27   12   65 1   
    28   13   14 1   
    29   13   30 1   
    30   13   66 1   
    31   14   15 1   
    32   14   67 1   
    33   14   68 1   
    34   15   17 1   
    35   16   17 2   
    36   17   18 1   
    37   18   19 1   
    38   18   69 1   
    39   18   70 1   
    40   19   20 1   
    41   19   71 1   
    42   19   72 1   
    43   20   21 1   
    44   20   73 1   
    45   20   74 1   
    46   21   22 1   
    47   21   75 1   
    48   21   76 1   
    49   22   23 1   
    50   22   77 1   
    51   22   78 1   
    52   23   24 1   
    53   23   79 1   
    54   23   80 1   
    55   24   25 1   
    56   24   81 1   
    57   24   82 1   
    58   25   26 1   
    59   25   83 1   
    60   25   84 1   
    61   26   27 1   
    62   26   85 1   
    63   26   86 1   
    64   27   28 1   
    65   27   87 1   
    66   27   88 1   
    67   28   29 1   
    68   28   89 1   
    69   28   90 1   
    70   29   48 1   
    71   29   91 1   
    72   29   92 1   
    73   30   32 1   
    74   31   32 2   
    75   32   33 1   
    76   33   34 1   
    77   33   93 1   
    78   33   94 1   
    79   34   35 1   
    80   34   95 1   
    81   34   96 1   
    82   35   36 1   
    83   35   97 1   
    84   35   98 1   
    85   36   37 1   
    86   36   99 1   
    87   36  100 1   
    88   37   38 1   
    89   37  101 1   
    90   37  102 1   
    91   38   39 1   
    92   38  103 1   
    93   38  104 1   
    94   39   40 1   
    95   39  105 1   
    96   39  106 1   
    97   40   41 1   
    98   40  107 1   
    99   40  108 1   
   100   41   42 1   
   101   41  109 1   
   102   41  110 1   
   103   42   43 1   
   104   42  111 1   
   105   42  112 1   
   106   43   44 1   
   107   43  113 1   
   108   43  114 1   
   109   44   45 1   
   110   44  115 1   
   111   44  116 1   
   112   45   46 1   
   113   45  117 1   
   114   45  118 1   
   115   46   47 1   
   116   46  119 1   
   117   46  120 1   
   118   47  121 1   
   119   47  122 1   
   120   47  123 1   
   121   48   49 1   
   122   48  124 1   
   123   48  125 1   
   124   49   50 1   
   125   49  126 1   
   126   49  127 1   
   127   50  128 1   
   128   50  129 1   
   129   50  130 1   
@<TRIPOS>SUBSTRUCTURE
     1 PCF         1 TEMP              0 ****  ****    0 ROOT
