@<TRIPOS>MOLECULE
PCF
  130   129     1     0     0
SMALL
bcc


@<TRIPOS>ATOM
      1 N           0.2040    3.7080    1.4450 n4        1 PCF     -0.575800
      2 P           2.4760    1.2620   -0.7560 p5        1 PCF      1.436800
      3 O11         3.0040    0.7380    0.7110 os        1 PCF     -0.578200
      4 O12         2.8050    0.2820   -1.7910 o         1 PCF     -0.809000
      5 O13         0.8630    1.0820   -0.3500 os        1 PCF     -0.583200
      6 O14         2.6330    2.7330   -0.7210 o         1 PCF     -0.809000
      7 C11         0.0080    2.1310   -0.6240 c3        1 PCF      0.193400
      8 C12        -0.6010    2.6970    0.6710 c3        1 PCF      0.080800
      9 C13         1.3910    3.0850    2.1030 c3        1 PCF      0.075433
     10 C14         0.6610    4.8180    0.5610 c3        1 PCF      0.075433
     11 C15        -0.6830    4.2550    2.5160 c3        1 PCF      0.075433
     12 C1          2.8420   -0.6170    1.0010 c3        1 PCF      0.192400
     13 C2          2.0460   -0.7510    2.3160 c3        1 PCF      0.097100
     14 C3          0.5740   -1.0530    2.0480 c3        1 PCF      0.109400
     15 O31        -0.1360   -1.2350    3.2790 os        1 PCF     -0.431900
     16 O32        -0.6300    0.9530    3.3710 o         1 PCF     -0.620000
     17 C31        -0.6220   -0.1470    3.9380 c         1 PCF      0.673100
     18 C32        -1.0870   -0.4850    5.3210 c3        1 PCF     -0.137400
     19 C33        -2.0690    0.5370    5.8480 c3        1 PCF     -0.074400
     20 C34        -2.4300    0.2410    7.2880 c3        1 PCF     -0.080400
     21 C35        -3.4250    1.2510    7.8190 c3        1 PCF     -0.077400
     22 C36        -3.7860    0.9590    9.2590 c3        1 PCF     -0.079400
     23 C37        -4.7810    1.9680    9.7910 c3        1 PCF     -0.078400
     24 C38        -5.1430    1.6750   11.2320 c3        1 PCF     -0.079400
     25 C39        -6.1380    2.6840   11.7640 c3        1 PCF     -0.078400
     26 C40        -6.4990    2.3920   13.2050 c3        1 PCF     -0.079400
     27 C41        -7.4940    3.4010   13.7370 c3        1 PCF     -0.078400
     28 C42        -7.8560    3.1080   15.1780 c3        1 PCF     -0.079400
     29 C43        -8.8510    4.1170   15.7100 c3        1 PCF     -0.079400
     30 O21         2.6450   -1.8570    3.0140 os        1 PCF     -0.430900
     31 O22         2.1700   -0.8770    4.9770 o         1 PCF     -0.573000
     32 C21         2.6800   -1.8290    4.3780 c         1 PCF      0.650100
     33 C22         3.3530   -3.0380    4.9530 c3        1 PCF     -0.128400
     34 C23         4.2370   -2.6620    6.1230 c3        1 PCF     -0.078400
     35 C24         4.8080   -3.8980    6.7830 c3        1 PCF     -0.079400
     36 C25         5.7090   -3.5290    7.9420 c3        1 PCF     -0.078400
     37 C26         6.2780   -4.7640    8.6080 c3        1 PCF     -0.079400
     38 C27         7.1800   -4.3960    9.7670 c3        1 PCF     -0.079400
     39 C28         7.7490   -5.6290   10.4330 c3        1 PCF     -0.079400
     40 C29         8.6520   -5.2610   11.5910 c3        1 PCF     -0.079400
     41 C30         9.2220   -6.4950   12.2580 c3        1 PCF     -0.079400
     42 C47        10.1250   -6.1270   13.4150 c3        1 PCF     -0.079400
     43 C48        10.6950   -7.3610   14.0820 c3        1 PCF     -0.079400
     44 C49        11.5990   -6.9930   15.2390 c3        1 PCF     -0.079400
     45 C50        12.1680   -8.2270   15.9050 c3        1 PCF     -0.079400
     46 C51        13.0730   -7.8600   17.0630 c3        1 PCF     -0.080400
     47 C52        13.6420   -9.0850   17.7300 c3        1 PCF     -0.092100
     48 C44        -9.2120    3.8250   17.1510 c3        1 PCF     -0.079400
     49 C45       -10.2070    4.8330   17.6850 c3        1 PCF     -0.080400
     50 C46       -10.5700    4.5460   19.1190 c3        1 PCF     -0.093100
     51 H111        0.5150    2.9310   -1.2300 h1        1 PCF      0.055200
     52 H112       -0.8740    1.7240   -1.2040 h1        1 PCF      0.055200
     53 H121       -1.5720    3.2020    0.4040 hx        1 PCF      0.093700
     54 H122       -0.8000    1.8320    1.3710 hx        1 PCF      0.093700
     55 H131        1.0570    2.2100    2.7220 hx        1 PCF      0.100922
     56 H132        1.8940    3.8520    2.7450 hx        1 PCF      0.100922
     57 H133        2.1100    2.7270    1.3040 hx        1 PCF      0.100922
     58 H141        1.0510    5.6540    1.1960 hx        1 PCF      0.100922
     59 H142       -0.2000    5.1770   -0.0560 hx        1 PCF      0.100922
     60 H143        1.4960    4.4460   -0.1110 hx        1 PCF      0.100922
     61 H151       -1.5600    4.7720    2.0510 hx        1 PCF      0.100922
     62 H152       -1.0340    3.4020    3.1610 hx        1 PCF      0.100922
     63 H153       -0.1060    4.9850    3.1410 hx        1 PCF      0.100922
     64 H11         2.3140   -1.1400    0.1570 h1        1 PCF      0.057700
     65 H12         3.8580   -1.0800    1.1540 h1        1 PCF      0.057700
     66 H21         2.1430    0.1890    2.9280 h1        1 PCF      0.084700
     67 H31         0.1240   -0.2260    1.4370 h1        1 PCF      0.091200
     68 H32         0.4510   -2.0450    1.5350 h1        1 PCF      0.091200
     69 H321       -0.1620   -0.5230    5.9640 hc        1 PCF      0.092700
     70 H322       -1.5420   -1.5100    5.3200 hc        1 PCF      0.092700
     71 H331       -1.6200    1.5630    5.7690 hc        1 PCF      0.048200
     72 H332       -2.9950    0.5320    5.2150 hc        1 PCF      0.048200
     73 H341       -1.5030    0.2570    7.9200 hc        1 PCF      0.044700
     74 H342       -2.8650   -0.7900    7.3630 hc        1 PCF      0.044700
     75 H351       -2.9900    2.2830    7.7420 hc        1 PCF      0.039200
     76 H352       -4.3520    1.2350    7.1880 hc        1 PCF      0.039200
     77 H361       -4.2200   -0.0730    9.3360 hc        1 PCF      0.041700
     78 H362       -2.8590    0.9760    9.8910 hc        1 PCF      0.041700
     79 H371       -5.7080    1.9510    9.1600 hc        1 PCF      0.039200
     80 H372       -4.3480    3.0000    9.7150 hc        1 PCF      0.039200
     81 H381       -4.2150    1.6920   11.8630 hc        1 PCF      0.040700
     82 H382       -5.5760    0.6430   11.3090 hc        1 PCF      0.040700
     83 H391       -5.7040    3.7160   11.6880 hc        1 PCF      0.039200
     84 H392       -7.0650    2.6670   11.1330 hc        1 PCF      0.039200
     85 H401       -5.5720    2.4090   13.8360 hc        1 PCF      0.039700
     86 H402       -6.9330    1.3600   13.2820 hc        1 PCF      0.039700
     87 H411       -7.0610    4.4330   13.6600 hc        1 PCF      0.039700
     88 H412       -8.4210    3.3840   13.1060 hc        1 PCF      0.039700
     89 H421       -8.2890    2.0760   15.2540 hc        1 PCF      0.039700
     90 H422       -6.9280    3.1250   15.8090 hc        1 PCF      0.039700
     91 H431       -9.7780    4.1000   15.0790 hc        1 PCF      0.039200
     92 H432       -8.4170    5.1490   15.6330 hc        1 PCF      0.039200
     93 H221        2.5440   -3.7440    5.2840 hc        1 PCF      0.079200
     94 H222        3.9520   -3.5520    4.1550 hc        1 PCF      0.079200
     95 H231        3.6420   -2.0680    6.8660 hc        1 PCF      0.056200
     96 H232        5.0720   -2.0040    5.7660 hc        1 PCF      0.056200
     97 H241        3.9710   -4.5510    7.1500 hc        1 PCF      0.041200
     98 H242        5.3880   -4.4950    6.0310 hc        1 PCF      0.041200
     99 H251        6.5470   -2.8800    7.5750 hc        1 PCF      0.041700
    100 H252        5.1300   -2.9290    8.6930 hc        1 PCF      0.041700
    101 H261        6.8560   -5.3640    7.8570 hc        1 PCF      0.040200
    102 H262        5.4400   -5.4130    8.9760 hc        1 PCF      0.040200
    103 H271        6.6030   -3.7950   10.5180 hc        1 PCF      0.040200
    104 H272        8.0180   -3.7470    9.3990 hc        1 PCF      0.040200
    105 H281        8.3270   -6.2300    9.6820 hc        1 PCF      0.040200
    106 H282        6.9120   -6.2780   10.8010 hc        1 PCF      0.040200
    107 H291        9.4900   -4.6120   11.2230 hc        1 PCF      0.039200
    108 H292        8.0750   -4.6600   12.3420 hc        1 PCF      0.039200
    109 H301        8.3840   -7.1440   12.6260 hc        1 PCF      0.039700
    110 H302        9.7990   -7.0960   11.5060 hc        1 PCF      0.039700
    111 H471        9.5480   -5.5260   14.1660 hc        1 PCF      0.039200
    112 H472       10.9630   -5.4780   13.0460 hc        1 PCF      0.039200
    113 H481        9.8570   -8.0100   14.4510 hc        1 PCF      0.039700
    114 H482       11.2710   -7.9620   13.3300 hc        1 PCF      0.039700
    115 H491       11.0220   -6.3910   15.9900 hc        1 PCF      0.039200
    116 H492       12.4360   -6.3440   14.8700 hc        1 PCF      0.039200
    117 H501       12.7450   -8.8280   15.1540 hc        1 PCF      0.039700
    118 H502       11.3300   -8.8750   16.2750 hc        1 PCF      0.039700
    119 H511       12.4950   -7.2570   17.8120 hc        1 PCF      0.038200
    120 H512       13.9090   -7.2100   16.6920 hc        1 PCF      0.038200
    121 H521       14.2420   -9.6860   17.0040 hc        1 PCF      0.032700
    122 H522       12.8240   -9.7340   18.1280 hc        1 PCF      0.032700
    123 H523       14.3050   -8.7930   18.5790 hc        1 PCF      0.032700
    124 H441       -8.2850    3.8410   17.7820 hc        1 PCF      0.039700
    125 H442       -9.6460    2.7930   17.2280 hc        1 PCF      0.039700
    126 H451       -9.7720    5.8650   17.6050 hc        1 PCF      0.038700
    127 H452      -11.1330    4.8160   17.0510 hc        1 PCF      0.038700
    128 H461      -11.3040    5.3000   19.4920 hc        1 PCF      0.032700
    129 H462       -9.6640    4.5830   19.7700 hc        1 PCF      0.032700
    130 H463      -11.0280    3.5320   19.2140 hc        1 PCF      0.032700
@<TRIPOS>BOND
     1    1    8 1   
     2    1    9 1   
     3    1   10 1   
     4    1   11 1   
     5    2    3 1   
     6    2    4 1   
     7    2    5 1   
     8    2    6 1   
     9    3   12 1   
    10    5    7 1   
    11    7    8 1   
    12    7   51 1   
    13    7   52 1   
    14    8   53 1   
    15    8   54 1   
    16    9   55 1   
    17    9   56 1   
    18    9   57 1   
    19   10   58 1   
    20   10   59 1   
    21   10   60 1   
    22   11   61 1   
    23   11   62 1   
    24   11   63 1   
    25   12   13 1   
    26   12   64 1   
    27   12   65 1   
    28   13   14 1   
    29   13   30 1   
    30   13   66 1   
    31   14   15 1   
    32   14   67 1   
    33   14   68 1   
    34   15   17 1   
    35   16   17 2   
    36   17   18 1   
    37   18   19 1   
    38   18   69 1   
    39   18   70 1   
    40   19   20 1   
    41   19   71 1   
    42   19   72 1   
    43   20   21 1   
    44   20   73 1   
    45   20   74 1   
    46   21   22 1   
    47   21   75 1   
    48   21   76 1   
    49   22   23 1   
    50   22   77 1   
    51   22   78 1   
    52   23   24 1   
    53   23   79 1   
    54   23   80 1   
    55   24   25 1   
    56   24   81 1   
    57   24   82 1   
    58   25   26 1   
    59   25   83 1   
    60   25   84 1   
    61   26   27 1   
    62   26   85 1   
    63   26   86 1   
    64   27   28 1   
    65   27   87 1   
    66   27   88 1   
    67   28   29 1   
    68   28   89 1   
    69   28   90 1   
    70   29   48 1   
    71   29   91 1   
    72   29   92 1   
    73   30   32 1   
    74   31   32 2   
    75   32   33 1   
    76   33   34 1   
    77   33   93 1   
    78   33   94 1   
    79   34   35 1   
    80   34   95 1   
    81   34   96 1   
    82   35   36 1   
    83   35   97 1   
    84   35   98 1   
    85   36   37 1   
    86   36   99 1   
    87   36  100 1   
    88   37   38 1   
    89   37  101 1   
    90   37  102 1   
    91   38   39 1   
    92   38  103 1   
    93   38  104 1   
    94   39   40 1   
    95   39  105 1   
    96   39  106 1   
    97   40   41 1   
    98   40  107 1   
    99   40  108 1   
   100   41   42 1   
   101   41  109 1   
   102   41  110 1   
   103   42   43 1   
   104   42  111 1   
   105   42  112 1   
   106   43   44 1   
   107   43  113 1   
   108   43  114 1   
   109   44   45 1   
   110   44  115 1   
   111   44  116 1   
   112   45   46 1   
   113   45  117 1   
   114   45  118 1   
   115   46   47 1   
   116   46  119 1   
   117   46  120 1   
   118   47  121 1   
   119   47  122 1   
   120   47  123 1   
   121   48   49 1   
   122   48  124 1   
   123   48  125 1   
   124   49   50 1   
   125   49  126 1   
   126   49  127 1   
   127   50  128 1   
   128   50  129 1   
   129   50  130 1   
@<TRIPOS>SUBSTRUCTURE
     1 PCF         1 TEMP              0 ****  ****    0 ROOT
