@<TRIPOS>MOLECULE
PCF
  130   129     1     0     0
SMALL
bcc


@<TRIPOS>ATOM
      1 N           8.0470   -5.1470  -10.2770 n4        1 PCF     -0.575800
      2 P          10.4290   -2.9890   -7.8970 p5        1 PCF      1.436800
      3 O11         9.2500   -3.2630   -6.7840 os        1 PCF     -0.578200
      4 O12        11.6630   -2.5700   -7.2340 o         1 PCF     -0.809000
      5 O13        10.5650   -4.6090   -8.2960 os        1 PCF     -0.583200
      6 O14         9.7260   -2.4460   -9.0810 o         1 PCF     -0.809000
      7 C11        10.5680   -4.9450   -9.6350 c3        1 PCF      0.193400
      8 C12         9.3570   -5.8300   -9.9830 c3        1 PCF      0.080800
      9 C13         7.4440   -4.5520   -9.0480 c3        1 PCF      0.075433
     10 C14         8.2190   -4.0790  -11.3030 c3        1 PCF      0.075433
     11 C15         7.1100   -6.1900  -10.7930 c3        1 PCF      0.075433
     12 C1          9.6230   -3.9060   -5.6040 c3        1 PCF      0.192400
     13 C2          8.7440   -5.1620   -5.4250 c3        1 PCF      0.097100
     14 C3          9.4810   -6.4250   -5.8640 c3        1 PCF      0.109400
     15 O31         8.6730   -7.5860   -5.6330 os        1 PCF     -0.431900
     16 O32         7.7770   -7.4280   -7.6850 o         1 PCF     -0.620000
     17 C31         7.7570   -7.9600   -6.5680 c         1 PCF      0.673100
     18 C32         6.8240   -9.0120   -6.0550 c3        1 PCF     -0.137400
     19 C33         6.1750   -9.7850   -7.1810 c3        1 PCF     -0.074400
     20 C34         5.1470  -10.7570   -6.6430 c3        1 PCF     -0.080400
     21 C35         4.5030  -11.5450   -7.7640 c3        1 PCF     -0.077400
     22 C36         3.4720  -12.5160   -7.2280 c3        1 PCF     -0.079400
     23 C37         2.8280  -13.3050   -8.3480 c3        1 PCF     -0.078400
     24 C38         1.7970  -14.2760   -7.8120 c3        1 PCF     -0.079400
     25 C39         1.1530  -15.0660   -8.9310 c3        1 PCF     -0.078400
     26 C40         0.1220  -16.0360   -8.3950 c3        1 PCF     -0.079400
     27 C41        -0.5220  -16.8260   -9.5140 c3        1 PCF     -0.078400
     28 C42        -1.5520  -17.7970   -8.9790 c3        1 PCF     -0.079400
     29 C43        -2.1970  -18.5870  -10.0970 c3        1 PCF     -0.079400
     30 O21         8.4640   -5.2340   -4.0150 os        1 PCF     -0.430900
     31 O22         6.4630   -6.1500   -4.4590 o         1 PCF     -0.573000
     32 C21         7.2620   -5.7390   -3.6120 c         1 PCF      0.650100
     33 C22         7.1140   -5.7270   -2.1210 c3        1 PCF     -0.128400
     34 C23         5.7120   -5.3230   -1.7180 c3        1 PCF     -0.078400
     35 C24         5.5280   -5.4440   -0.2200 c3        1 PCF     -0.079400
     36 C25         4.1340   -5.0230    0.1930 c3        1 PCF     -0.078400
     37 C26         3.9450   -5.1470    1.6900 c3        1 PCF     -0.079400
     38 C27         2.5510   -4.7260    2.1040 c3        1 PCF     -0.079400
     39 C28         2.3620   -4.8510    3.6000 c3        1 PCF     -0.079400
     40 C29         0.9680   -4.4300    4.0140 c3        1 PCF     -0.079400
     41 C30         0.7790   -4.5540    5.5110 c3        1 PCF     -0.079400
     42 C47        -0.6150   -4.1330    5.9250 c3        1 PCF     -0.079400
     43 C48        -0.8050   -4.2570    7.4220 c3        1 PCF     -0.079400
     44 C49        -2.1980   -3.8370    7.8360 c3        1 PCF     -0.079400
     45 C50        -2.3880   -3.9610    9.3320 c3        1 PCF     -0.079400
     46 C51        -3.7820   -3.5400    9.7480 c3        1 PCF     -0.080400
     47 C52        -3.9750   -3.6620   11.2380 c3        1 PCF     -0.092100
     48 C44        -3.2270  -19.5580   -9.5620 c3        1 PCF     -0.079400
     49 C45        -3.8730  -20.3490  -10.6800 c3        1 PCF     -0.080400
     50 C46        -4.8990  -21.3170  -10.1510 c3        1 PCF     -0.093100
     51 H111       11.4700   -5.5990   -9.8320 h1        1 PCF      0.055200
     52 H112       10.6190   -4.0330  -10.2910 h1        1 PCF      0.055200
     53 H121        9.1750   -6.5290   -9.1140 hx        1 PCF      0.093700
     54 H122        9.6190   -6.4250  -10.9020 hx        1 PCF      0.093700
     55 H131        7.3690   -5.3400   -8.2510 hx        1 PCF      0.100922
     56 H132        8.1070   -3.7090   -8.6820 hx        1 PCF      0.100922
     57 H133        6.4300   -4.1500   -9.2990 hx        1 PCF      0.100922
     58 H141        8.7490   -3.1910  -10.8390 hx        1 PCF      0.100922
     59 H142        8.8190   -4.4820  -12.1590 hx        1 PCF      0.100922
     60 H143        7.2100   -3.7530  -11.6640 hx        1 PCF      0.100922
     61 H151        7.5130   -6.6220  -11.7440 hx        1 PCF      0.100922
     62 H152        7.0080   -6.9970  -10.0150 hx        1 PCF      0.100922
     63 H153        6.1080   -5.7270  -10.9880 hx        1 PCF      0.100922
     64 H11        10.7130   -4.1800   -5.6330 h1        1 PCF      0.057700
     65 H12         9.4320   -3.2140   -4.7350 h1        1 PCF      0.057700
     66 H21         7.7850   -5.0520   -6.0030 h1        1 PCF      0.084700
     67 H31        10.3830   -6.6110   -5.2210 h1        1 PCF      0.091200
     68 H32         9.7680   -6.3370   -6.9450 h1        1 PCF      0.091200
     69 H321        7.3810   -9.7030   -5.3690 hc        1 PCF      0.092700
     70 H322        6.0490   -8.4720   -5.4390 hc        1 PCF      0.092700
     71 H331        5.6880   -9.0680   -7.8950 hc        1 PCF      0.048200
     72 H332        6.9600  -10.3420   -7.7580 hc        1 PCF      0.048200
     73 H341        5.6360  -11.4610   -5.9210 hc        1 PCF      0.044700
     74 H342        4.3580  -10.1950   -6.0760 hc        1 PCF      0.044700
     75 H351        5.2910  -12.1070   -8.3300 hc        1 PCF      0.039200
     76 H352        4.0150  -10.8400   -8.4870 hc        1 PCF      0.039200
     77 H361        3.9600  -13.2200   -6.5040 hc        1 PCF      0.041700
     78 H362        2.6830  -11.9530   -6.6620 hc        1 PCF      0.041700
     79 H371        3.6160  -13.8680   -8.9130 hc        1 PCF      0.039200
     80 H372        2.3400  -12.6010   -9.0720 hc        1 PCF      0.039200
     81 H381        2.2850  -14.9800   -7.0870 hc        1 PCF      0.040700
     82 H382        1.0080  -13.7130   -7.2460 hc        1 PCF      0.040700
     83 H391        1.9410  -15.6290   -9.4970 hc        1 PCF      0.039200
     84 H392        0.6650  -14.3620   -9.6560 hc        1 PCF      0.039200
     85 H401       -0.6660  -15.4740   -7.8300 hc        1 PCF      0.039700
     86 H402        0.6100  -16.7400   -7.6700 hc        1 PCF      0.039700
     87 H411       -1.0100  -16.1230  -10.2390 hc        1 PCF      0.039700
     88 H412        0.2670  -17.3890  -10.0800 hc        1 PCF      0.039700
     89 H421       -1.0650  -18.5010   -8.2540 hc        1 PCF      0.039700
     90 H422       -2.3410  -17.2340   -8.4130 hc        1 PCF      0.039700
     91 H431       -2.6840  -17.8840  -10.8230 hc        1 PCF      0.039200
     92 H432       -1.4080  -19.1500  -10.6630 hc        1 PCF      0.039200
     93 H221        7.3440   -6.7640   -1.7550 hc        1 PCF      0.079200
     94 H222        7.8700   -5.0290   -1.6710 hc        1 PCF      0.079200
     95 H231        5.5190   -4.2660   -2.0390 hc        1 PCF      0.056200
     96 H232        4.9680   -5.9730   -2.2500 hc        1 PCF      0.056200
     97 H241        5.7120   -6.5040    0.0990 hc        1 PCF      0.041200
     98 H242        6.2860   -4.8040    0.3060 hc        1 PCF      0.041200
     99 H251        3.3770   -5.6600   -0.3360 hc        1 PCF      0.041700
    100 H252        3.9520   -3.9620   -0.1220 hc        1 PCF      0.041700
    101 H261        4.1270   -6.2090    2.0060 hc        1 PCF      0.040200
    102 H262        4.7030   -4.5110    2.2190 hc        1 PCF      0.040200
    103 H271        1.7940   -5.3620    1.5750 hc        1 PCF      0.040200
    104 H272        2.3700   -3.6650    1.7880 hc        1 PCF      0.040200
    105 H281        2.5440   -5.9120    3.9160 hc        1 PCF      0.040200
    106 H282        3.1200   -4.2140    4.1290 hc        1 PCF      0.040200
    107 H291        0.2100   -5.0660    3.4850 hc        1 PCF      0.039200
    108 H292        0.7860   -3.3690    3.6990 hc        1 PCF      0.039200
    109 H301        1.5360   -3.9180    6.0400 hc        1 PCF      0.039700
    110 H302        0.9610   -5.6150    5.8260 hc        1 PCF      0.039700
    111 H471       -0.7970   -3.0720    5.6100 hc        1 PCF      0.039200
    112 H472       -1.3730   -4.7690    5.3960 hc        1 PCF      0.039200
    113 H481       -0.6230   -5.3190    7.7370 hc        1 PCF      0.039700
    114 H482       -0.0470   -3.6210    7.9510 hc        1 PCF      0.039700
    115 H491       -2.3800   -2.7760    7.5210 hc        1 PCF      0.039200
    116 H492       -2.9560   -4.4730    7.3070 hc        1 PCF      0.039200
    117 H501       -2.2060   -5.0220    9.6480 hc        1 PCF      0.039700
    118 H502       -1.6310   -3.3250    9.8620 hc        1 PCF      0.039700
    119 H511       -4.5380   -4.1770    9.2170 hc        1 PCF      0.038200
    120 H512       -3.9620   -2.4790    9.4300 hc        1 PCF      0.038200
    121 H521       -3.8240   -4.7180   11.5700 hc        1 PCF      0.032700
    122 H522       -5.0080   -3.3480   11.5220 hc        1 PCF      0.032700
    123 H523       -3.2460   -3.0160   11.7840 hc        1 PCF      0.032700
    124 H441       -2.7400  -20.2620   -8.8370 hc        1 PCF      0.039700
    125 H442       -4.0160  -18.9950   -8.9960 hc        1 PCF      0.039700
    126 H451       -3.0820  -20.9100  -11.2450 hc        1 PCF      0.038700
    127 H452       -4.3580  -19.6430  -11.4050 hc        1 PCF      0.038700
    128 H461       -4.4300  -22.0440   -9.4460 hc        1 PCF      0.032700
    129 H462       -5.3620  -21.8890  -10.9910 hc        1 PCF      0.032700
    130 H463       -5.7090  -20.7740   -9.6060 hc        1 PCF      0.032700
@<TRIPOS>BOND
     1    1    8 1   
     2    1    9 1   
     3    1   10 1   
     4    1   11 1   
     5    2    3 1   
     6    2    4 1   
     7    2    5 1   
     8    2    6 1   
     9    3   12 1   
    10    5    7 1   
    11    7    8 1   
    12    7   51 1   
    13    7   52 1   
    14    8   53 1   
    15    8   54 1   
    16    9   55 1   
    17    9   56 1   
    18    9   57 1   
    19   10   58 1   
    20   10   59 1   
    21   10   60 1   
    22   11   61 1   
    23   11   62 1   
    24   11   63 1   
    25   12   13 1   
    26   12   64 1   
    27   12   65 1   
    28   13   14 1   
    29   13   30 1   
    30   13   66 1   
    31   14   15 1   
    32   14   67 1   
    33   14   68 1   
    34   15   17 1   
    35   16   17 2   
    36   17   18 1   
    37   18   19 1   
    38   18   69 1   
    39   18   70 1   
    40   19   20 1   
    41   19   71 1   
    42   19   72 1   
    43   20   21 1   
    44   20   73 1   
    45   20   74 1   
    46   21   22 1   
    47   21   75 1   
    48   21   76 1   
    49   22   23 1   
    50   22   77 1   
    51   22   78 1   
    52   23   24 1   
    53   23   79 1   
    54   23   80 1   
    55   24   25 1   
    56   24   81 1   
    57   24   82 1   
    58   25   26 1   
    59   25   83 1   
    60   25   84 1   
    61   26   27 1   
    62   26   85 1   
    63   26   86 1   
    64   27   28 1   
    65   27   87 1   
    66   27   88 1   
    67   28   29 1   
    68   28   89 1   
    69   28   90 1   
    70   29   48 1   
    71   29   91 1   
    72   29   92 1   
    73   30   32 1   
    74   31   32 2   
    75   32   33 1   
    76   33   34 1   
    77   33   93 1   
    78   33   94 1   
    79   34   35 1   
    80   34   95 1   
    81   34   96 1   
    82   35   36 1   
    83   35   97 1   
    84   35   98 1   
    85   36   37 1   
    86   36   99 1   
    87   36  100 1   
    88   37   38 1   
    89   37  101 1   
    90   37  102 1   
    91   38   39 1   
    92   38  103 1   
    93   38  104 1   
    94   39   40 1   
    95   39  105 1   
    96   39  106 1   
    97   40   41 1   
    98   40  107 1   
    99   40  108 1   
   100   41   42 1   
   101   41  109 1   
   102   41  110 1   
   103   42   43 1   
   104   42  111 1   
   105   42  112 1   
   106   43   44 1   
   107   43  113 1   
   108   43  114 1   
   109   44   45 1   
   110   44  115 1   
   111   44  116 1   
   112   45   46 1   
   113   45  117 1   
   114   45  118 1   
   115   46   47 1   
   116   46  119 1   
   117   46  120 1   
   118   47  121 1   
   119   47  122 1   
   120   47  123 1   
   121   48   49 1   
   122   48  124 1   
   123   48  125 1   
   124   49   50 1   
   125   49  126 1   
   126   49  127 1   
   127   50  128 1   
   128   50  129 1   
   129   50  130 1   
@<TRIPOS>SUBSTRUCTURE
     1 PCF         1 TEMP              0 ****  ****    0 ROOT
