@<TRIPOS>MOLECULE
PCF
  130   129     1     0     0
SMALL
bcc


@<TRIPOS>ATOM
      1 N           0.6930    3.2850    2.5270 n4        1 PCF     -0.575800
      2 P           3.2730    0.5360    1.1920 p5        1 PCF      1.436800
      3 O11         3.4490    0.1930    2.7900 os        1 PCF     -0.578200
      4 O12         3.7720   -0.5720    0.3790 o         1 PCF     -0.809000
      5 O13         1.6030    0.4390    1.2530 os        1 PCF     -0.583200
      6 O14         3.4850    1.9970    1.0830 o         1 PCF     -0.809000
      7 C11         0.8760    1.4590    0.6730 c3        1 PCF      0.193400
      8 C12         0.0280    2.1980    1.7240 c3        1 PCF      0.080800
      9 C13         1.6800    2.7300    3.5010 c3        1 PCF      0.075433
     10 C14         1.3800    4.2630    1.6380 c3        1 PCF      0.075433
     11 C15        -0.3790    3.9800    3.3030 c3        1 PCF      0.075433
     12 C1          3.1600   -1.1090    3.1980 c3        1 PCF      0.192400
     13 C2          2.0950   -1.0540    4.3140 c3        1 PCF      0.096100
     14 C3          0.7030   -1.3670    3.7690 c3        1 PCF      0.110400
     15 O31        -0.2630   -1.3750    4.8280 os        1 PCF     -0.431900
     16 O32        -0.6630    0.8160    4.5410 o         1 PCF     -0.620000
     17 C31        -0.8290   -0.2020    5.2260 c         1 PCF      0.673100
     18 C32        -1.5970   -0.3490    6.5020 c3        1 PCF     -0.137400
     19 C33        -2.6370    0.7380    6.6590 c3        1 PCF     -0.074400
     20 C34        -3.3200    0.6380    8.0060 c3        1 PCF     -0.080400
     21 C35        -4.3760    1.7110    8.1620 c3        1 PCF     -0.077400
     22 C36        -5.0620    1.6130    9.5080 c3        1 PCF     -0.079400
     23 C37        -6.1220    2.6820    9.6630 c3        1 PCF     -0.078400
     24 C38        -6.8100    2.5830   11.0080 c3        1 PCF     -0.079400
     25 C39        -7.8720    3.6500   11.1610 c3        1 PCF     -0.078400
     26 C40        -8.5610    3.5500   12.5050 c3        1 PCF     -0.079400
     27 C41        -9.6260    4.6160   12.6570 c3        1 PCF     -0.078400
     28 C42       -10.3150    4.5150   14.0010 c3        1 PCF     -0.079400
     29 C43       -11.3810    5.5800   14.1530 c3        1 PCF     -0.079400
     30 O21         2.4790   -2.0680    5.2600 os        1 PCF     -0.429900
     31 O22         1.6460   -0.8240    6.9330 o         1 PCF     -0.573000
     32 C21         2.2390   -1.8490    6.5850 c         1 PCF      0.649100
     33 C22         2.7490   -2.9570    7.4560 c3        1 PCF     -0.127400
     34 C23         4.2530   -2.8610    7.6230 c3        1 PCF     -0.078400
     35 C24         4.7700   -3.9940    8.4840 c3        1 PCF     -0.078400
     36 C25         6.2720   -3.9060    8.6520 c3        1 PCF     -0.079400
     37 C26         6.7940   -5.0400    9.5080 c3        1 PCF     -0.078400
     38 C27         8.2970   -4.9580    9.6700 c3        1 PCF     -0.079400
     39 C28         8.8200   -6.0940   10.5230 c3        1 PCF     -0.078400
     40 C29        10.3240   -6.0160   10.6780 c3        1 PCF     -0.079400
     41 C30        10.8480   -7.1530   11.5290 c3        1 PCF     -0.078400
     42 C47        12.3520   -7.0790   11.6800 c3        1 PCF     -0.079400
     43 C48        12.8760   -8.2170   12.5290 c3        1 PCF     -0.078400
     44 C49        14.3810   -8.1450   12.6760 c3        1 PCF     -0.079400
     45 C50        14.9050   -9.2840   13.5240 c3        1 PCF     -0.079400
     46 C51        16.4110   -9.2140   13.6700 c3        1 PCF     -0.080400
     47 C52        16.9380  -10.3460   14.5130 c3        1 PCF     -0.092100
     48 C44       -12.0710    5.4790   15.4960 c3        1 PCF     -0.079400
     49 C45       -13.1370    6.5420   15.6490 c3        1 PCF     -0.080400
     50 C46       -13.8270    6.4460   16.9850 c3        1 PCF     -0.093100
     51 H111        0.1230    0.9970   -0.0330 h1        1 PCF      0.055200
     52 H112        1.5380    2.1660    0.1010 h1        1 PCF      0.055200
     53 H121       -0.3570    1.4330    2.4620 hx        1 PCF      0.093700
     54 H122       -0.8380    2.6810    1.1900 hx        1 PCF      0.093700
     55 H131        2.0690    3.5640    4.1380 hx        1 PCF      0.100922
     56 H132        2.5360    2.2570    2.9290 hx        1 PCF      0.100922
     57 H133        1.1790    1.9500    4.1350 hx        1 PCF      0.100922
     58 H141        0.6900    4.5560    0.8070 hx        1 PCF      0.100922
     59 H142        2.3220    3.7940    1.2160 hx        1 PCF      0.100922
     60 H143        1.6610    5.1680    2.2370 hx        1 PCF      0.100922
     61 H151       -1.1110    4.4500    2.5960 hx        1 PCF      0.100922
     62 H152        0.0820    4.7740    3.9460 hx        1 PCF      0.100922
     63 H153       -0.9010    3.2240    3.9520 hx        1 PCF      0.100922
     64 H11         2.7990   -1.7240    2.3280 h1        1 PCF      0.057200
     65 H12         4.0940   -1.5730    3.6250 h1        1 PCF      0.057200
     66 H21         2.0990   -0.0430    4.8070 h1        1 PCF      0.084700
     67 H31         0.4320   -0.6210    2.9760 h1        1 PCF      0.091200
     68 H32         0.6500   -2.4160    3.3710 h1        1 PCF      0.091200
     69 H321       -2.0760   -1.3630    6.5340 hc        1 PCF      0.092700
     70 H322       -0.8390   -0.3040    7.3340 hc        1 PCF      0.092700
     71 H331       -2.1470    1.7420    6.5510 hc        1 PCF      0.048200
     72 H332       -3.3980    0.6520    5.8390 hc        1 PCF      0.048200
     73 H341       -2.5580    0.7380    8.8230 hc        1 PCF      0.044700
     74 H342       -3.7920   -0.3740    8.1150 hc        1 PCF      0.044700
     75 H351       -5.1380    1.6110    7.3440 hc        1 PCF      0.039200
     76 H352       -3.9040    2.7230    8.0530 hc        1 PCF      0.039200
     77 H361       -5.5310    0.6000    9.6180 hc        1 PCF      0.041700
     78 H362       -4.3010    1.7160   10.3260 hc        1 PCF      0.041700
     79 H371       -6.8820    2.5800    8.8440 hc        1 PCF      0.039200
     80 H372       -5.6530    3.6960    9.5540 hc        1 PCF      0.039200
     81 H381       -7.2770    1.5690   11.1170 hc        1 PCF      0.040700
     82 H382       -6.0510    2.6880   11.8270 hc        1 PCF      0.040700
     83 H391       -8.6310    3.5460   10.3410 hc        1 PCF      0.039200
     84 H392       -7.4060    4.6650   11.0520 hc        1 PCF      0.039200
     85 H401       -9.0260    2.5350   12.6150 hc        1 PCF      0.039700
     86 H402       -7.8030    3.6570   13.3250 hc        1 PCF      0.039700
     87 H411      -10.3840    4.5100   11.8370 hc        1 PCF      0.039700
     88 H412       -9.1600    5.6310   12.5480 hc        1 PCF      0.039700
     89 H421      -10.7800    3.5000   14.1110 hc        1 PCF      0.039700
     90 H422       -9.5570    4.6220   14.8220 hc        1 PCF      0.039700
     91 H431      -12.1380    5.4730   13.3320 hc        1 PCF      0.039200
     92 H432      -10.9160    6.5950   14.0440 hc        1 PCF      0.039200
     93 H221        2.2390   -2.8810    8.4520 hc        1 PCF      0.075700
     94 H222        2.4770   -3.9410    6.9900 hc        1 PCF      0.075700
     95 H231        4.7410   -2.8960    6.6120 hc        1 PCF      0.056700
     96 H232        4.5190   -1.8770    8.0910 hc        1 PCF      0.056700
     97 H241        4.5000   -4.9770    8.0150 hc        1 PCF      0.041200
     98 H242        4.2750   -3.9590    9.4910 hc        1 PCF      0.041200
     99 H251        6.7650   -3.9370    7.6450 hc        1 PCF      0.043700
    100 H252        6.5420   -2.9240    9.1230 hc        1 PCF      0.043700
    101 H261        6.5190   -6.0220    9.0400 hc        1 PCF      0.039700
    102 H262        6.3040   -5.0070   10.5170 hc        1 PCF      0.039700
    103 H271        8.7860   -4.9900    8.6600 hc        1 PCF      0.040700
    104 H272        8.5720   -3.9770   10.1390 hc        1 PCF      0.040700
    105 H281        8.5410   -7.0750   10.0550 hc        1 PCF      0.039200
    106 H282        8.3350   -6.0590   11.5340 hc        1 PCF      0.039200
    107 H291       10.6030   -5.0350   11.1470 hc        1 PCF      0.040200
    108 H292       10.8090   -6.0480    9.6670 hc        1 PCF      0.040200
    109 H301       10.3660   -7.1180   12.5420 hc        1 PCF      0.039200
    110 H302       10.5650   -8.1330   11.0620 hc        1 PCF      0.039200
    111 H471       12.8330   -7.1120   10.6670 hc        1 PCF      0.039700
    112 H472       12.6350   -6.0990   12.1480 hc        1 PCF      0.039700
    113 H481       12.5910   -9.1960   12.0620 hc        1 PCF      0.039200
    114 H482       12.3970   -8.1820   13.5420 hc        1 PCF      0.039200
    115 H491       14.8600   -8.1780   11.6620 hc        1 PCF      0.039700
    116 H492       14.6660   -7.1650   13.1440 hc        1 PCF      0.039700
    117 H501       14.4280   -9.2490   14.5380 hc        1 PCF      0.039200
    118 H502       14.6190  -10.2630   13.0570 hc        1 PCF      0.039200
    119 H511       16.6950   -8.2330   14.1360 hc        1 PCF      0.038700
    120 H512       16.8870   -9.2460   12.6550 hc        1 PCF      0.038700
    121 H521       16.6850  -11.3320   14.0510 hc        1 PCF      0.032367
    122 H522       18.0480  -10.2760   14.6080 hc        1 PCF      0.032367
    123 H523       16.4930  -10.3160   15.5370 hc        1 PCF      0.032367
    124 H441      -12.5350    4.4630   15.6060 hc        1 PCF      0.039700
    125 H442      -11.3140    5.5860   16.3170 hc        1 PCF      0.039700
    126 H451      -13.8930    6.4340   14.8270 hc        1 PCF      0.038700
    127 H452      -12.6710    7.5570   15.5380 hc        1 PCF      0.038700
    128 H461      -13.0940    6.5750   17.8180 hc        1 PCF      0.032700
    129 H462      -14.3190    5.4500   17.1050 hc        1 PCF      0.032700
    130 H463      -14.6090    7.2380   17.0770 hc        1 PCF      0.032700
@<TRIPOS>BOND
     1    1    8 1   
     2    1    9 1   
     3    1   10 1   
     4    1   11 1   
     5    2    3 1   
     6    2    4 1   
     7    2    5 1   
     8    2    6 1   
     9    3   12 1   
    10    5    7 1   
    11    7    8 1   
    12    7   51 1   
    13    7   52 1   
    14    8   53 1   
    15    8   54 1   
    16    9   55 1   
    17    9   56 1   
    18    9   57 1   
    19   10   58 1   
    20   10   59 1   
    21   10   60 1   
    22   11   61 1   
    23   11   62 1   
    24   11   63 1   
    25   12   13 1   
    26   12   64 1   
    27   12   65 1   
    28   13   14 1   
    29   13   30 1   
    30   13   66 1   
    31   14   15 1   
    32   14   67 1   
    33   14   68 1   
    34   15   17 1   
    35   16   17 2   
    36   17   18 1   
    37   18   19 1   
    38   18   69 1   
    39   18   70 1   
    40   19   20 1   
    41   19   71 1   
    42   19   72 1   
    43   20   21 1   
    44   20   73 1   
    45   20   74 1   
    46   21   22 1   
    47   21   75 1   
    48   21   76 1   
    49   22   23 1   
    50   22   77 1   
    51   22   78 1   
    52   23   24 1   
    53   23   79 1   
    54   23   80 1   
    55   24   25 1   
    56   24   81 1   
    57   24   82 1   
    58   25   26 1   
    59   25   83 1   
    60   25   84 1   
    61   26   27 1   
    62   26   85 1   
    63   26   86 1   
    64   27   28 1   
    65   27   87 1   
    66   27   88 1   
    67   28   29 1   
    68   28   89 1   
    69   28   90 1   
    70   29   48 1   
    71   29   91 1   
    72   29   92 1   
    73   30   32 1   
    74   31   32 2   
    75   32   33 1   
    76   33   34 1   
    77   33   93 1   
    78   33   94 1   
    79   34   35 1   
    80   34   95 1   
    81   34   96 1   
    82   35   36 1   
    83   35   97 1   
    84   35   98 1   
    85   36   37 1   
    86   36   99 1   
    87   36  100 1   
    88   37   38 1   
    89   37  101 1   
    90   37  102 1   
    91   38   39 1   
    92   38  103 1   
    93   38  104 1   
    94   39   40 1   
    95   39  105 1   
    96   39  106 1   
    97   40   41 1   
    98   40  107 1   
    99   40  108 1   
   100   41   42 1   
   101   41  109 1   
   102   41  110 1   
   103   42   43 1   
   104   42  111 1   
   105   42  112 1   
   106   43   44 1   
   107   43  113 1   
   108   43  114 1   
   109   44   45 1   
   110   44  115 1   
   111   44  116 1   
   112   45   46 1   
   113   45  117 1   
   114   45  118 1   
   115   46   47 1   
   116   46  119 1   
   117   46  120 1   
   118   47  121 1   
   119   47  122 1   
   120   47  123 1   
   121   48   49 1   
   122   48  124 1   
   123   48  125 1   
   124   49   50 1   
   125   49  126 1   
   126   49  127 1   
   127   50  128 1   
   128   50  129 1   
   129   50  130 1   
@<TRIPOS>SUBSTRUCTURE
     1 PCF         1 TEMP              0 ****  ****    0 ROOT
