@<TRIPOS>MOLECULE
PCG
   36    39     1     0     0
SMALL
bcc


@<TRIPOS>ATOM
      1 PA         -0.4180    0.0400    0.2050 p5        1 PCG      1.612500
      2 O1A        -0.7590   -0.2810   -1.3000 oh        1 PCG     -0.727400
      3 O2A        -1.2060    1.0560    0.8740 o         1 PCG     -0.795300
      4 O5'         1.1750    0.2760    0.2240 os        1 PCG     -0.544200
      5 C5'         1.8210    0.2440    1.4820 c3        1 PCG      0.176400
      6 C4'         1.5590   -1.1480    2.0520 c3        1 PCG      0.040100
      7 O4'         2.0990   -1.4030    3.3510 os        1 PCG     -0.391600
      8 C3'         0.0290   -1.3140    2.2190 c3        1 PCG      0.071100
      9 O3'        -0.5450   -1.4210    0.9470 os        1 PCG     -0.519200
     10 C2'        -0.0720   -2.5420    3.1260 c3        1 PCG      0.136100
     11 O2'        -0.0540   -3.7830    2.4670 oh        1 PCG     -0.591800
     12 C1'         1.2760   -2.4340    3.9550 c3        1 PCG      0.220800
     13 N9          1.0810   -2.0850    5.3460 na        1 PCG     -0.171900
     14 C8          1.4710   -0.9150    6.0200 cc        1 PCG      0.484400
     15 N7          1.1730   -0.9380    7.3460 nd        1 PCG     -0.576000
     16 C5          0.5710   -2.1660    7.5580 cd        1 PCG      0.293800
     17 C6          0.0440   -2.7530    8.7820 c         1 PCG      0.647000
     18 O6          0.0050   -2.2860    9.9180 o         1 PCG     -0.502500
     19 N1         -0.5030   -4.0700    8.6010 n         1 PCG     -0.503400
     20 C2         -0.5010   -4.6800    7.3450 cd        1 PCG      0.497800
     21 N2         -1.0880   -6.0570    7.2470 n4        1 PCG     -0.795600
     22 N3         -0.0340   -4.1820    6.1990 nc        1 PCG     -0.515100
     23 C4          0.5030   -2.9120    6.3200 cc        1 PCG      0.002800
     24 HO1A       -1.4170    0.2760   -1.7210 ho        1 PCG      0.504000
     25 H5'1        1.3940    1.0520    2.1350 h1        1 PCG      0.090200
     26 H5'2        2.9110    0.4240    1.2900 h1        1 PCG      0.090200
     27 H4'         1.9830   -1.9320    1.3580 h1        1 PCG      0.100700
     28 H3'        -0.4270   -0.4260    2.7530 h1        1 PCG      0.098700
     29 H2'        -0.9810   -2.5120    3.7830 h1        1 PCG      0.087700
     30 HO2'       -0.2200   -3.6260    1.5240 ho        1 PCG      0.450000
     31 H1'         1.8490   -3.4070    3.8960 h2        1 PCG      0.121700
     32 H8          1.9780   -0.0890    5.4950 h5        1 PCG      0.109100
     33 HN1        -0.8770   -4.5240    9.4080 hn        1 PCG      0.350500
     34 HN21       -0.5580   -6.6980    7.8490 hn        1 PCG      0.482800
     35 HN22       -1.0330   -6.3880    6.2700 hn        1 PCG      0.482800
     36 H23        -2.0720   -6.0330    7.5380 hn        1 PCG      0.482800
@<TRIPOS>BOND
     1    1    2 1   
     2    1    3 2   
     3    1    4 1   
     4    1    9 1   
     5    2   24 1   
     6    4    5 1   
     7    5    6 1   
     8    5   25 1   
     9    5   26 1   
    10    6    7 1   
    11    6    8 1   
    12    6   27 1   
    13    7   12 1   
    14    8    9 1   
    15    8   10 1   
    16    8   28 1   
    17   10   11 1   
    18   10   12 1   
    19   10   29 1   
    20   11   30 1   
    21   12   13 1   
    22   12   31 1   
    23   13   14 1   
    24   13   23 1   
    25   14   15 2   
    26   14   32 1   
    27   15   16 1   
    28   16   17 1   
    29   16   23 2   
    30   17   18 2   
    31   17   19 1   
    32   19   20 1   
    33   19   33 1   
    34   20   21 1   
    35   20   22 2   
    36   21   34 1   
    37   21   35 1   
    38   21   36 1   
    39   22   23 1   
@<TRIPOS>SUBSTRUCTURE
     1 PCG         1 TEMP              0 ****  ****    0 ROOT
