@<TRIPOS>MOLECULE
PCG
   35    38     1     0     0
SMALL
bcc


@<TRIPOS>ATOM
      1 PA         -0.5140    0.0680    4.4000 p5        1 PCG      1.607500
      2 O1A         0.2630    0.0570    5.7790 oh        1 PCG     -0.730400
      3 O2A        -1.7660    0.8010    4.4130 o         1 PCG     -0.802300
      4 O5'        -0.6130   -1.4860    3.9980 os        1 PCG     -0.551200
      5 C5'        -0.8840   -1.7930    2.6430 c3        1 PCG      0.171400
      6 C4'         0.2210   -1.1410    1.8210 c3        1 PCG      0.047100
      7 O4'         0.1070   -1.3070    0.4130 os        1 PCG     -0.400600
      8 C3'         0.1590    0.3880    2.0500 c3        1 PCG      0.061100
      9 O3'         0.5870    0.6710    3.3550 os        1 PCG     -0.522200
     10 C2'         1.0360    0.9130    0.9080 c3        1 PCG      0.130100
     11 O2'         2.4160    0.8530    1.1880 oh        1 PCG     -0.584800
     12 C1'         0.7700   -0.1620   -0.2210 c3        1 PCG      0.243800
     13 N9         -0.0510    0.3230   -1.2890 na        1 PCG     -0.219900
     14 C8         -1.3060    0.9900   -1.1940 cc        1 PCG      0.400400
     15 N7         -1.8920    1.1890   -2.3830 nd        1 PCG     -0.573000
     16 C5         -1.0230    0.6130   -3.3160 cd        1 PCG      0.172800
     17 C6         -1.1210    0.5240   -4.7580 c         1 PCG      0.652000
     18 O6         -2.0190    0.9470   -5.4990 o         1 PCG     -0.593500
     19 N1         -0.0260   -0.1490   -5.3690 n         1 PCG     -0.509400
     20 C2          1.0680   -0.6480   -4.6350 cd        1 PCG      0.691800
     21 N2          2.1480   -1.1850   -5.3650 nh        1 PCG     -0.895800
     22 N3          1.1700   -0.6000   -3.2820 nc        1 PCG     -0.675100
     23 C4          0.1250    0.0490   -2.6550 cc        1 PCG      0.137800
     24 HO1A       -0.1710    0.5110    6.5020 ho        1 PCG      0.492000
     25 H5'1       -1.8990   -1.3970    2.3730 h1        1 PCG      0.083700
     26 H5'2       -0.8670   -2.9110    2.5580 h1        1 PCG      0.083700
     27 H4'         1.2280   -1.5510    2.1280 h1        1 PCG      0.092700
     28 H3'        -0.8920    0.7830    1.9200 h1        1 PCG      0.081700
     29 H2'         0.7560    1.9530    0.5990 h1        1 PCG      0.085700
     30 HO2'        2.5340    1.1740    2.0940 ho        1 PCG      0.437000
     31 H1'         1.7490   -0.5480   -0.6320 h2        1 PCG      0.135700
     32 H8         -1.7090    1.3040   -0.2240 h5        1 PCG      0.065100
     33 HN1        -0.0200   -0.1890   -6.3650 hn        1 PCG      0.335500
     34 HN21        2.8510   -1.6290   -4.8150 hn        1 PCG      0.425300
     35 HN22        1.9140   -1.6640   -6.2050 hn        1 PCG      0.425300
@<TRIPOS>BOND
     1    1    2 1   
     2    1    3 2   
     3    1    4 1   
     4    1    9 1   
     5    2   24 1   
     6    4    5 1   
     7    5    6 1   
     8    5   25 1   
     9    5   26 1   
    10    6    7 1   
    11    6    8 1   
    12    6   27 1   
    13    7   12 1   
    14    8    9 1   
    15    8   10 1   
    16    8   28 1   
    17   10   11 1   
    18   10   12 1   
    19   10   29 1   
    20   11   30 1   
    21   12   13 1   
    22   12   31 1   
    23   13   14 1   
    24   13   23 1   
    25   14   15 2   
    26   14   32 1   
    27   15   16 1   
    28   16   17 1   
    29   16   23 2   
    30   17   18 2   
    31   17   19 1   
    32   19   20 1   
    33   19   33 1   
    34   20   21 1   
    35   20   22 2   
    36   21   34 1   
    37   21   35 1   
    38   22   23 1   
@<TRIPOS>SUBSTRUCTURE
     1 PCG         1 TEMP              0 ****  ****    0 ROOT
