@<TRIPOS>MOLECULE
PCG
   36    39     1     0     0
SMALL
bcc


@<TRIPOS>ATOM
      1 PA         -0.4060    0.0180    0.1940 p5        1 PCG      1.612500
      2 O1A        -0.7350   -0.3100   -1.3130 oh        1 PCG     -0.727400
      3 O2A        -1.2050    1.0320    0.8530 o         1 PCG     -0.795300
      4 O5'         1.1860    0.2650    0.2220 os        1 PCG     -0.544200
      5 C5'         1.8230    0.2430    1.4850 c3        1 PCG      0.176400
      6 C4'         1.5670   -1.1490    2.0580 c3        1 PCG      0.040100
      7 O4'         2.1000   -1.3950    3.3620 os        1 PCG     -0.391600
      8 C3'         0.0360   -1.3250    2.2160 c3        1 PCG      0.071100
      9 O3'        -0.5280   -1.4410    0.9410 os        1 PCG     -0.519200
     10 C2'        -0.0620   -2.5500    3.1270 c3        1 PCG      0.136100
     11 O2'        -0.0300   -3.7930    2.4720 oh        1 PCG     -0.591800
     12 C1'         1.2790   -2.4300    3.9650 c3        1 PCG      0.220800
     13 N9          1.0720   -2.0770    5.3530 na        1 PCG     -0.171900
     14 C8          1.4460   -0.9000    6.0240 cc        1 PCG      0.484400
     15 N7          1.1400   -0.9200    7.3480 nd        1 PCG     -0.576000
     16 C5          0.5490   -2.1530    7.5610 cd        1 PCG      0.293800
     17 C6          0.0190   -2.7390    8.7850 c         1 PCG      0.647000
     18 O6         -0.0310   -2.2680    9.9180 o         1 PCG     -0.502500
     19 N1         -0.5130   -4.0620    8.6070 n         1 PCG     -0.503400
     20 C2         -0.4970   -4.6780    7.3530 cd        1 PCG      0.497800
     21 N2         -1.0690   -6.0610    7.2570 n4        1 PCG     -0.795600
     22 N3         -0.0280   -4.1800    6.2080 nc        1 PCG     -0.515100
     23 C4          0.4960   -2.9040    6.3270 cc        1 PCG      0.002800
     24 HO1A       -1.3930    0.2400   -1.7400 ho        1 PCG      0.504000
     25 H5'1        2.9130    0.4290    1.2990 h1        1 PCG      0.090200
     26 H5'2        1.3860    1.0500    2.1320 h1        1 PCG      0.090200
     27 H4'         2.0000   -1.9330    1.3700 h1        1 PCG      0.100700
     28 H3'        -0.4290   -0.4380    2.7440 h1        1 PCG      0.098700
     29 H2'        -0.9760   -2.5240    3.7770 h1        1 PCG      0.087700
     30 HO2'       -0.1930   -3.6410    1.5280 ho        1 PCG      0.450000
     31 H1'         1.8600   -3.3990    3.9130 h2        1 PCG      0.121700
     32 H8          1.9480   -0.0710    5.4980 h5        1 PCG      0.109100
     33 HN1        -0.8880   -4.5160    9.4120 hn        1 PCG      0.350500
     34 HN21       -2.0560   -6.0450    7.5420 hn        1 PCG      0.482800
     35 HN22       -0.5370   -6.6940    7.8660 hn        1 PCG      0.482800
     36 H23        -1.0050   -6.3960    6.2820 hn        1 PCG      0.482800
@<TRIPOS>BOND
     1    1    2 1   
     2    1    3 2   
     3    1    4 1   
     4    1    9 1   
     5    2   24 1   
     6    4    5 1   
     7    5    6 1   
     8    5   25 1   
     9    5   26 1   
    10    6    7 1   
    11    6    8 1   
    12    6   27 1   
    13    7   12 1   
    14    8    9 1   
    15    8   10 1   
    16    8   28 1   
    17   10   11 1   
    18   10   12 1   
    19   10   29 1   
    20   11   30 1   
    21   12   13 1   
    22   12   31 1   
    23   13   14 1   
    24   13   23 1   
    25   14   15 2   
    26   14   32 1   
    27   15   16 1   
    28   16   17 1   
    29   16   23 2   
    30   17   18 2   
    31   17   19 1   
    32   19   20 1   
    33   19   33 1   
    34   20   21 1   
    35   20   22 2   
    36   21   34 1   
    37   21   35 1   
    38   21   36 1   
    39   22   23 1   
@<TRIPOS>SUBSTRUCTURE
     1 PCG         1 TEMP              0 ****  ****    0 ROOT
