@<TRIPOS>MOLECULE
PCG
   36    39     1     0     0
SMALL
bcc


@<TRIPOS>ATOM
      1 PA         -0.4520    0.0400    0.2130 p5        1 PCG      1.612500
      2 O1A        -0.8030   -0.2810   -1.2900 oh        1 PCG     -0.727400
      3 O2A        -1.2380    1.0540    0.8880 o         1 PCG     -0.795300
      4 O5'         1.1410    0.2780    0.2210 os        1 PCG     -0.544200
      5 C5'         1.7940    0.2470    1.4750 c3        1 PCG      0.176400
      6 C4'         1.5400   -1.1450    2.0460 c3        1 PCG      0.040100
      7 O4'         2.0890   -1.4000    3.3410 os        1 PCG     -0.391600
      8 C3'         0.0100   -1.3140    2.2230 c3        1 PCG      0.071100
      9 O3'        -0.5720   -1.4220    0.9560 os        1 PCG     -0.519200
     10 C2'        -0.0820   -2.5430    3.1310 c3        1 PCG      0.136100
     11 O2'        -0.0660   -3.7830    2.4710 oh        1 PCG     -0.591800
     12 C1'         1.2720   -2.4330    3.9510 c3        1 PCG      0.220800
     13 N9          1.0860   -2.0850    5.3430 na        1 PCG     -0.171900
     14 C8          1.4790   -0.9150    6.0150 cc        1 PCG      0.484400
     15 N7          1.1900   -0.9390    7.3430 nd        1 PCG     -0.576000
     16 C5          0.5910   -2.1670    7.5580 cd        1 PCG      0.293800
     17 C6          0.0730   -2.7550    8.7860 c         1 PCG      0.647000
     18 O6          0.0410   -2.2890    9.9220 o         1 PCG     -0.502500
     19 N1         -0.4740   -4.0720    8.6080 ns        1 PCG     -0.503400
     20 C2         -0.4800   -4.6820    7.3510 cd        1 PCG      0.497800
     21 N2         -1.0660   -6.0600    7.2560 nz        1 PCG     -0.795600
     22 N3         -0.0210   -4.1830    6.2020 nc        1 PCG     -0.515100
     23 C4          0.5150   -2.9120    6.3210 cc        1 PCG      0.002800
     24 HO1A       -1.4650    0.2750   -1.7060 ho        1 PCG      0.504000
     25 H5'1        2.8830    0.4290    1.2750 h1        1 PCG      0.090200
     26 H5'2        1.3710    1.0540    2.1310 h1        1 PCG      0.090200
     27 H4'         1.9600   -1.9290    1.3490 h1        1 PCG      0.100700
     28 H3'        -0.4430   -0.4280    2.7610 h1        1 PCG      0.098700
     29 H2'        -0.9860   -2.5150    3.7940 h1        1 PCG      0.087700
     30 HO2'       -0.2380   -3.6260    1.5290 ho        1 PCG      0.450000
     31 H1'         1.8460   -3.4050    3.8870 h2        1 PCG      0.121700
     32 H8          1.9810   -0.0880    5.4860 h5        1 PCG      0.109100
     33 HN1        -0.8420   -4.5270    9.4170 hn        1 PCG      0.350500
     34 HN21       -0.5320   -6.7010    7.8550 hn        1 PCG      0.482800
     35 HN22       -1.0170   -6.3910    6.2790 hn        1 PCG      0.482800
     36 H23        -2.0480   -6.0360    7.5550 hn        1 PCG      0.482800
@<TRIPOS>BOND
     1    1    2 1   
     2    1    3 2   
     3    1    4 1   
     4    1    9 1   
     5    2   24 1   
     6    4    5 1   
     7    5    6 1   
     8    5   25 1   
     9    5   26 1   
    10    6    7 1   
    11    6    8 1   
    12    6   27 1   
    13    7   12 1   
    14    8    9 1   
    15    8   10 1   
    16    8   28 1   
    17   10   11 1   
    18   10   12 1   
    19   10   29 1   
    20   11   30 1   
    21   12   13 1   
    22   12   31 1   
    23   13   14 1   
    24   13   23 1   
    25   14   15 2   
    26   14   32 1   
    27   15   16 1   
    28   16   17 1   
    29   16   23 2   
    30   17   18 2   
    31   17   19 1   
    32   19   20 1   
    33   19   33 1   
    34   20   21 1   
    35   20   22 2   
    36   21   34 1   
    37   21   35 1   
    38   21   36 1   
    39   22   23 1   
@<TRIPOS>SUBSTRUCTURE
     1 PCG         1 TEMP              0 ****  ****    0 ROOT
