@<TRIPOS>MOLECULE
PCH
   44    45     1     0     0
SMALL
bcc


@<TRIPOS>ATOM
      1 N          -0.4100    0.0710    0.3330 n4        1 PCH     -0.833600
      2 CA          1.0660    0.0710    0.0480 c3        1 PCH      0.125500
      3 CB          1.8850    0.1310    1.3390 c3        1 PCH     -0.113400
      4 CG          1.5230    1.2680    2.2800 c3        1 PCH     -0.080700
      5 CD1         2.4850    1.2460    3.4660 c3        1 PCH     -0.075400
      6 CD2         1.5720    2.6260    1.5950 c3        1 PCH     -0.075400
      7 CE1         2.1700    2.3590    4.4430 c3        1 PCH     -0.078900
      8 CE2         1.2630    3.7440    2.5710 c3        1 PCH     -0.078900
      9 CZ          2.1960    3.7120    3.7630 c3        1 PCH     -0.082400
     10 CH          1.4760   -1.1820   -0.7660 c3        1 PCH      0.122100
     11 OH          0.7650   -2.2840   -0.2280 oh        1 PCH     -0.631800
     12 CM          1.1590   -0.9960   -2.2560 c3        1 PCH      0.089400
     13 O1          1.4710   -2.2590   -2.8400 os        1 PCH     -0.339900
     14 C1          1.3860   -2.3240   -4.2230 ca        1 PCH      0.138100
     15 C2          1.7880   -3.5480   -4.7870 ca        1 PCH     -0.290800
     16 C3          1.7080   -3.6700   -6.1840 ca        1 PCH      0.435700
     17 N4          1.2740   -2.6870   -7.0010 nb        1 PCH     -0.659000
     18 C5          0.8980   -1.5280   -6.4320 ca        1 PCH      0.435700
     19 C6          0.9310   -1.2860   -5.0440 ca        1 PCH     -0.290800
     20 HN1        -0.9340    0.0350   -0.5440 hn        1 PCH      0.465800
     21 HN2        -0.6370   -0.7670    0.8850 hn        1 PCH      0.465800
     22 HA          1.2780    0.9910   -0.5780 hx        1 PCH      0.111700
     23 HB1         2.9620    0.2420    1.0310 hc        1 PCH      0.092700
     24 HB2         1.7930   -0.8500    1.8810 hc        1 PCH      0.092700
     25 HG          0.4860    1.1070    2.6920 hc        1 PCH      0.032700
     26 HD11        2.4130    0.2550    3.9860 hc        1 PCH      0.042450
     27 HD12        3.5370    1.3590    3.0930 hc        1 PCH      0.042450
     28 HD21        2.5920    2.7840    1.1560 hc        1 PCH      0.042450
     29 HD22        0.8320    2.6620    0.7530 hc        1 PCH      0.042450
     30 HE11        1.1610    2.1860    4.9010 hc        1 PCH      0.052700
     31 HE12        2.9230    2.3420    5.2750 hc        1 PCH      0.052700
     32 HE21        0.2020    3.6530    2.9240 hc        1 PCH      0.052700
     33 HE22        1.3590    4.7300    2.0450 hc        1 PCH      0.052700
     34 HCZ1        1.8940    4.5060    4.4950 hc        1 PCH      0.058200
     35 HCZ2        3.2410    3.9450    3.4280 hc        1 PCH      0.058200
     36 HH          2.5850   -1.3430   -0.6390 h1        1 PCH      0.102700
     37 HO          1.0170   -3.0700   -0.7390 ho        1 PCH      0.471000
     38 HM1         0.0740   -0.7670   -2.4240 h1        1 PCH      0.053200
     39 HM2         1.7970   -0.1880   -2.7000 h1        1 PCH      0.053200
     40 HC2         2.1490   -4.3710   -4.1580 ha        1 PCH      0.151000
     41 HC3         2.0110   -4.6100   -6.6820 h4        1 PCH      0.040100
     42 HC5         0.5490   -0.7420   -7.1270 h4        1 PCH      0.040100
     43 HC6         0.6110   -0.3170   -4.6500 ha        1 PCH      0.151000
     44 HN3        -0.6590    0.9110    0.8630 hn        1 PCH      0.465800
@<TRIPOS>BOND
     1    1    2 1   
     2    1   20 1   
     3    1   21 1   
     4    1   44 1   
     5    2    3 1   
     6    2   10 1   
     7    2   22 1   
     8    3    4 1   
     9    3   23 1   
    10    3   24 1   
    11    4    5 1   
    12    4    6 1   
    13    4   25 1   
    14    5    7 1   
    15    5   26 1   
    16    5   27 1   
    17    6    8 1   
    18    6   28 1   
    19    6   29 1   
    20    7    9 1   
    21    7   30 1   
    22    7   31 1   
    23    8    9 1   
    24    8   32 1   
    25    8   33 1   
    26    9   34 1   
    27    9   35 1   
    28   10   11 1   
    29   10   12 1   
    30   10   36 1   
    31   11   37 1   
    32   12   13 1   
    33   12   38 1   
    34   12   39 1   
    35   13   14 1   
    36   14   15 ar  
    37   14   19 ar  
    38   15   16 ar  
    39   15   40 1   
    40   16   17 ar  
    41   16   41 1   
    42   17   18 ar  
    43   18   19 ar  
    44   18   42 1   
    45   19   43 1   
@<TRIPOS>SUBSTRUCTURE
     1 PCH         1 TEMP              0 ****  ****    0 ROOT
