@<TRIPOS>MOLECULE
PCH
   43    44     1     0     0
SMALL
bcc


@<TRIPOS>ATOM
      1 N          -0.4620    1.7980   -1.0480 n3        1 PCH     -0.909800
      2 CA          0.0180    0.4300   -1.0090 c3        1 PCH      0.132500
      3 CB          0.8380   -0.0310   -2.2230 c3        1 PCH     -0.114400
      4 CG          0.1550    0.1930   -3.5610 c3        1 PCH     -0.064700
      5 CD1         1.0950   -0.2350   -4.6830 c3        1 PCH     -0.074400
      6 CD2        -1.1600   -0.5660   -3.6600 c3        1 PCH     -0.074400
      7 CE1         0.4540   -0.0510   -6.0420 c3        1 PCH     -0.076400
      8 CE2        -1.8010   -0.3890   -5.0220 c3        1 PCH     -0.076400
      9 CZ         -0.8600   -0.7980   -6.1360 c3        1 PCH     -0.077400
     10 CH          0.8800    0.1720    0.2580 c3        1 PCH      0.145100
     11 OH          2.0420    0.9770    0.2700 oh        1 PCH     -0.586800
     12 CM          0.0260    0.3700    1.5130 c3        1 PCH      0.102400
     13 O1          0.6800   -0.3780    2.5480 os        1 PCH     -0.322900
     14 C1          0.0930   -0.3210    3.7900 ca        1 PCH      0.161100
     15 C2          0.7600   -1.0350    4.8070 ca        1 PCH     -0.299800
     16 C3          0.2000   -1.0140    6.0910 ca        1 PCH      0.420700
     17 N4         -0.9330   -0.3530    6.4100 nb        1 PCH     -0.689000
     18 C5         -1.5490    0.3210    5.4230 ca        1 PCH      0.420700
     19 C6         -1.0850    0.3740    4.0950 ca        1 PCH     -0.299800
     20 HN1         0.2970    2.4280   -1.2250 hn        1 PCH      0.351800
     21 HN2        -1.1390    1.9010   -1.7800 hn        1 PCH      0.351800
     22 HA         -0.8920   -0.2370   -0.9270 h1        1 PCH      0.062700
     23 HB1         1.8240    0.5080   -2.2160 hc        1 PCH      0.056200
     24 HB2         1.0550   -1.1250   -2.1010 hc        1 PCH      0.056200
     25 HG         -0.0580    1.2920   -3.6950 hc        1 PCH      0.039700
     26 HD11        2.0390    0.3670   -4.6280 hc        1 PCH      0.040950
     27 HD12        1.3730   -1.3130   -4.5420 hc        1 PCH      0.040950
     28 HD21       -0.9750   -1.6550   -3.4700 hc        1 PCH      0.040950
     29 HD22       -1.8670   -0.2000   -2.8710 hc        1 PCH      0.040950
     30 HE11        0.2770    1.0410   -6.2280 hc        1 PCH      0.039700
     31 HE12        1.1530   -0.4180   -6.8370 hc        1 PCH      0.039700
     32 HE21       -2.0950    0.6850   -5.1590 hc        1 PCH      0.039700
     33 HE22       -2.7370   -1.0040   -5.0750 hc        1 PCH      0.039700
     34 HCZ1       -1.3400   -0.5930   -7.1280 hc        1 PCH      0.040700
     35 HCZ2       -0.6670   -1.9020   -6.0760 hc        1 PCH      0.040700
     36 HH          1.2780   -0.8820    0.2240 h1        1 PCH      0.095700
     37 HO          1.7840    1.8710    0.5260 ho        1 PCH      0.403000
     38 HM1        -0.0270    1.4520    1.8020 h1        1 PCH      0.055200
     39 HM2        -1.0080   -0.0350    1.3590 h1        1 PCH      0.055200
     40 HC2         1.6850   -1.5830    4.5880 ha        1 PCH      0.154000
     41 HC3         0.6860   -1.5580    6.9210 h4        1 PCH      0.022100
     42 HC5        -2.4740    0.8540    5.7090 h4        1 PCH      0.022100
     43 HC6        -1.6390    0.9440    3.3400 ha        1 PCH      0.154000
@<TRIPOS>BOND
     1    1    2 1   
     2    1   20 1   
     3    1   21 1   
     4    2    3 1   
     5    2   10 1   
     6    2   22 1   
     7    3    4 1   
     8    3   23 1   
     9    3   24 1   
    10    4    5 1   
    11    4    6 1   
    12    4   25 1   
    13    5    7 1   
    14    5   26 1   
    15    5   27 1   
    16    6    8 1   
    17    6   28 1   
    18    6   29 1   
    19    7    9 1   
    20    7   30 1   
    21    7   31 1   
    22    8    9 1   
    23    8   32 1   
    24    8   33 1   
    25    9   34 1   
    26    9   35 1   
    27   10   11 1   
    28   10   12 1   
    29   10   36 1   
    30   11   37 1   
    31   12   13 1   
    32   12   38 1   
    33   12   39 1   
    34   13   14 1   
    35   14   15 ar  
    36   14   19 ar  
    37   15   16 ar  
    38   15   40 1   
    39   16   17 ar  
    40   16   41 1   
    41   17   18 ar  
    42   18   19 ar  
    43   18   42 1   
    44   19   43 1   
@<TRIPOS>SUBSTRUCTURE
     1 PCH         1 TEMP              0 ****  ****    0 ROOT
