@<TRIPOS>MOLECULE
PCH
   44    45     1     0     0
SMALL
bcc


@<TRIPOS>ATOM
      1 N          -0.4010    0.0580    0.3350 nz        1 PCH     -0.833600
      2 CA          1.0750    0.0720    0.0460 c3        1 PCH      0.125500
      3 CB          1.8960    0.1410    1.3350 c3        1 PCH     -0.113400
      4 CG          1.5250    1.2760    2.2760 c3        1 PCH     -0.080700
      5 CD1         2.4910    1.2660    3.4590 c3        1 PCH     -0.075400
      6 CD2         1.5590    2.6340    1.5890 c3        1 PCH     -0.075400
      7 CE1         2.1670    2.3770    4.4350 c3        1 PCH     -0.078900
      8 CE2         1.2420    3.7510    2.5630 c3        1 PCH     -0.078900
      9 CZ          2.1780    3.7290    3.7530 c3        1 PCH     -0.082400
     10 CH          1.4940   -1.1780   -0.7670 c3        1 PCH      0.122100
     11 OH          0.7960   -2.2860   -0.2260 oh        1 PCH     -0.631800
     12 CM          1.1730   -0.9980   -2.2570 c3        1 PCH      0.089400
     13 O1          1.4940   -2.2590   -2.8400 os        1 PCH     -0.339900
     14 C1          1.4060   -2.3260   -4.2230 ca        1 PCH      0.138100
     15 C2          1.8170   -3.5470   -4.7850 ca        1 PCH     -0.290800
     16 C3          1.7350   -3.6720   -6.1820 ca        1 PCH      0.435700
     17 N4          1.2910   -2.6940   -6.9990 nb        1 PCH     -0.659000
     18 C5          0.9070   -1.5380   -6.4320 ca        1 PCH      0.435700
     19 C6          0.9410   -1.2940   -5.0440 ca        1 PCH     -0.290800
     20 HN1        -0.6570    0.8960    0.8640 hn        1 PCH      0.465800
     21 HN2        -0.6180   -0.7820    0.8890 hn        1 PCH      0.465800
     22 HA          1.2760    0.9930   -0.5810 hx        1 PCH      0.111700
     23 HB1         1.8150   -0.8390    1.8790 hc        1 PCH      0.092700
     24 HB2         2.9710    0.2630    1.0240 hc        1 PCH      0.092700
     25 HG          0.4910    1.1060    2.6900 hc        1 PCH      0.032700
     26 HD11        3.5400    1.3890    3.0830 hc        1 PCH      0.042450
     27 HD12        2.4290    0.2750    3.9810 hc        1 PCH      0.042450
     28 HD21        0.8170    2.6620    0.7480 hc        1 PCH      0.042450
     29 HD22        2.5760    2.8010    1.1460 hc        1 PCH      0.042450
     30 HE11        2.9220    2.3690    5.2650 hc        1 PCH      0.052700
     31 HE12        1.1610    2.1950    4.8960 hc        1 PCH      0.052700
     32 HE21        1.3270    4.7370    2.0350 hc        1 PCH      0.052700
     33 HE22        0.1820    3.6490    2.9190 hc        1 PCH      0.052700
     34 HCZ1        1.8700    4.5210    4.4850 hc        1 PCH      0.058200
     35 HCZ2        3.2200    3.9720    3.4150 hc        1 PCH      0.058200
     36 HH          2.6060   -1.3280   -0.6430 h1        1 PCH      0.102700
     37 HO          1.0540   -3.0700   -0.7370 ho        1 PCH      0.471000
     38 HM1         1.8020   -0.1840   -2.7030 h1        1 PCH      0.053200
     39 HM2         0.0850   -0.7780   -2.4220 h1        1 PCH      0.053200
     40 HC2         2.1860   -4.3660   -4.1560 ha        1 PCH      0.151000
     41 HC3         2.0440   -4.6110   -6.6790 h4        1 PCH      0.040100
     42 HC5         0.5490   -0.7550   -7.1270 h4        1 PCH      0.040100
     43 HC6         0.6130   -0.3260   -4.6500 ha        1 PCH      0.151000
     44 HN3        -0.9270    0.0150   -0.5410 hn        1 PCH      0.465800
@<TRIPOS>BOND
     1    1    2 1   
     2    1   20 1   
     3    1   21 1   
     4    1   44 1   
     5    2    3 1   
     6    2   10 1   
     7    2   22 1   
     8    3    4 1   
     9    3   23 1   
    10    3   24 1   
    11    4    5 1   
    12    4    6 1   
    13    4   25 1   
    14    5    7 1   
    15    5   26 1   
    16    5   27 1   
    17    6    8 1   
    18    6   28 1   
    19    6   29 1   
    20    7    9 1   
    21    7   30 1   
    22    7   31 1   
    23    8    9 1   
    24    8   32 1   
    25    8   33 1   
    26    9   34 1   
    27    9   35 1   
    28   10   11 1   
    29   10   12 1   
    30   10   36 1   
    31   11   37 1   
    32   12   13 1   
    33   12   38 1   
    34   12   39 1   
    35   13   14 1   
    36   14   15 ar  
    37   14   19 ar  
    38   15   16 ar  
    39   15   40 1   
    40   16   17 ar  
    41   16   41 1   
    42   17   18 ar  
    43   18   19 ar  
    44   18   42 1   
    45   19   43 1   
@<TRIPOS>SUBSTRUCTURE
     1 PCH         1 TEMP              0 ****  ****    0 ROOT
