@<TRIPOS>MOLECULE
PCH
   44    45     1     0     0
SMALL
bcc


@<TRIPOS>ATOM
      1 N          -0.3960    0.0650    0.3240 n4        1 PCH     -0.833600
      2 CA          1.0810    0.0770    0.0420 c3        1 PCH      0.125500
      3 CB          1.8960    0.1400    1.3360 c3        1 PCH     -0.113400
      4 CG          1.5230    1.2720    2.2790 c3        1 PCH     -0.080700
      5 CD1         2.4820    1.2540    3.4670 c3        1 PCH     -0.075400
      6 CD2         1.5640    2.6320    1.5970 c3        1 PCH     -0.075400
      7 CE1         2.1570    2.3630    4.4460 c3        1 PCH     -0.078900
      8 CE2         1.2440    3.7460    2.5740 c3        1 PCH     -0.078900
      9 CZ          2.1740    3.7170    3.7690 c3        1 PCH     -0.082400
     10 CH          1.5010   -1.1720   -0.7730 c3        1 PCH      0.122100
     11 OH          0.7970   -2.2800   -0.2390 oh        1 PCH     -0.631800
     12 CM          1.1870   -0.9850   -2.2640 c3        1 PCH      0.089400
     13 O1          1.5080   -2.2450   -2.8490 os        1 PCH     -0.339900
     14 C1          1.4250   -2.3080   -4.2330 ca        1 PCH      0.138100
     15 C2          1.8340   -3.5290   -4.7970 ca        1 PCH     -0.290800
     16 C3          1.7570   -3.6490   -6.1940 ca        1 PCH      0.435700
     17 N4          1.3190   -2.6680   -7.0110 nb        1 PCH     -0.659000
     18 C5          0.9380   -1.5110   -6.4410 ca        1 PCH      0.435700
     19 C6          0.9680   -1.2720   -5.0530 ca        1 PCH     -0.290800
     20 HN1        -0.6530    0.9030    0.8550 hn        1 PCH      0.465800
     21 HN2        -0.6180   -0.7760    0.8740 hn        1 PCH      0.465800
     22 HA          1.2880    1.0000   -0.5810 hx        1 PCH      0.111700
     23 HB1         2.9730    0.2600    1.0300 hc        1 PCH      0.092700
     24 HB2         1.8100   -0.8430    1.8750 hc        1 PCH      0.092700
     25 HG          0.4860    1.1020    2.6870 hc        1 PCH      0.032700
     26 HD11        2.4160    0.2620    3.9850 hc        1 PCH      0.042450
     27 HD12        3.5340    1.3770    3.0970 hc        1 PCH      0.042450
     28 HD21        2.5840    2.7990    1.1600 hc        1 PCH      0.042450
     29 HD22        0.8260    2.6650    0.7520 hc        1 PCH      0.042450
     30 HE11        1.1470    2.1810    4.9000 hc        1 PCH      0.052700
     31 HE12        2.9070    2.3500    5.2790 hc        1 PCH      0.052700
     32 HE21        1.3340    4.7340    2.0500 hc        1 PCH      0.052700
     33 HE22        0.1830    3.6450    2.9240 hc        1 PCH      0.052700
     34 HCZ1        1.8640    4.5080    4.5020 hc        1 PCH      0.058200
     35 HCZ2        3.2180    3.9590    3.4370 hc        1 PCH      0.058200
     36 HH          2.6110   -1.3250   -0.6440 h1        1 PCH      0.102700
     37 HO          1.0560   -3.0620   -0.7510 ho        1 PCH      0.471000
     38 HM1         0.1010   -0.7620   -2.4330 h1        1 PCH      0.053200
     39 HM2         1.8210   -0.1720   -2.7040 h1        1 PCH      0.053200
     40 HC2         2.1970   -4.3510   -4.1690 ha        1 PCH      0.151000
     41 HC3         2.0650   -4.5880   -6.6940 h4        1 PCH      0.040100
     42 HC5         0.5860   -0.7250   -7.1360 h4        1 PCH      0.040100
     43 HC6         0.6420   -0.3040   -4.6570 ha        1 PCH      0.151000
     44 HN3        -0.9180    0.0280   -0.5550 hn        1 PCH      0.465800
@<TRIPOS>BOND
     1    1    2 1   
     2    1   20 1   
     3    1   21 1   
     4    1   44 1   
     5    2    3 1   
     6    2   10 1   
     7    2   22 1   
     8    3    4 1   
     9    3   23 1   
    10    3   24 1   
    11    4    5 1   
    12    4    6 1   
    13    4   25 1   
    14    5    7 1   
    15    5   26 1   
    16    5   27 1   
    17    6    8 1   
    18    6   28 1   
    19    6   29 1   
    20    7    9 1   
    21    7   30 1   
    22    7   31 1   
    23    8    9 1   
    24    8   32 1   
    25    8   33 1   
    26    9   34 1   
    27    9   35 1   
    28   10   11 1   
    29   10   12 1   
    30   10   36 1   
    31   11   37 1   
    32   12   13 1   
    33   12   38 1   
    34   12   39 1   
    35   13   14 1   
    36   14   15 ar  
    37   14   19 ar  
    38   15   16 ar  
    39   15   40 1   
    40   16   17 ar  
    41   16   41 1   
    42   17   18 ar  
    43   18   19 ar  
    44   18   42 1   
    45   19   43 1   
@<TRIPOS>SUBSTRUCTURE
     1 PCH         1 TEMP              0 ****  ****    0 ROOT
