@<TRIPOS>MOLECULE
PCI
   13    13     1     0     0
SMALL
bcc


@<TRIPOS>ATOM
      1 O1         -0.0080    0.2200    0.2040 oh        1 PCI     -0.468100
      2 C1          1.3550    0.1380    0.0940 ca        1 PCI      0.162100
      3 C2          2.0890    0.0560    1.2980 ca        1 PCI     -0.037600
      4 CL1         1.2940    0.0610    2.7920 cl        1 PCI     -0.037900
      5 C3          3.4870   -0.0300    1.2440 ca        1 PCI      0.058400
      6 CL2         4.3780   -0.1280    2.6800 cl        1 PCI     -0.027900
      7 C4          4.1550   -0.0340    0.0080 ca        1 PCI     -0.010600
      8 CL3         5.8450   -0.1390   -0.0410 cl        1 PCI     -0.032400
      9 C5          3.4230    0.0470   -1.1860 ca        1 PCI      0.058400
     10 CL4         4.2240    0.0420   -2.6750 cl        1 PCI     -0.027900
     11 C6          2.0250    0.1330   -1.1450 ca        1 PCI     -0.037600
     12 CL5         1.1310    0.2320   -2.5850 cl        1 PCI     -0.037900
     13 HO1        -0.3890    0.2710   -0.6900 ho        1 PCI      0.440000
@<TRIPOS>BOND
     1    1    2 1   
     2    1   13 1   
     3    2    3 ar  
     4    2   11 ar  
     5    3    4 1   
     6    3    5 ar  
     7    5    6 1   
     8    5    7 ar  
     9    7    8 1   
    10    7    9 ar  
    11    9   10 1   
    12    9   11 ar  
    13   11   12 1   
@<TRIPOS>SUBSTRUCTURE
     1 PCI         1 TEMP              0 ****  ****    0 ROOT
