@<TRIPOS>MOLECULE
PCI
   13    13     1     0     0
SMALL
bcc


@<TRIPOS>ATOM
      1 O1          2.9910   -0.2210    0.2010 oh        1 PCI     -0.468100
      2 C1          1.6270   -0.1390    0.0930 ca        1 PCI      0.162100
      3 C2          0.8950   -0.0600    1.2970 ca        1 PCI     -0.037600
      4 CL1         1.6920   -0.0680    2.7910 cl        1 PCI     -0.037900
      5 C3         -0.5030    0.0270    1.2460 ca        1 PCI      0.058400
      6 CL2        -1.3920    0.1220    2.6830 cl        1 PCI     -0.027900
      7 C4         -1.1730    0.0350    0.0100 ca        1 PCI     -0.010600
      8 CL3        -2.8620    0.1400   -0.0380 cl        1 PCI     -0.032400
      9 C5         -0.4420   -0.0440   -1.1850 ca        1 PCI      0.058400
     10 CL4        -1.2440   -0.0350   -2.6730 cl        1 PCI     -0.027900
     11 C6          0.9570   -0.1310   -1.1450 ca        1 PCI     -0.037600
     12 CL5         1.8490   -0.2270   -2.5870 cl        1 PCI     -0.037900
     13 HO1         3.3700   -0.2700   -0.6930 ho        1 PCI      0.440000
@<TRIPOS>BOND
     1    1    2 1   
     2    1   13 1   
     3    2    3 ar  
     4    2   11 ar  
     5    3    4 1   
     6    3    5 ar  
     7    5    6 1   
     8    5    7 ar  
     9    7    8 1   
    10    7    9 ar  
    11    9   10 1   
    12    9   11 ar  
    13   11   12 1   
@<TRIPOS>SUBSTRUCTURE
     1 PCI         1 TEMP              0 ****  ****    0 ROOT
