@<TRIPOS>MOLECULE
PCJ
  168   167     1     0     0
SMALL
bcc


@<TRIPOS>ATOM
      1 CB         -0.6750   -4.4050    2.9090 c3        1 PCJ     -0.063300
      2 SG         -1.5590   -3.1840    1.9900 ss        1 PCJ     -0.263200
      3 C           1.3760   -4.9220    4.2590 c3        1 PCJ      0.113400
      4 O           0.6820   -4.8740    5.4930 oh        1 PCJ     -0.631800
      5 N           0.6240   -2.5400    3.9420 ny        1 PCJ     -0.682800
      6 CA          0.7100   -3.9000    3.3170 c3        1 PCJ      0.130500
      7 C1         -3.0270   -2.8820    2.9420 c3        1 PCJ     -0.049300
      8 C2         -3.1980   -1.3840    3.1420 c3        1 PCJ      0.149100
      9 O2         -3.5790   -1.1220    4.5080 os        1 PCJ     -0.413900
     10 C3         -4.3500   -0.8340    2.2950 c3        1 PCJ      0.136400
     11 O3         -4.0930    0.5660    2.1460 os        1 PCJ     -0.460900
     12 C11       -10.4540   19.2710    2.6020 c3        1 PCJ     -0.093100
     13 C12       -10.7680   17.8230    2.8800 c3        1 PCJ     -0.080400
     14 C13        -9.6350   16.9160    2.4460 c3        1 PCJ     -0.079400
     15 C14        -9.9550   15.4640    2.7270 c3        1 PCJ     -0.079400
     16 C15        -8.8220   14.5580    2.2930 c3        1 PCJ     -0.078400
     17 C16        -9.1420   13.1060    2.5740 c3        1 PCJ     -0.079400
     18 C17        -8.0100   12.2000    2.1390 c3        1 PCJ     -0.078400
     19 C18        -8.3300   10.7470    2.4200 c3        1 PCJ     -0.079400
     20 C19        -7.1980    9.8420    1.9840 c3        1 PCJ     -0.078400
     21 C20        -7.5190    8.3890    2.2640 c3        1 PCJ     -0.079400
     22 C21        -6.3880    7.4830    1.8280 c3        1 PCJ     -0.078400
     23 C22        -6.7100    6.0310    2.1080 c3        1 PCJ     -0.079400
     24 C23        -5.5770    5.1250    1.6720 c3        1 PCJ     -0.078400
     25 C24        -5.9060    3.6740    1.9500 c3        1 PCJ     -0.080400
     26 C25        -4.7610    2.7760    1.5290 c3        1 PCJ     -0.123400
     27 C26        -5.1330    1.3360    1.6700 c         1 PCJ      0.638100
     28 O28        -6.1890    0.7600    1.4140 o         1 PCJ     -0.519000
     29 C31        -1.1380   10.1040   20.5040 c3        1 PCJ     -0.093100
     30 C32        -0.6970    9.7870   19.0980 c3        1 PCJ     -0.079400
     31 C33        -1.4260    8.5800   18.5460 c3        1 PCJ     -0.079400
     32 C34        -0.9800    8.2660   17.1340 c3        1 PCJ     -0.079400
     33 C35        -1.7090    7.0590   16.5840 c3        1 PCJ     -0.079400
     34 C36        -1.2630    6.7450   15.1720 c3        1 PCJ     -0.078400
     35 C37        -1.9920    5.5380   14.6210 c3        1 PCJ     -0.079400
     36 C38        -1.5460    5.2240   13.2090 c3        1 PCJ     -0.078400
     37 C39        -2.2750    4.0170   12.6590 c3        1 PCJ     -0.079400
     38 C40        -1.8280    3.7030   11.2470 c3        1 PCJ     -0.078400
     39 C41        -2.5580    2.4970   10.6970 c3        1 PCJ     -0.080400
     40 C42        -2.1090    2.1830    9.2850 c3        1 PCJ     -0.078400
     41 C43        -2.8410    0.9760    8.7360 c3        1 PCJ     -0.081400
     42 C44        -2.3850    0.6620    7.3270 c3        1 PCJ     -0.075400
     43 C45        -3.1360   -0.5360    6.7800 c3        1 PCJ     -0.131400
     44 C46        -2.6050   -0.9310    5.4380 c         1 PCJ      0.683100
     45 O47        -1.4270   -1.1250    5.0970 o         1 PCJ     -0.665000
     46 C51         6.7270   16.3490    4.3860 c3        1 PCJ     -0.093100
     47 C52         6.6500   15.0620    3.6060 c3        1 PCJ     -0.080400
     48 C53         6.0230   13.9540    4.4250 c3        1 PCJ     -0.079400
     49 C54         5.9480   12.6630    3.6380 c3        1 PCJ     -0.079400
     50 C55         5.3210   11.5560    4.4580 c3        1 PCJ     -0.078400
     51 C56         5.2460   10.2650    3.6710 c3        1 PCJ     -0.079400
     52 C57         4.6190    9.1580    4.4910 c3        1 PCJ     -0.079400
     53 C58         4.5450    7.8660    3.7040 c3        1 PCJ     -0.079400
     54 C59         3.9190    6.7590    4.5250 c3        1 PCJ     -0.079400
     55 C60         3.8470    5.4680    3.7390 c3        1 PCJ     -0.079400
     56 C61         3.2220    4.3610    4.5620 c3        1 PCJ     -0.079400
     57 C62         3.1520    3.0690    3.7760 c3        1 PCJ     -0.079400
     58 C63         2.5280    1.9640    4.6020 c3        1 PCJ     -0.079400
     59 C64         2.4670    0.6720    3.8130 c3        1 PCJ     -0.081400
     60 C65         1.8250   -0.4220    4.6480 c3        1 PCJ     -0.160400
     61 C66         1.8980   -1.7380    3.9260 c         1 PCJ      0.557100
     62 O67         2.8610   -2.2220    3.3490 o         1 PCJ     -0.433100
     63 H511        7.3430   16.2160    5.3080 hc        1 PCJ      0.033700
     64 H512        7.1910   17.1520    3.7650 hc        1 PCJ      0.033700
     65 H513        5.7070   16.6860    4.6940 hc        1 PCJ      0.033700
     66 H521        7.6800   14.7540    3.2860 hc        1 PCJ      0.038700
     67 H522        6.0480   15.2230    2.6730 hc        1 PCJ      0.038700
     68 H531        6.6240   13.7910    5.3580 hc        1 PCJ      0.039700
     69 H532        4.9920   14.2600    4.7450 hc        1 PCJ      0.039700
     70 H541        5.3470   12.8260    2.7040 hc        1 PCJ      0.040200
     71 H542        6.9790   12.3570    3.3180 hc        1 PCJ      0.040200
     72 H551        5.9220   11.3930    5.3910 hc        1 PCJ      0.040200
     73 H552        4.2900   11.8620    4.7780 hc        1 PCJ      0.040200
     74 H561        4.6450   10.4280    2.7370 hc        1 PCJ      0.040200
     75 H562        6.2770    9.9590    3.3500 hc        1 PCJ      0.040200
     76 H571        3.5880    9.4640    4.8100 hc        1 PCJ      0.040200
     77 H572        5.2200    8.9950    5.4240 hc        1 PCJ      0.040200
     78 H581        3.9440    8.0290    2.7710 hc        1 PCJ      0.041200
     79 H582        5.5760    7.5610    3.3840 hc        1 PCJ      0.041200
     80 H591        4.5210    6.5980    5.4590 hc        1 PCJ      0.040700
     81 H592        2.8880    7.0650    4.8440 hc        1 PCJ      0.040700
     82 H601        3.2450    5.6290    2.8060 hc        1 PCJ      0.042700
     83 H602        4.8780    5.1630    3.4200 hc        1 PCJ      0.042700
     84 H611        3.8240    4.2020    5.4960 hc        1 PCJ      0.042200
     85 H612        2.1910    4.6650    4.8810 hc        1 PCJ      0.042200
     86 H621        4.1850    2.7650    3.4580 hc        1 PCJ      0.047200
     87 H622        2.5510    3.2290    2.8420 hc        1 PCJ      0.047200
     88 H631        1.4940    2.2660    4.9160 hc        1 PCJ      0.048200
     89 H632        3.1300    1.8080    5.5370 hc        1 PCJ      0.048200
     90 H641        3.5020    0.3600    3.5110 hc        1 PCJ      0.065200
     91 H642        1.8740    0.8310    2.8740 hc        1 PCJ      0.065200
     92 H651        2.3920   -0.5480    5.6130 hc        1 PCJ      0.108700
     93 H652        0.7660   -0.1400    4.9070 hc        1 PCJ      0.108700
     94 HN         -0.1210   -2.0000    3.4420 hn        1 PCJ      0.487300
     95 HA          1.3620   -3.8030    2.3950 hx        1 PCJ      0.127700
     96 H1          2.4580   -4.6570    4.4150 h1        1 PCJ      0.071700
     97 H2A         1.3000   -5.9390    3.7900 h1        1 PCJ      0.071700
     98 HO          0.9870   -5.6210    6.0260 ho        1 PCJ      0.447000
     99 HB1        -1.2410   -4.7490    3.8110 h1        1 PCJ      0.114200
    100 HB2        -0.5260   -5.2960    2.2440 h1        1 PCJ      0.114200
    101 H11        -3.8940   -3.3060    2.3730 h1        1 PCJ      0.102200
    102 H12        -2.9900   -3.4020    3.9300 h1        1 PCJ      0.102200
    103 H2         -2.2450   -0.8300    2.9080 h1        1 PCJ      0.086700
    104 H31        -4.3510   -1.3070    1.2780 h1        1 PCJ      0.081200
    105 H32        -5.3400   -0.9950    2.7980 h1        1 PCJ      0.081200
    106 H251       -3.8440    2.9950    2.1360 hc        1 PCJ      0.080200
    107 H252       -4.5080    2.9500    0.4470 hc        1 PCJ      0.080200
    108 H241       -6.8370    3.3790    1.3950 hc        1 PCJ      0.060200
    109 H242       -6.1130    3.5340    3.0430 hc        1 PCJ      0.060200
    110 H231       -5.3850    5.2660    0.5760 hc        1 PCJ      0.042200
    111 H232       -4.6370    5.4110    2.2140 hc        1 PCJ      0.042200
    112 H221       -6.9020    5.8930    3.2050 hc        1 PCJ      0.044700
    113 H222       -7.6500    5.7430    1.5680 hc        1 PCJ      0.044700
    114 H211       -6.1970    7.6220    0.7310 hc        1 PCJ      0.040700
    115 H212       -5.4460    7.7710    2.3660 hc        1 PCJ      0.040700
    116 H201       -7.7110    8.2510    3.3610 hc        1 PCJ      0.041200
    117 H202       -8.4600    8.1010    1.7250 hc        1 PCJ      0.041200
    118 H191       -6.2570   10.1300    2.5220 hc        1 PCJ      0.039700
    119 H192       -7.0070    9.9800    0.8870 hc        1 PCJ      0.039700
    120 H181       -8.5220   10.6090    3.5160 hc        1 PCJ      0.040700
    121 H182       -9.2710   10.4590    1.8810 hc        1 PCJ      0.040700
    122 H171       -7.0690   12.4890    2.6780 hc        1 PCJ      0.039700
    123 H172       -7.8180   12.3380    1.0420 hc        1 PCJ      0.039700
    124 H161      -10.0830   12.8170    2.0350 hc        1 PCJ      0.040200
    125 H162       -9.3340   12.9680    3.6710 hc        1 PCJ      0.040200
    126 H151       -7.8820   14.8470    2.8330 hc        1 PCJ      0.039200
    127 H152       -8.6300   14.6960    1.1970 hc        1 PCJ      0.039200
    128 H141      -10.1470   15.3260    3.8240 hc        1 PCJ      0.039700
    129 H142      -10.8950   15.1750    2.1880 hc        1 PCJ      0.039700
    130 H131       -9.4430   17.0540    1.3500 hc        1 PCJ      0.039200
    131 H132       -8.6950   17.2060    2.9860 hc        1 PCJ      0.039200
    132 H121      -10.9600   17.6830    3.9760 hc        1 PCJ      0.038700
    133 H122      -11.7070   17.5310    2.3410 hc        1 PCJ      0.038700
    134 H111       -9.5340   19.5880    3.1500 hc        1 PCJ      0.033367
    135 H112      -10.2840   19.4350    1.5100 hc        1 PCJ      0.033367
    136 H113      -11.3010   19.9210    2.9280 hc        1 PCJ      0.033367
    137 H451       -3.0140   -1.4190    7.4640 hc        1 PCJ      0.094200
    138 H452       -4.2330   -0.3070    6.7010 hc        1 PCJ      0.094200
    139 H441       -1.2830    0.4500    7.3190 hc        1 PCJ      0.052200
    140 H442       -2.5610    1.5520    6.6660 hc        1 PCJ      0.052200
    141 H431       -3.9460    1.1720    8.7400 hc        1 PCJ      0.049200
    142 H432       -2.6580    0.0900    9.4000 hc        1 PCJ      0.049200
    143 H421       -2.2970    3.0700    8.6250 hc        1 PCJ      0.040700
    144 H422       -1.0040    1.9900    9.2760 hc        1 PCJ      0.040700
    145 H411       -3.6630    2.6890   10.7060 hc        1 PCJ      0.044200
    146 H412       -2.3710    1.6100   11.3580 hc        1 PCJ      0.044200
    147 H401       -0.7230    3.5120   11.2370 hc        1 PCJ      0.040200
    148 H402       -2.0170    4.5910   10.5870 hc        1 PCJ      0.040200
    149 H391       -3.3810    4.2090   12.6690 hc        1 PCJ      0.041700
    150 H392       -2.0870    3.1300   13.3190 hc        1 PCJ      0.041700
    151 H381       -1.7340    6.1110   12.5490 hc        1 PCJ      0.039700
    152 H382       -0.4400    5.0330   13.1980 hc        1 PCJ      0.039700
    153 H371       -1.8040    4.6510   15.2820 hc        1 PCJ      0.041200
    154 H372       -3.0980    5.7300   14.6320 hc        1 PCJ      0.041200
    155 H361       -1.4510    7.6320   14.5120 hc        1 PCJ      0.039200
    156 H362       -0.1570    6.5530   15.1610 hc        1 PCJ      0.039200
    157 H351       -1.5200    6.1720   17.2440 hc        1 PCJ      0.040200
    158 H352       -2.8140    7.2500   16.5950 hc        1 PCJ      0.040200
    159 H341       -1.1690    9.1530   16.4740 hc        1 PCJ      0.039200
    160 H342        0.1260    8.0750   17.1230 hc        1 PCJ      0.039200
    161 H331       -2.5310    8.7710   18.5580 hc        1 PCJ      0.040200
    162 H332       -1.2370    7.6930   19.2070 hc        1 PCJ      0.040200
    163 H321       -0.8860   10.6730   18.4350 hc        1 PCJ      0.038700
    164 H322        0.4080    9.5950   19.0840 hc        1 PCJ      0.038700
    165 H311       -0.9350    9.2420   21.1840 hc        1 PCJ      0.033700
    166 H312       -0.5890   10.9960   20.8910 hc        1 PCJ      0.033700
    167 H313       -2.2330   10.3230   20.5340 hc        1 PCJ      0.033700
    168 H21         0.3120   -2.6370    4.9220 hn        1 PCJ      0.487300
@<TRIPOS>BOND
     1    1    2 1   
     2    1    6 1   
     3    1   99 1   
     4    1  100 1   
     5    2    7 1   
     6    3    4 1   
     7    3    6 1   
     8    3   96 1   
     9    3   97 1   
    10    4   98 1   
    11    5    6 1   
    12    5   61 1   
    13    5   94 1   
    14    5  168 1   
    15    6   95 1   
    16    7    8 1   
    17    7  101 1   
    18    7  102 1   
    19    8    9 1   
    20    8   10 1   
    21    8  103 1   
    22    9   44 1   
    23   10   11 1   
    24   10  104 1   
    25   10  105 1   
    26   11   27 1   
    27   12   13 1   
    28   12  134 1   
    29   12  135 1   
    30   12  136 1   
    31   13   14 1   
    32   13  132 1   
    33   13  133 1   
    34   14   15 1   
    35   14  130 1   
    36   14  131 1   
    37   15   16 1   
    38   15  128 1   
    39   15  129 1   
    40   16   17 1   
    41   16  126 1   
    42   16  127 1   
    43   17   18 1   
    44   17  124 1   
    45   17  125 1   
    46   18   19 1   
    47   18  122 1   
    48   18  123 1   
    49   19   20 1   
    50   19  120 1   
    51   19  121 1   
    52   20   21 1   
    53   20  118 1   
    54   20  119 1   
    55   21   22 1   
    56   21  116 1   
    57   21  117 1   
    58   22   23 1   
    59   22  114 1   
    60   22  115 1   
    61   23   24 1   
    62   23  112 1   
    63   23  113 1   
    64   24   25 1   
    65   24  110 1   
    66   24  111 1   
    67   25   26 1   
    68   25  108 1   
    69   25  109 1   
    70   26   27 1   
    71   26  106 1   
    72   26  107 1   
    73   27   28 2   
    74   29   30 1   
    75   29  165 1   
    76   29  166 1   
    77   29  167 1   
    78   30   31 1   
    79   30  163 1   
    80   30  164 1   
    81   31   32 1   
    82   31  161 1   
    83   31  162 1   
    84   32   33 1   
    85   32  159 1   
    86   32  160 1   
    87   33   34 1   
    88   33  157 1   
    89   33  158 1   
    90   34   35 1   
    91   34  155 1   
    92   34  156 1   
    93   35   36 1   
    94   35  153 1   
    95   35  154 1   
    96   36   37 1   
    97   36  151 1   
    98   36  152 1   
    99   37   38 1   
   100   37  149 1   
   101   37  150 1   
   102   38   39 1   
   103   38  147 1   
   104   38  148 1   
   105   39   40 1   
   106   39  145 1   
   107   39  146 1   
   108   40   41 1   
   109   40  143 1   
   110   40  144 1   
   111   41   42 1   
   112   41  141 1   
   113   41  142 1   
   114   42   43 1   
   115   42  139 1   
   116   42  140 1   
   117   43   44 1   
   118   43  137 1   
   119   43  138 1   
   120   44   45 2   
   121   46   47 1   
   122   46   63 1   
   123   46   64 1   
   124   46   65 1   
   125   47   48 1   
   126   47   66 1   
   127   47   67 1   
   128   48   49 1   
   129   48   68 1   
   130   48   69 1   
   131   49   50 1   
   132   49   70 1   
   133   49   71 1   
   134   50   51 1   
   135   50   72 1   
   136   50   73 1   
   137   51   52 1   
   138   51   74 1   
   139   51   75 1   
   140   52   53 1   
   141   52   76 1   
   142   52   77 1   
   143   53   54 1   
   144   53   78 1   
   145   53   79 1   
   146   54   55 1   
   147   54   80 1   
   148   54   81 1   
   149   55   56 1   
   150   55   82 1   
   151   55   83 1   
   152   56   57 1   
   153   56   84 1   
   154   56   85 1   
   155   57   58 1   
   156   57   86 1   
   157   57   87 1   
   158   58   59 1   
   159   58   88 1   
   160   58   89 1   
   161   59   60 1   
   162   59   90 1   
   163   59   91 1   
   164   60   61 1   
   165   60   92 1   
   166   60   93 1   
   167   61   62 2   
@<TRIPOS>SUBSTRUCTURE
     1 PCJ         1 TEMP              0 ****  ****    0 ROOT
