@<TRIPOS>MOLECULE
PCJ
  167   166     1     0     0
SMALL
bcc


@<TRIPOS>ATOM
      1 CB         -0.8390   -6.5670    2.4740 c3        1 PCJ     -0.029300
      2 SG         -0.7630   -5.2120    3.5980 ss        1 PCJ     -0.260200
      3 C          -2.1340   -8.5400    1.6620 c3        1 PCJ      0.098400
      4 O          -1.4390   -8.4930    0.4270 oh        1 PCJ     -0.611800
      5 N          -2.9920   -6.2260    1.3050 n         1 PCJ     -0.558900
      6 CA         -2.2520   -7.0900    2.1950 c3        1 PCJ      0.098700
      7 C1         -0.9630   -3.7670    2.6090 c3        1 PCJ     -0.045300
      8 C2          0.3350   -2.9900    2.4560 c3        1 PCJ      0.150100
      9 O2          0.0250   -1.6980    1.8930 os        1 PCJ     -0.446900
     10 C3          1.2750   -3.6510    1.4470 c3        1 PCJ      0.134400
     11 O3          2.5910   -3.1720    1.7590 os        1 PCJ     -0.437900
     12 C11        20.8310    1.8570   -3.9920 c3        1 PCJ     -0.092100
     13 C12        19.4400    1.4600   -4.4140 c3        1 PCJ     -0.080400
     14 C13        18.5640    1.1490   -3.2200 c3        1 PCJ     -0.079400
     15 C14        17.1680    0.7510   -3.6480 c3        1 PCJ     -0.079400
     16 C15        16.2930    0.4400   -2.4530 c3        1 PCJ     -0.079400
     17 C16        14.8970    0.0420   -2.8820 c3        1 PCJ     -0.079400
     18 C17        14.0220   -0.2690   -1.6870 c3        1 PCJ     -0.079400
     19 C18        12.6260   -0.6670   -2.1160 c3        1 PCJ     -0.079400
     20 C19        11.7510   -0.9770   -0.9210 c3        1 PCJ     -0.079400
     21 C20        10.3560   -1.3760   -1.3500 c3        1 PCJ     -0.079400
     22 C21         9.4810   -1.6860   -0.1550 c3        1 PCJ     -0.079400
     23 C22         8.0850   -2.0850   -0.5850 c3        1 PCJ     -0.079400
     24 C23         7.2100   -2.3930    0.6110 c3        1 PCJ     -0.079400
     25 C24         5.8180   -2.7960    0.1760 c3        1 PCJ     -0.079400
     26 C25         4.9430   -3.0840    1.3780 c3        1 PCJ     -0.127400
     27 C26         3.6080   -3.6150    0.9570 c         1 PCJ      0.634100
     28 O28         3.3280   -4.3790    0.0310 o         1 PCJ     -0.544000
     29 C31         1.1250   18.0240    2.4330 c3        1 PCJ     -0.092100
     30 C32         1.5150   16.7210    3.0800 c3        1 PCJ     -0.080400
     31 C33         0.8880   15.5390    2.3710 c3        1 PCJ     -0.079400
     32 C34         1.2820   14.2320    3.0240 c3        1 PCJ     -0.079400
     33 C35         0.6550   13.0510    2.3150 c3        1 PCJ     -0.078400
     34 C36         1.0500   11.7440    2.9680 c3        1 PCJ     -0.079400
     35 C37         0.4220   10.5630    2.2590 c3        1 PCJ     -0.079400
     36 C38         0.8170    9.2560    2.9120 c3        1 PCJ     -0.079400
     37 C39         0.1890    8.0760    2.2030 c3        1 PCJ     -0.079400
     38 C40         0.5840    6.7690    2.8570 c3        1 PCJ     -0.079400
     39 C41        -0.0430    5.5880    2.1470 c3        1 PCJ     -0.079400
     40 C42         0.3520    4.2820    2.8010 c3        1 PCJ     -0.079400
     41 C43        -0.2750    3.1010    2.0910 c3        1 PCJ     -0.078400
     42 C44         0.1200    1.7980    2.7510 c3        1 PCJ     -0.079400
     43 C45        -0.4960    0.6200    2.0240 c3        1 PCJ     -0.127400
     44 C46        -0.2200   -0.6600    2.7510 c         1 PCJ      0.635100
     45 O47        -0.2120   -0.8750    3.9630 o         1 PCJ     -0.536000
     46 C51       -20.2590    1.2070   -5.3780 c3        1 PCJ     -0.092100
     47 C52       -19.5670    0.4240   -4.2930 c3        1 PCJ     -0.080400
     48 C53       -18.0840    0.2870   -4.5660 c3        1 PCJ     -0.079400
     49 C54       -17.3930   -0.5000   -3.4730 c3        1 PCJ     -0.079400
     50 C55       -15.9110   -0.6370   -3.7470 c3        1 PCJ     -0.078400
     51 C56       -15.2200   -1.4240   -2.6540 c3        1 PCJ     -0.079400
     52 C57       -13.7380   -1.5610   -2.9280 c3        1 PCJ     -0.078400
     53 C58       -13.0470   -2.3490   -1.8360 c3        1 PCJ     -0.079400
     54 C59       -11.5650   -2.4850   -2.1100 c3        1 PCJ     -0.078400
     55 C60       -10.8740   -3.2730   -1.0180 c3        1 PCJ     -0.079400
     56 C61        -9.3920   -3.4100   -1.2920 c3        1 PCJ     -0.078400
     57 C62        -8.7030   -4.1990   -0.1990 c3        1 PCJ     -0.078400
     58 C63        -7.2200   -4.3350   -0.4730 c3        1 PCJ     -0.079400
     59 C64        -6.5350   -5.1260    0.6210 c3        1 PCJ     -0.074400
     60 C65        -5.0540   -5.2610    0.3440 c3        1 PCJ     -0.149400
     61 C66        -4.3630   -6.0460    1.4440 c         1 PCJ      0.651100
     62 O67        -4.9720   -6.4670    2.4460 o         1 PCJ     -0.598100
     63 H511      -20.1390    0.7010   -6.3670 hc        1 PCJ      0.032700
     64 H512      -21.3500    1.2960   -5.1570 hc        1 PCJ      0.032700
     65 H513      -19.8300    2.2350   -5.4570 hc        1 PCJ      0.032700
     66 H521      -19.7190    0.9330   -3.3050 hc        1 PCJ      0.038700
     67 H522      -20.0270   -0.5960   -4.2120 hc        1 PCJ      0.038700
     68 H531      -17.9300   -0.2240   -5.5530 hc        1 PCJ      0.039700
     69 H532      -17.6210    1.3060   -4.6450 hc        1 PCJ      0.039700
     70 H541      -17.5480    0.0100   -2.4860 hc        1 PCJ      0.039700
     71 H542      -17.8560   -1.5190   -3.3930 hc        1 PCJ      0.039700
     72 H551      -15.7560   -1.1480   -4.7340 hc        1 PCJ      0.039700
     73 H552      -15.4480    0.3820   -3.8260 hc        1 PCJ      0.039700
     74 H561      -15.3750   -0.9130   -1.6670 hc        1 PCJ      0.039700
     75 H562      -15.6830   -2.4430   -2.5750 hc        1 PCJ      0.039700
     76 H571      -13.5830   -2.0710   -3.9160 hc        1 PCJ      0.039700
     77 H572      -13.2740   -0.5420   -3.0070 hc        1 PCJ      0.039700
     78 H581      -13.2020   -1.8380   -0.8490 hc        1 PCJ      0.039700
     79 H582      -13.5100   -3.3670   -1.7570 hc        1 PCJ      0.039700
     80 H591      -11.4100   -2.9950   -3.0970 hc        1 PCJ      0.038700
     81 H592      -11.1010   -1.4660   -2.1880 hc        1 PCJ      0.038700
     82 H601      -11.0290   -2.7630   -0.0300 hc        1 PCJ      0.040700
     83 H602      -11.3380   -4.2920   -0.9390 hc        1 PCJ      0.040700
     84 H611       -9.2370   -3.9190   -2.2790 hc        1 PCJ      0.038700
     85 H612       -8.9290   -2.3910   -1.3690 hc        1 PCJ      0.038700
     86 H621       -8.8570   -3.6900    0.7880 hc        1 PCJ      0.043200
     87 H622       -9.1660   -5.2180   -0.1210 hc        1 PCJ      0.043200
     88 H631       -7.0660   -4.8450   -1.4610 hc        1 PCJ      0.037200
     89 H632       -6.7570   -3.3160   -0.5500 hc        1 PCJ      0.037200
     90 H641       -6.6850   -4.6220    1.6130 hc        1 PCJ      0.060200
     91 H642       -6.9950   -6.1460    0.7050 hc        1 PCJ      0.060200
     92 H651       -4.8960   -5.7820   -0.6370 hc        1 PCJ      0.063200
     93 H652       -4.5850   -4.2440    0.2720 hc        1 PCJ      0.063200
     94 HN         -2.5970   -6.1120    0.4000 hn        1 PCJ      0.307500
     95 HA         -2.8200   -7.1470    3.1750 h1        1 PCJ      0.107700
     96 H1         -3.1550   -8.9830    1.5150 h1        1 PCJ      0.036200
     97 H2A        -1.5660   -9.1630    2.4030 h1        1 PCJ      0.036200
     98 HO         -1.3760   -9.4020    0.1100 ho        1 PCJ      0.407000
     99 HB1        -0.3140   -6.3430    1.5140 h1        1 PCJ      0.084200
    100 HB2        -0.2650   -7.3790    2.9930 h1        1 PCJ      0.084200
    101 H11        -1.3880   -4.0060    1.6060 h1        1 PCJ      0.087700
    102 H12        -1.6960   -3.1140    3.1500 h1        1 PCJ      0.087700
    103 H2          0.8450   -2.8610    3.4520 h1        1 PCJ      0.106700
    104 H31         1.2560   -4.7660    1.5620 h1        1 PCJ      0.067200
    105 H32         1.0180   -3.3660    0.3940 h1        1 PCJ      0.067200
    106 H251        5.4210   -3.8640    2.0320 hc        1 PCJ      0.079700
    107 H252        4.8030   -2.1590    1.9960 hc        1 PCJ      0.079700
    108 H241        5.3590   -1.9750   -0.4350 hc        1 PCJ      0.057700
    109 H242        5.8670   -3.7080   -0.4770 hc        1 PCJ      0.057700
    110 H231        7.6730   -3.2210    1.2110 hc        1 PCJ      0.041200
    111 H232        7.1520   -1.4930    1.2780 hc        1 PCJ      0.041200
    112 H221        7.6250   -1.2550   -1.1840 hc        1 PCJ      0.042700
    113 H222        8.1400   -2.9840   -1.2530 hc        1 PCJ      0.042700
    114 H211        9.9410   -2.5160    0.4430 hc        1 PCJ      0.040200
    115 H212        9.4260   -0.7870    0.5140 hc        1 PCJ      0.040200
    116 H201        9.8950   -0.5460   -1.9490 hc        1 PCJ      0.040200
    117 H202       10.4100   -2.2740   -2.0200 hc        1 PCJ      0.040200
    118 H191       12.2120   -1.8070   -0.3230 hc        1 PCJ      0.039700
    119 H192       11.6970   -0.0790   -0.2510 hc        1 PCJ      0.039700
    120 H181       12.1650    0.1630   -2.7140 hc        1 PCJ      0.039700
    121 H182       12.6810   -1.5650   -2.7860 hc        1 PCJ      0.039700
    122 H171       14.4830   -1.0990   -1.0890 hc        1 PCJ      0.039700
    123 H172       13.9680    0.6300   -1.0170 hc        1 PCJ      0.039700
    124 H161       14.4360    0.8720   -3.4800 hc        1 PCJ      0.039700
    125 H162       14.9510   -0.8560   -3.5520 hc        1 PCJ      0.039700
    126 H151       16.7540   -0.3900   -1.8560 hc        1 PCJ      0.039700
    127 H152       16.2390    1.3380   -1.7830 hc        1 PCJ      0.039700
    128 H141       16.7070    1.5810   -4.2460 hc        1 PCJ      0.039700
    129 H142       17.2220   -0.1470   -4.3190 hc        1 PCJ      0.039700
    130 H131       19.0250    0.3180   -2.6220 hc        1 PCJ      0.039700
    131 H132       18.5100    2.0470   -2.5490 hc        1 PCJ      0.039700
    132 H121       18.9760    2.2890   -5.0110 hc        1 PCJ      0.038700
    133 H122       19.4910    0.5610   -5.0840 hc        1 PCJ      0.038700
    134 H111       21.4590    2.0810   -4.8870 hc        1 PCJ      0.032700
    135 H112       20.8020    2.7660   -3.3440 hc        1 PCJ      0.032700
    136 H113       21.3180    1.0320   -3.4170 hc        1 PCJ      0.032700
    137 H451       -1.6110    0.7380    1.9640 hc        1 PCJ      0.077700
    138 H452       -0.1010    0.5530    0.9760 hc        1 PCJ      0.077700
    139 H441        1.2370    1.6960    2.7520 hc        1 PCJ      0.058700
    140 H442       -0.2150    1.7910    3.8220 hc        1 PCJ      0.058700
    141 H431       -1.3920    3.2070    2.1010 hc        1 PCJ      0.040700
    142 H432        0.0480    3.0940    1.0160 hc        1 PCJ      0.040700
    143 H421        1.4690    4.1780    2.7890 hc        1 PCJ      0.042700
    144 H422        0.0320    4.2870    3.8770 hc        1 PCJ      0.042700
    145 H411       -1.1600    5.6920    2.1600 hc        1 PCJ      0.039700
    146 H412        0.2760    5.5820    1.0720 hc        1 PCJ      0.039700
    147 H401        1.7010    6.6650    2.8440 hc        1 PCJ      0.040200
    148 H402        0.2650    6.7740    3.9320 hc        1 PCJ      0.040200
    149 H391       -0.9280    8.1800    2.2160 hc        1 PCJ      0.039700
    150 H392        0.5080    8.0700    1.1270 hc        1 PCJ      0.039700
    151 H381        1.9340    9.1520    2.9000 hc        1 PCJ      0.039700
    152 H382        0.4970    9.2620    3.9880 hc        1 PCJ      0.039700
    153 H371       -0.6950   10.6680    2.2710 hc        1 PCJ      0.039700
    154 H372        0.7410   10.5580    1.1830 hc        1 PCJ      0.039700
    155 H361        2.1670   11.6400    2.9560 hc        1 PCJ      0.039700
    156 H362        0.7300   11.7500    4.0440 hc        1 PCJ      0.039700
    157 H351       -0.4620   13.1550    2.3270 hc        1 PCJ      0.039700
    158 H352        0.9740   13.0450    1.2390 hc        1 PCJ      0.039700
    159 H341        2.3990   14.1270    3.0120 hc        1 PCJ      0.039700
    160 H342        0.9630   14.2370    4.1000 hc        1 PCJ      0.039700
    161 H331       -0.2290   15.6430    2.3830 hc        1 PCJ      0.039700
    162 H332        1.2070   15.5330    1.2960 hc        1 PCJ      0.039700
    163 H321        2.6320   16.6130    3.0680 hc        1 PCJ      0.038700
    164 H322        1.1950   16.7230    4.1550 hc        1 PCJ      0.038700
    165 H311        1.5970   18.8810    2.9700 hc        1 PCJ      0.032700
    166 H312        1.4570   18.0500    1.3670 hc        1 PCJ      0.032700
    167 H313        0.0160   18.1600    2.4570 hc        1 PCJ      0.032700
@<TRIPOS>BOND
     1    1    2 1   
     2    1    6 1   
     3    1   99 1   
     4    1  100 1   
     5    2    7 1   
     6    3    4 1   
     7    3    6 1   
     8    3   96 1   
     9    3   97 1   
    10    4   98 1   
    11    5    6 1   
    12    5   61 1   
    13    5   94 1   
    14    6   95 1   
    15    7    8 1   
    16    7  101 1   
    17    7  102 1   
    18    8    9 1   
    19    8   10 1   
    20    8  103 1   
    21    9   44 1   
    22   10   11 1   
    23   10  104 1   
    24   10  105 1   
    25   11   27 1   
    26   12   13 1   
    27   12  134 1   
    28   12  135 1   
    29   12  136 1   
    30   13   14 1   
    31   13  132 1   
    32   13  133 1   
    33   14   15 1   
    34   14  130 1   
    35   14  131 1   
    36   15   16 1   
    37   15  128 1   
    38   15  129 1   
    39   16   17 1   
    40   16  126 1   
    41   16  127 1   
    42   17   18 1   
    43   17  124 1   
    44   17  125 1   
    45   18   19 1   
    46   18  122 1   
    47   18  123 1   
    48   19   20 1   
    49   19  120 1   
    50   19  121 1   
    51   20   21 1   
    52   20  118 1   
    53   20  119 1   
    54   21   22 1   
    55   21  116 1   
    56   21  117 1   
    57   22   23 1   
    58   22  114 1   
    59   22  115 1   
    60   23   24 1   
    61   23  112 1   
    62   23  113 1   
    63   24   25 1   
    64   24  110 1   
    65   24  111 1   
    66   25   26 1   
    67   25  108 1   
    68   25  109 1   
    69   26   27 1   
    70   26  106 1   
    71   26  107 1   
    72   27   28 2   
    73   29   30 1   
    74   29  165 1   
    75   29  166 1   
    76   29  167 1   
    77   30   31 1   
    78   30  163 1   
    79   30  164 1   
    80   31   32 1   
    81   31  161 1   
    82   31  162 1   
    83   32   33 1   
    84   32  159 1   
    85   32  160 1   
    86   33   34 1   
    87   33  157 1   
    88   33  158 1   
    89   34   35 1   
    90   34  155 1   
    91   34  156 1   
    92   35   36 1   
    93   35  153 1   
    94   35  154 1   
    95   36   37 1   
    96   36  151 1   
    97   36  152 1   
    98   37   38 1   
    99   37  149 1   
   100   37  150 1   
   101   38   39 1   
   102   38  147 1   
   103   38  148 1   
   104   39   40 1   
   105   39  145 1   
   106   39  146 1   
   107   40   41 1   
   108   40  143 1   
   109   40  144 1   
   110   41   42 1   
   111   41  141 1   
   112   41  142 1   
   113   42   43 1   
   114   42  139 1   
   115   42  140 1   
   116   43   44 1   
   117   43  137 1   
   118   43  138 1   
   119   44   45 2   
   120   46   47 1   
   121   46   63 1   
   122   46   64 1   
   123   46   65 1   
   124   47   48 1   
   125   47   66 1   
   126   47   67 1   
   127   48   49 1   
   128   48   68 1   
   129   48   69 1   
   130   49   50 1   
   131   49   70 1   
   132   49   71 1   
   133   50   51 1   
   134   50   72 1   
   135   50   73 1   
   136   51   52 1   
   137   51   74 1   
   138   51   75 1   
   139   52   53 1   
   140   52   76 1   
   141   52   77 1   
   142   53   54 1   
   143   53   78 1   
   144   53   79 1   
   145   54   55 1   
   146   54   80 1   
   147   54   81 1   
   148   55   56 1   
   149   55   82 1   
   150   55   83 1   
   151   56   57 1   
   152   56   84 1   
   153   56   85 1   
   154   57   58 1   
   155   57   86 1   
   156   57   87 1   
   157   58   59 1   
   158   58   88 1   
   159   58   89 1   
   160   59   60 1   
   161   59   90 1   
   162   59   91 1   
   163   60   61 1   
   164   60   92 1   
   165   60   93 1   
   166   61   62 2   
@<TRIPOS>SUBSTRUCTURE
     1 PCJ         1 TEMP              0 ****  ****    0 ROOT
