@<TRIPOS>MOLECULE
PCJ
  168   167     1     0     0
SMALL
bcc


@<TRIPOS>ATOM
      1 CB         -0.8070   -4.4450    2.9660 c3        1 PCJ     -0.063300
      2 SG         -1.7050   -3.2300    2.0500 ss        1 PCJ     -0.262200
      3 C           1.2660   -4.9530    4.2860 c3        1 PCJ      0.113400
      4 O           0.5930   -4.8920    5.5320 oh        1 PCJ     -0.631800
      5 N           0.5120   -2.5730    3.9590 n4        1 PCJ     -0.682800
      6 CA          0.5850   -3.9380    3.3450 c3        1 PCJ      0.130500
      7 C1         -3.1510   -2.9120    3.0290 c3        1 PCJ     -0.050300
      8 C2         -3.3190   -1.4100    3.2040 c3        1 PCJ      0.149100
      9 O2         -3.6750   -1.1210    4.5710 os        1 PCJ     -0.413900
     10 C3         -4.4860   -0.8750    2.3660 c3        1 PCJ      0.136400
     11 O3         -4.2320    0.5210    2.1880 os        1 PCJ     -0.460900
     12 C11       -10.6570   19.2120    2.3180 c3        1 PCJ     -0.093100
     13 C12       -10.9610   17.7700    2.6310 c3        1 PCJ     -0.080400
     14 C13        -9.8300   16.8580    2.2050 c3        1 PCJ     -0.079400
     15 C14       -10.1400   15.4100    2.5220 c3        1 PCJ     -0.079400
     16 C15        -9.0090   14.5000    2.0950 c3        1 PCJ     -0.078400
     17 C16        -9.3190   13.0530    2.4110 c3        1 PCJ     -0.079400
     18 C17        -8.1880   12.1420    1.9850 c3        1 PCJ     -0.078400
     19 C18        -8.5000   10.6950    2.3000 c3        1 PCJ     -0.079400
     20 C19        -7.3680    9.7840    1.8720 c3        1 PCJ     -0.078400
     21 C20        -7.6810    8.3370    2.1860 c3        1 PCJ     -0.079400
     22 C21        -6.5500    7.4260    1.7580 c3        1 PCJ     -0.078400
     23 C22        -6.8650    5.9790    2.0710 c3        1 PCJ     -0.079400
     24 C23        -5.7340    5.0680    1.6420 c3        1 PCJ     -0.078400
     25 C24        -6.0560    3.6210    1.9510 c3        1 PCJ     -0.080400
     26 C25        -4.9120    2.7180    1.5360 c3        1 PCJ     -0.123400
     27 C26        -5.2790    1.2800    1.7090 c         1 PCJ      0.638100
     28 O28        -6.3360    0.6970    1.4740 o         1 PCJ     -0.519000
     29 C31        -0.9410   10.4660   20.2520 c3        1 PCJ     -0.093100
     30 C32        -0.5270   10.1170   18.8460 c3        1 PCJ     -0.079400
     31 C33        -1.2640    8.8960   18.3370 c3        1 PCJ     -0.079400
     32 C34        -0.8450    8.5490   16.9240 c3        1 PCJ     -0.079400
     33 C35        -1.5830    7.3290   16.4160 c3        1 PCJ     -0.079400
     34 C36        -1.1640    6.9820   15.0040 c3        1 PCJ     -0.078400
     35 C37        -1.9020    5.7630   14.4960 c3        1 PCJ     -0.079400
     36 C38        -1.4820    5.4160   13.0830 c3        1 PCJ     -0.078400
     37 C39        -2.2210    4.1960   12.5760 c3        1 PCJ     -0.079400
     38 C40        -1.8010    3.8490   11.1630 c3        1 PCJ     -0.078400
     39 C41        -2.5400    2.6290   10.6560 c3        1 PCJ     -0.080400
     40 C42        -2.1190    2.2830    9.2440 c3        1 PCJ     -0.078400
     41 C43        -2.8580    1.0620    8.7370 c3        1 PCJ     -0.081400
     42 C44        -2.4300    0.7160    7.3270 c3        1 PCJ     -0.075400
     43 C45        -3.1890   -0.4950    6.8230 c3        1 PCJ     -0.131400
     44 C46        -2.6840   -0.9200    5.4800 c         1 PCJ      0.683100
     45 O47        -1.5130   -1.1290    5.1230 o         1 PCJ     -0.666000
     46 C51         7.1660   16.1410    4.8060 c3        1 PCJ     -0.093100
     47 C52         7.0590   14.8730    4.0000 c3        1 PCJ     -0.080400
     48 C53         6.3830   13.7700    4.7860 c3        1 PCJ     -0.079400
     49 C54         6.2780   12.4980    3.9720 c3        1 PCJ     -0.079400
     50 C55         5.6020   11.3960    4.7590 c3        1 PCJ     -0.078400
     51 C56         5.4980   10.1240    3.9450 c3        1 PCJ     -0.079400
     52 C57         4.8230    9.0220    4.7330 c3        1 PCJ     -0.079400
     53 C58         4.7210    7.7500    3.9200 c3        1 PCJ     -0.079400
     54 C59         4.0480    6.6470    4.7090 c3        1 PCJ     -0.079400
     55 C60         3.9480    5.3740    3.8970 c3        1 PCJ     -0.079400
     56 C61         3.2770    4.2710    4.6880 c3        1 PCJ     -0.079400
     57 C62         3.1810    2.9970    3.8760 c3        1 PCJ     -0.079400
     58 C63         2.5110    1.8960    4.6710 c3        1 PCJ     -0.079400
     59 C64         2.4260    0.6210    3.8570 c3        1 PCJ     -0.081400
     60 C65         1.7400   -0.4690    4.6600 c3        1 PCJ     -0.160400
     61 C66         1.7890   -1.7740    3.9170 c         1 PCJ      0.557100
     62 O67         2.7330   -2.2540    3.3070 o         1 PCJ     -0.433100
     63 H511        7.7630   15.9690    5.7350 hc        1 PCJ      0.033700
     64 H512        7.6680   16.9400    4.2090 hc        1 PCJ      0.033700
     65 H513        6.1540   16.5060    5.1040 hc        1 PCJ      0.033700
     66 H521        6.4790   15.0720    3.0600 hc        1 PCJ      0.038700
     67 H522        8.0840   14.5360    3.6890 hc        1 PCJ      0.038700
     68 H531        5.3580   14.1050    5.0950 hc        1 PCJ      0.039700
     69 H532        6.9630   13.5690    5.7250 hc        1 PCJ      0.039700
     70 H541        5.6990   12.7000    3.0320 hc        1 PCJ      0.040200
     71 H542        7.3030   12.1650    3.6620 hc        1 PCJ      0.040200
     72 H551        6.1810   11.1960    5.6990 hc        1 PCJ      0.040200
     73 H552        4.5760   11.7300    5.0680 hc        1 PCJ      0.040200
     74 H561        4.9180   10.3250    3.0060 hc        1 PCJ      0.040200
     75 H562        6.5240    9.7910    3.6350 hc        1 PCJ      0.040200
     76 H571        5.4020    8.8230    5.6730 hc        1 PCJ      0.040200
     77 H572        3.7970    9.3550    5.0420 hc        1 PCJ      0.040200
     78 H581        5.7470    7.4180    3.6100 hc        1 PCJ      0.041200
     79 H582        4.1410    7.9490    2.9810 hc        1 PCJ      0.041200
     80 H591        3.0210    6.9790    5.0180 hc        1 PCJ      0.040700
     81 H592        4.6280    6.4500    5.6490 hc        1 PCJ      0.040700
     82 H601        4.9750    5.0440    3.5870 hc        1 PCJ      0.042700
     83 H602        3.3670    5.5710    2.9580 hc        1 PCJ      0.042700
     84 H611        2.2500    4.6010    4.9950 hc        1 PCJ      0.042200
     85 H612        3.8580    4.0770    5.6280 hc        1 PCJ      0.042200
     86 H621        4.2090    2.6690    3.5680 hc        1 PCJ      0.046700
     87 H622        2.5990    3.1920    2.9370 hc        1 PCJ      0.046700
     88 H631        3.0920    1.7060    5.6120 hc        1 PCJ      0.047700
     89 H632        1.4820    2.2220    4.9730 hc        1 PCJ      0.047700
     90 H641        3.4570    0.2850    3.5650 hc        1 PCJ      0.065700
     91 H642        1.8540    0.8130    2.9120 hc        1 PCJ      0.065700
     92 H651        0.6850   -0.1640    4.9060 hc        1 PCJ      0.109200
     93 H652        2.2860   -0.6280    5.6340 hc        1 PCJ      0.109200
     94 HN         -0.2370   -2.0350    3.4640 hn        1 PCJ      0.486800
     95 HA          1.2220   -3.8520    2.4110 hx        1 PCJ      0.128700
     96 H1          2.3500   -4.6890    4.4200 h1        1 PCJ      0.071700
     97 H2A         1.1790   -5.9740    3.8280 h1        1 PCJ      0.071700
     98 HO          0.9020   -5.6360    6.0640 ho        1 PCJ      0.447000
     99 HB1        -0.6720   -5.3420    2.3060 h1        1 PCJ      0.114200
    100 HB2        -1.3590   -4.7790    3.8800 h1        1 PCJ      0.114200
    101 H11        -4.0310   -3.3460    2.4890 h1        1 PCJ      0.101200
    102 H12        -3.0920   -3.4120    4.0260 h1        1 PCJ      0.101200
    103 H2         -2.3700   -0.8610    2.9420 h1        1 PCJ      0.086700
    104 H31        -5.4660   -1.0280    2.8900 h1        1 PCJ      0.081700
    105 H32        -4.5050   -1.3670    1.3590 h1        1 PCJ      0.081700
    106 H251       -4.6690    2.8730    0.4500 hc        1 PCJ      0.080200
    107 H252       -3.9900    2.9510    2.1320 hc        1 PCJ      0.080200
    108 H241       -6.2520    3.5020    3.0490 hc        1 PCJ      0.060200
    109 H242       -6.9910    3.3130    1.4110 hc        1 PCJ      0.060200
    110 H231       -4.7900    5.3670    2.1700 hc        1 PCJ      0.042200
    111 H232       -5.5520    5.1880    0.5410 hc        1 PCJ      0.042200
    112 H221       -7.8100    5.6770    1.5460 hc        1 PCJ      0.044700
    113 H222       -7.0460    5.8620    3.1720 hc        1 PCJ      0.044700
    114 H211       -6.3700    7.5430    0.6570 hc        1 PCJ      0.040200
    115 H212       -5.6050    7.7280    2.2820 hc        1 PCJ      0.040200
    116 H201       -7.8620    8.2210    3.2880 hc        1 PCJ      0.041200
    117 H202       -8.6260    8.0340    1.6630 hc        1 PCJ      0.041200
    118 H191       -7.1880    9.9000    0.7710 hc        1 PCJ      0.039700
    119 H192       -6.4230   10.0870    2.3960 hc        1 PCJ      0.039700
    120 H181       -8.6800   10.5800    3.4010 hc        1 PCJ      0.040700
    121 H182       -9.4450   10.3910    1.7770 hc        1 PCJ      0.040700
    122 H171       -7.2430   12.4460    2.5070 hc        1 PCJ      0.039700
    123 H172       -8.0080   12.2570    0.8830 hc        1 PCJ      0.039700
    124 H161      -10.2650   12.7480    1.8890 hc        1 PCJ      0.040200
    125 H162       -9.5000   12.9380    3.5130 hc        1 PCJ      0.040200
    126 H151       -8.8290   14.6140    0.9940 hc        1 PCJ      0.039200
    127 H152       -8.0640   14.8050    2.6180 hc        1 PCJ      0.039200
    128 H141      -10.3200   15.2960    3.6230 hc        1 PCJ      0.039700
    129 H142      -11.0850   15.1060    1.9990 hc        1 PCJ      0.039700
    130 H131       -9.6500   16.9720    1.1040 hc        1 PCJ      0.039200
    131 H132       -8.8850   17.1630    2.7270 hc        1 PCJ      0.039200
    132 H121      -11.1410   17.6530    3.7320 hc        1 PCJ      0.038700
    133 H122      -11.9060   17.4620    2.1090 hc        1 PCJ      0.038700
    134 H111      -11.5030   19.8660    2.6390 hc        1 PCJ      0.033367
    135 H112      -10.4990   19.3520    1.2210 hc        1 PCJ      0.033367
    136 H113       -9.7320   19.5440    2.8490 hc        1 PCJ      0.033367
    137 H451       -4.2880   -0.2700    6.7610 hc        1 PCJ      0.093700
    138 H452       -3.0520   -1.3620    7.5250 hc        1 PCJ      0.093700
    139 H441       -1.3280    0.5060    7.3030 hc        1 PCJ      0.052200
    140 H442       -2.6210    1.5900    6.6490 hc        1 PCJ      0.052200
    141 H431       -3.9630    1.2570    8.7590 hc        1 PCJ      0.049200
    142 H432       -2.6600    0.1930    9.4180 hc        1 PCJ      0.049200
    143 H421       -1.0130    2.0920    9.2170 hc        1 PCJ      0.040700
    144 H422       -2.3210    3.1540    8.5670 hc        1 PCJ      0.040700
    145 H411       -2.3380    1.7580   11.3340 hc        1 PCJ      0.044200
    146 H412       -3.6450    2.8210   10.6830 hc        1 PCJ      0.044200
    147 H401       -2.0040    4.7210   10.4860 hc        1 PCJ      0.040200
    148 H402       -0.6960    3.6590   11.1360 hc        1 PCJ      0.040200
    149 H391       -3.3260    4.3870   12.6040 hc        1 PCJ      0.041700
    150 H392       -2.0180    3.3250   13.2530 hc        1 PCJ      0.041700
    151 H381       -1.6850    6.2870   12.4060 hc        1 PCJ      0.039700
    152 H382       -0.3770    5.2260   13.0550 hc        1 PCJ      0.039700
    153 H371       -1.6990    4.8910   15.1730 hc        1 PCJ      0.041200
    154 H372       -3.0070    5.9530   14.5240 hc        1 PCJ      0.041200
    155 H361       -1.3670    7.8540   14.3270 hc        1 PCJ      0.039200
    156 H362       -0.0580    6.7930   14.9750 hc        1 PCJ      0.039200
    157 H351       -2.6880    7.5200   16.4450 hc        1 PCJ      0.040200
    158 H352       -1.3800    6.4580   17.0930 hc        1 PCJ      0.040200
    159 H341       -1.0470    9.4210   16.2470 hc        1 PCJ      0.039200
    160 H342        0.2610    8.3590   16.8960 hc        1 PCJ      0.039200
    161 H331       -1.0610    8.0250   19.0140 hc        1 PCJ      0.040200
    162 H332       -2.3690    9.0870   18.3650 hc        1 PCJ      0.040200
    163 H321       -0.7290   10.9860   18.1660 hc        1 PCJ      0.038700
    164 H322        0.5790    9.9250   18.8160 hc        1 PCJ      0.038700
    165 H311       -0.3860   11.3670   20.6080 hc        1 PCJ      0.033700
    166 H312       -0.7240    9.6200   20.9490 hc        1 PCJ      0.033700
    167 H313       -2.0350   10.6840   20.2980 hc        1 PCJ      0.033700
    168 H21         0.2140   -2.6590    4.9440 hn        1 PCJ      0.486800
@<TRIPOS>BOND
     1    1    2 1   
     2    1    6 1   
     3    1   99 1   
     4    1  100 1   
     5    2    7 1   
     6    3    4 1   
     7    3    6 1   
     8    3   96 1   
     9    3   97 1   
    10    4   98 1   
    11    5    6 1   
    12    5   61 1   
    13    5   94 1   
    14    5  168 1   
    15    6   95 1   
    16    7    8 1   
    17    7  101 1   
    18    7  102 1   
    19    8    9 1   
    20    8   10 1   
    21    8  103 1   
    22    9   44 1   
    23   10   11 1   
    24   10  104 1   
    25   10  105 1   
    26   11   27 1   
    27   12   13 1   
    28   12  134 1   
    29   12  135 1   
    30   12  136 1   
    31   13   14 1   
    32   13  132 1   
    33   13  133 1   
    34   14   15 1   
    35   14  130 1   
    36   14  131 1   
    37   15   16 1   
    38   15  128 1   
    39   15  129 1   
    40   16   17 1   
    41   16  126 1   
    42   16  127 1   
    43   17   18 1   
    44   17  124 1   
    45   17  125 1   
    46   18   19 1   
    47   18  122 1   
    48   18  123 1   
    49   19   20 1   
    50   19  120 1   
    51   19  121 1   
    52   20   21 1   
    53   20  118 1   
    54   20  119 1   
    55   21   22 1   
    56   21  116 1   
    57   21  117 1   
    58   22   23 1   
    59   22  114 1   
    60   22  115 1   
    61   23   24 1   
    62   23  112 1   
    63   23  113 1   
    64   24   25 1   
    65   24  110 1   
    66   24  111 1   
    67   25   26 1   
    68   25  108 1   
    69   25  109 1   
    70   26   27 1   
    71   26  106 1   
    72   26  107 1   
    73   27   28 2   
    74   29   30 1   
    75   29  165 1   
    76   29  166 1   
    77   29  167 1   
    78   30   31 1   
    79   30  163 1   
    80   30  164 1   
    81   31   32 1   
    82   31  161 1   
    83   31  162 1   
    84   32   33 1   
    85   32  159 1   
    86   32  160 1   
    87   33   34 1   
    88   33  157 1   
    89   33  158 1   
    90   34   35 1   
    91   34  155 1   
    92   34  156 1   
    93   35   36 1   
    94   35  153 1   
    95   35  154 1   
    96   36   37 1   
    97   36  151 1   
    98   36  152 1   
    99   37   38 1   
   100   37  149 1   
   101   37  150 1   
   102   38   39 1   
   103   38  147 1   
   104   38  148 1   
   105   39   40 1   
   106   39  145 1   
   107   39  146 1   
   108   40   41 1   
   109   40  143 1   
   110   40  144 1   
   111   41   42 1   
   112   41  141 1   
   113   41  142 1   
   114   42   43 1   
   115   42  139 1   
   116   42  140 1   
   117   43   44 1   
   118   43  137 1   
   119   43  138 1   
   120   44   45 2   
   121   46   47 1   
   122   46   63 1   
   123   46   64 1   
   124   46   65 1   
   125   47   48 1   
   126   47   66 1   
   127   47   67 1   
   128   48   49 1   
   129   48   68 1   
   130   48   69 1   
   131   49   50 1   
   132   49   70 1   
   133   49   71 1   
   134   50   51 1   
   135   50   72 1   
   136   50   73 1   
   137   51   52 1   
   138   51   74 1   
   139   51   75 1   
   140   52   53 1   
   141   52   76 1   
   142   52   77 1   
   143   53   54 1   
   144   53   78 1   
   145   53   79 1   
   146   54   55 1   
   147   54   80 1   
   148   54   81 1   
   149   55   56 1   
   150   55   82 1   
   151   55   83 1   
   152   56   57 1   
   153   56   84 1   
   154   56   85 1   
   155   57   58 1   
   156   57   86 1   
   157   57   87 1   
   158   58   59 1   
   159   58   88 1   
   160   58   89 1   
   161   59   60 1   
   162   59   90 1   
   163   59   91 1   
   164   60   61 1   
   165   60   92 1   
   166   60   93 1   
   167   61   62 2   
@<TRIPOS>SUBSTRUCTURE
     1 PCJ         1 TEMP              0 ****  ****    0 ROOT
