@<TRIPOS>MOLECULE
PCJ
  168   167     1     0     0
SMALL
bcc


@<TRIPOS>ATOM
      1 CB         -0.1370   -3.4750    5.2640 c3        1 PCJ     -0.059300
      2 SG         -0.0490   -2.7290    3.6630 ss        1 PCJ     -0.287200
      3 C           1.0460   -3.7510    7.4630 c3        1 PCJ      0.113400
      4 O           0.0490   -3.0590    8.1940 oh        1 PCJ     -0.628800
      5 N           1.2960   -1.6270    6.1300 n4        1 PCJ     -0.680800
      6 CA          1.1160   -3.1160    6.0590 c3        1 PCJ      0.137500
      7 C1         -1.6900   -2.1540    3.3250 c3        1 PCJ     -0.029300
      8 C2         -1.8850   -0.6810    3.6380 c3        1 PCJ      0.121100
      9 O2         -2.6620   -0.5790    4.8470 os        1 PCJ     -0.434900
     10 C3         -2.7090    0.0440    2.5600 c3        1 PCJ      0.129400
     11 O3         -2.0870    1.2730    2.1910 os        1 PCJ     -0.440900
     12 C11        -3.9210   20.4530   -1.5150 c3        1 PCJ     -0.093100
     13 C12        -4.5210   19.2670   -0.8060 c3        1 PCJ     -0.080400
     14 C13        -3.5990   18.0670   -0.8520 c3        1 PCJ     -0.079400
     15 C14        -4.2080   16.8760   -0.1430 c3        1 PCJ     -0.078400
     16 C15        -3.2730   15.6860   -0.1670 c3        1 PCJ     -0.082400
     17 C16        -3.8920   14.4860    0.5180 c3        1 PCJ     -0.078400
     18 C17        -2.9320   13.3160    0.5430 c3        1 PCJ     -0.082400
     19 C18        -3.5820   12.0800    1.1270 c3        1 PCJ     -0.078400
     20 C19        -2.6060   10.9250    1.1810 c3        1 PCJ     -0.082400
     21 C20        -3.2790    9.6560    1.6590 c3        1 PCJ     -0.078400
     22 C21        -2.2970    8.5040    1.7050 c3        1 PCJ     -0.082400
     23 C22        -2.9770    7.2140    2.1100 c3        1 PCJ     -0.078400
     24 C23        -1.9980    6.0600    2.0910 c3        1 PCJ     -0.081400
     25 C24        -2.6610    4.7680    2.5210 c3        1 PCJ     -0.078400
     26 C25        -1.6830    3.6150    2.4160 c3        1 PCJ     -0.128400
     27 C26        -2.2570    2.3670    3.0050 c         1 PCJ      0.642100
     28 O28        -2.8060    2.1900    4.0940 o         1 PCJ     -0.558000
     29 C31        -6.4730    5.7920   23.2330 c3        1 PCJ     -0.093100
     30 C32        -5.4550    5.1810   22.3060 c3        1 PCJ     -0.079400
     31 C33        -5.9980    5.0400   20.9000 c3        1 PCJ     -0.079400
     32 C34        -4.9720    4.4260   19.9720 c3        1 PCJ     -0.079400
     33 C35        -5.5170    4.2860   18.5660 c3        1 PCJ     -0.079400
     34 C36        -4.4910    3.6730   17.6380 c3        1 PCJ     -0.078400
     35 C37        -5.0360    3.5330   16.2330 c3        1 PCJ     -0.079400
     36 C38        -4.0100    2.9200   15.3040 c3        1 PCJ     -0.078400
     37 C39        -4.5550    2.7810   13.8990 c3        1 PCJ     -0.079400
     38 C40        -3.5290    2.1680   12.9700 c3        1 PCJ     -0.078400
     39 C41        -4.0750    2.0300   11.5650 c3        1 PCJ     -0.080400
     40 C42        -3.0490    1.4170   10.6360 c3        1 PCJ     -0.077400
     41 C43        -3.5970    1.2810    9.2310 c3        1 PCJ     -0.081400
     42 C44        -2.5690    0.6680    8.3040 c3        1 PCJ     -0.076400
     43 C45        -3.1290    0.5300    6.9060 c3        1 PCJ     -0.135400
     44 C46        -2.1090    0.0230    5.9410 c         1 PCJ      0.700100
     45 O47        -0.8710    0.0630    6.0070 o         1 PCJ     -0.658000
     46 C51         0.5180   16.3200    0.0500 c3        1 PCJ     -0.094100
     47 C52         0.4410   14.8470   -0.2570 c3        1 PCJ     -0.084400
     48 C53         0.9600   14.0130    0.8950 c3        1 PCJ     -0.079400
     49 C54         0.8580   12.5330    0.5970 c3        1 PCJ     -0.083400
     50 C55         1.4010   11.7060    1.7430 c3        1 PCJ     -0.079400
     51 C56         1.2720   10.2230    1.4650 c3        1 PCJ     -0.082400
     52 C57         1.8470    9.4050    2.6020 c3        1 PCJ     -0.079400
     53 C58         1.6750    7.9220    2.3570 c3        1 PCJ     -0.081400
     54 C59         2.2420    7.1100    3.5030 c3        1 PCJ     -0.080400
     55 C60         1.9970    5.6300    3.3030 c3        1 PCJ     -0.078400
     56 C61         2.5430    4.8230    4.4620 c3        1 PCJ     -0.081400
     57 C62         2.1910    3.3570    4.3220 c3        1 PCJ     -0.078400
     58 C63         2.7430    2.5530    5.4790 c3        1 PCJ     -0.077400
     59 C64         2.3080    1.1030    5.3880 c3        1 PCJ     -0.100400
     60 C65         2.8790    0.3170    6.5510 c3        1 PCJ     -0.156400
     61 C66         2.6990   -1.1680    6.4090 c         1 PCJ      0.554100
     62 O67         3.5660   -2.0240    6.5120 o         1 PCJ     -0.433100
     63 H511        1.5750   16.6320    0.2280 hc        1 PCJ      0.034367
     64 H512        0.1130   16.9160   -0.8040 hc        1 PCJ      0.034367
     65 H513       -0.0780   16.5640    0.9620 hc        1 PCJ      0.034367
     66 H521       -0.6260   14.5640   -0.4710 hc        1 PCJ      0.040700
     67 H522        1.0360   14.6210   -1.1810 hc        1 PCJ      0.040700
     68 H531        2.0280   14.2840    1.1040 hc        1 PCJ      0.039700
     69 H532        0.3710   14.2490    1.8210 hc        1 PCJ      0.039700
     70 H541        1.4260   12.2960   -0.3410 hc        1 PCJ      0.041200
     71 H542       -0.2170   12.2610    0.4120 hc        1 PCJ      0.041200
     72 H551        2.4780   11.9650    1.9160 hc        1 PCJ      0.040700
     73 H552        0.8440   11.9600    2.6830 hc        1 PCJ      0.040700
     74 H561        1.8050    9.9700    0.5110 hc        1 PCJ      0.041200
     75 H562        0.1890    9.9610    1.3200 hc        1 PCJ      0.041200
     76 H571        2.9360    9.6430    2.7240 hc        1 PCJ      0.041700
     77 H572        1.3380    9.6880    3.5620 hc        1 PCJ      0.041700
     78 H581        2.1880    7.6350    1.4020 hc        1 PCJ      0.039700
     79 H582        0.5830    7.6870    2.2310 hc        1 PCJ      0.039700
     80 H591        1.7720    7.4420    4.4660 hc        1 PCJ      0.043700
     81 H592        3.3440    7.3010    3.5900 hc        1 PCJ      0.043700
     82 H601        0.8940    5.4440    3.2020 hc        1 PCJ      0.037700
     83 H602        2.4780    5.2930    2.3480 hc        1 PCJ      0.037700
     84 H611        3.6570    4.9410    4.5100 hc        1 PCJ      0.047200
     85 H612        2.1260    5.2190    5.4260 hc        1 PCJ      0.047200
     86 H621        2.6010    2.9610    3.3560 hc        1 PCJ      0.041200
     87 H622        1.0750    3.2420    4.2820 hc        1 PCJ      0.041200
     88 H631        2.3850    2.9910    6.4490 hc        1 PCJ      0.054200
     89 H632        3.8640    2.6150    5.4780 hc        1 PCJ      0.054200
     90 H641        1.1850    1.0560    5.3980 hc        1 PCJ      0.062700
     91 H642        2.6660    0.6680    4.4170 hc        1 PCJ      0.062700
     92 H651        2.4000    0.6460    7.5140 hc        1 PCJ      0.112200
     93 H652        3.9870    0.5040    6.6380 hc        1 PCJ      0.112200
     94 HN          0.6690   -1.2490    6.8620 hn        1 PCJ      0.491800
     95 HA          2.0280   -3.5410    5.5350 hx        1 PCJ      0.127700
     96 H1          0.7870   -4.8370    7.3490 h1        1 PCJ      0.071700
     97 H2A         2.0400   -3.6510    7.9790 h1        1 PCJ      0.071700
     98 HO         -0.1130   -3.5590    9.0050 ho        1 PCJ      0.446000
     99 HB1        -0.1630   -4.5890    5.1500 h1        1 PCJ      0.110200
    100 HB2        -1.0590   -3.1690    5.8190 h1        1 PCJ      0.110200
    101 H11        -1.8120   -2.3360    2.2240 h1        1 PCJ      0.110200
    102 H12        -2.4540   -2.7680    3.8610 h1        1 PCJ      0.110200
    103 H2         -0.8910   -0.1650    3.7620 h1        1 PCJ      0.086700
    104 H31        -3.7520    0.2280    2.9320 h1        1 PCJ      0.090700
    105 H32        -2.7240   -0.5310    1.5960 h1        1 PCJ      0.090700
    106 H251       -0.7420    3.8520    2.9850 hc        1 PCJ      0.083200
    107 H252       -1.4030    3.4370    1.3430 hc        1 PCJ      0.083200
    108 H241       -3.5540    4.5660    1.8730 hc        1 PCJ      0.059700
    109 H242       -3.0270    4.8580    3.5780 hc        1 PCJ      0.059700
    110 H231       -1.1370    6.2870    2.7750 hc        1 PCJ      0.043700
    111 H232       -1.5770    5.9420    1.0570 hc        1 PCJ      0.043700
    112 H221       -3.4140    7.3240    3.1370 hc        1 PCJ      0.044700
    113 H222       -3.8270    6.9980    1.4090 hc        1 PCJ      0.044700
    114 H211       -1.8190    8.3780    0.6970 hc        1 PCJ      0.041700
    115 H212       -1.4740    8.7410    2.4310 hc        1 PCJ      0.041700
    116 H201       -3.7160    9.8200    2.6790 hc        1 PCJ      0.041700
    117 H202       -4.1280    9.3990    0.9720 hc        1 PCJ      0.041700
    118 H191       -1.7540   11.1820    1.8660 hc        1 PCJ      0.041200
    119 H192       -2.1660   10.7550    0.1620 hc        1 PCJ      0.041200
    120 H181       -3.9600   12.3030    2.1590 hc        1 PCJ      0.040700
    121 H182       -4.4710   11.7940    0.5040 hc        1 PCJ      0.040700
    122 H171       -2.0230   13.5860    1.1460 hc        1 PCJ      0.041700
    123 H172       -2.5780   13.0960   -0.5000 hc        1 PCJ      0.041700
    124 H161       -4.8320   14.1920   -0.0200 hc        1 PCJ      0.039700
    125 H162       -4.1820   14.7570    1.5670 hc        1 PCJ      0.039700
    126 H151       -2.3070   15.9560    0.3400 hc        1 PCJ      0.041200
    127 H152       -3.0220   15.4250   -1.2290 hc        1 PCJ      0.041200
    128 H141       -4.4420   17.1500    0.9190 hc        1 PCJ      0.039700
    129 H142       -5.1790   16.6020   -0.6350 hc        1 PCJ      0.039700
    130 H131       -3.3850   17.7990   -1.9210 hc        1 PCJ      0.039200
    131 H132       -2.6180   18.3280   -0.3750 hc        1 PCJ      0.039200
    132 H121       -5.5030   19.0010   -1.2800 hc        1 PCJ      0.038700
    133 H122       -4.7340   19.5340    0.2630 hc        1 PCJ      0.038700
    134 H111       -2.9540   20.7470   -1.0410 hc        1 PCJ      0.033367
    135 H112       -4.6160   21.3250   -1.4690 hc        1 PCJ      0.033367
    136 H113       -3.7260   20.2140   -2.5890 hc        1 PCJ      0.033367
    137 H451       -3.4620    1.5320    6.5050 hc        1 PCJ      0.106200
    138 H452       -4.0230   -0.1490    6.8980 hc        1 PCJ      0.106200
    139 H441       -1.6480    1.3100    8.2780 hc        1 PCJ      0.047200
    140 H442       -2.2620   -0.3390    8.6910 hc        1 PCJ      0.047200
    141 H431       -4.5190    0.6420    9.2470 hc        1 PCJ      0.049700
    142 H432       -3.8980    2.2910    8.8460 hc        1 PCJ      0.049700
    143 H421       -2.7480    0.4080   11.0230 hc        1 PCJ      0.038700
    144 H422       -2.1270    2.0560   10.6210 hc        1 PCJ      0.038700
    145 H411       -4.9980    1.3920   11.5810 hc        1 PCJ      0.044200
    146 H412       -4.3780    3.0390   11.1790 hc        1 PCJ      0.044200
    147 H401       -2.6070    2.8060   12.9550 hc        1 PCJ      0.039200
    148 H402       -3.2270    1.1590   13.3580 hc        1 PCJ      0.039200
    149 H391       -4.8580    3.7890   13.5120 hc        1 PCJ      0.042200
    150 H392       -5.4780    2.1420   13.9150 hc        1 PCJ      0.042200
    151 H381       -3.7080    1.9110   15.6920 hc        1 PCJ      0.039200
    152 H382       -3.0880    3.5580   15.2890 hc        1 PCJ      0.039200
    153 H371       -5.3390    4.5410   15.8450 hc        1 PCJ      0.040700
    154 H372       -5.9590    2.8940   16.2490 hc        1 PCJ      0.040700
    155 H361       -4.1880    2.6640   18.0260 hc        1 PCJ      0.039700
    156 H362       -3.5690    4.3110   17.6220 hc        1 PCJ      0.039700
    157 H351       -5.8200    5.2950   18.1780 hc        1 PCJ      0.040700
    158 H352       -6.4400    3.6480   18.5830 hc        1 PCJ      0.040700
    159 H341       -4.0500    5.0650   19.9560 hc        1 PCJ      0.039700
    160 H342       -4.6690    3.4180   20.3600 hc        1 PCJ      0.039700
    161 H331       -6.9210    4.4020   20.9160 hc        1 PCJ      0.039700
    162 H332       -6.3020    6.0480   20.5120 hc        1 PCJ      0.039700
    163 H321       -4.5320    5.8190   22.2870 hc        1 PCJ      0.038700
    164 H322       -5.1510    4.1720   22.6920 hc        1 PCJ      0.038700
    165 H311       -6.7700    6.8090   22.8790 hc        1 PCJ      0.034033
    166 H312       -7.3910    5.1580   23.2850 hc        1 PCJ      0.034033
    167 H313       -6.0520    5.8870   24.2630 hc        1 PCJ      0.034033
    168 H21         0.9740   -1.2180    5.2230 hn        1 PCJ      0.491800
@<TRIPOS>BOND
     1    1    2 1   
     2    1    6 1   
     3    1   99 1   
     4    1  100 1   
     5    2    7 1   
     6    3    4 1   
     7    3    6 1   
     8    3   96 1   
     9    3   97 1   
    10    4   98 1   
    11    5    6 1   
    12    5   61 1   
    13    5   94 1   
    14    5  168 1   
    15    6   95 1   
    16    7    8 1   
    17    7  101 1   
    18    7  102 1   
    19    8    9 1   
    20    8   10 1   
    21    8  103 1   
    22    9   44 1   
    23   10   11 1   
    24   10  104 1   
    25   10  105 1   
    26   11   27 1   
    27   12   13 1   
    28   12  134 1   
    29   12  135 1   
    30   12  136 1   
    31   13   14 1   
    32   13  132 1   
    33   13  133 1   
    34   14   15 1   
    35   14  130 1   
    36   14  131 1   
    37   15   16 1   
    38   15  128 1   
    39   15  129 1   
    40   16   17 1   
    41   16  126 1   
    42   16  127 1   
    43   17   18 1   
    44   17  124 1   
    45   17  125 1   
    46   18   19 1   
    47   18  122 1   
    48   18  123 1   
    49   19   20 1   
    50   19  120 1   
    51   19  121 1   
    52   20   21 1   
    53   20  118 1   
    54   20  119 1   
    55   21   22 1   
    56   21  116 1   
    57   21  117 1   
    58   22   23 1   
    59   22  114 1   
    60   22  115 1   
    61   23   24 1   
    62   23  112 1   
    63   23  113 1   
    64   24   25 1   
    65   24  110 1   
    66   24  111 1   
    67   25   26 1   
    68   25  108 1   
    69   25  109 1   
    70   26   27 1   
    71   26  106 1   
    72   26  107 1   
    73   27   28 2   
    74   29   30 1   
    75   29  165 1   
    76   29  166 1   
    77   29  167 1   
    78   30   31 1   
    79   30  163 1   
    80   30  164 1   
    81   31   32 1   
    82   31  161 1   
    83   31  162 1   
    84   32   33 1   
    85   32  159 1   
    86   32  160 1   
    87   33   34 1   
    88   33  157 1   
    89   33  158 1   
    90   34   35 1   
    91   34  155 1   
    92   34  156 1   
    93   35   36 1   
    94   35  153 1   
    95   35  154 1   
    96   36   37 1   
    97   36  151 1   
    98   36  152 1   
    99   37   38 1   
   100   37  149 1   
   101   37  150 1   
   102   38   39 1   
   103   38  147 1   
   104   38  148 1   
   105   39   40 1   
   106   39  145 1   
   107   39  146 1   
   108   40   41 1   
   109   40  143 1   
   110   40  144 1   
   111   41   42 1   
   112   41  141 1   
   113   41  142 1   
   114   42   43 1   
   115   42  139 1   
   116   42  140 1   
   117   43   44 1   
   118   43  137 1   
   119   43  138 1   
   120   44   45 2   
   121   46   47 1   
   122   46   63 1   
   123   46   64 1   
   124   46   65 1   
   125   47   48 1   
   126   47   66 1   
   127   47   67 1   
   128   48   49 1   
   129   48   68 1   
   130   48   69 1   
   131   49   50 1   
   132   49   70 1   
   133   49   71 1   
   134   50   51 1   
   135   50   72 1   
   136   50   73 1   
   137   51   52 1   
   138   51   74 1   
   139   51   75 1   
   140   52   53 1   
   141   52   76 1   
   142   52   77 1   
   143   53   54 1   
   144   53   78 1   
   145   53   79 1   
   146   54   55 1   
   147   54   80 1   
   148   54   81 1   
   149   55   56 1   
   150   55   82 1   
   151   55   83 1   
   152   56   57 1   
   153   56   84 1   
   154   56   85 1   
   155   57   58 1   
   156   57   86 1   
   157   57   87 1   
   158   58   59 1   
   159   58   88 1   
   160   58   89 1   
   161   59   60 1   
   162   59   90 1   
   163   59   91 1   
   164   60   61 1   
   165   60   92 1   
   166   60   93 1   
   167   61   62 2   
@<TRIPOS>SUBSTRUCTURE
     1 PCJ         1 TEMP              0 ****  ****    0 ROOT
