@<TRIPOS>MOLECULE
PCM
   85    87     1     0     0
SMALL
bcc


@<TRIPOS>ATOM
      1 C1         -1.9090    0.4430   11.4340 ca        1 PCM     -0.124000
      2 C2         -0.9510   -0.3880   10.8530 ca        1 PCM     -0.131500
      3 C3         -0.3230   -0.0090    9.6680 ca        1 PCM     -0.110500
      4 C4         -0.6550    1.2040    9.0550 ca        1 PCM     -0.097300
      5 C5         -1.6230    2.0320    9.6360 ca        1 PCM     -0.110500
      6 C6         -2.2430    1.6530   10.8250 ca        1 PCM     -0.131500
      7 C7          0.0260    1.6550    7.8090 c3        1 PCM      0.196700
      8 O8          0.2980    0.4810    7.0130 os        1 PCM     -0.433900
      9 C9          0.9270    0.7350    5.8140 c         1 PCM      0.733100
     10 O10         1.1700    1.9110    5.4910 o         1 PCM     -0.591000
     11 C11         1.6330   -0.3310    3.7390 c3        1 PCM      0.040700
     12 C12         2.9580   -1.0370    3.4060 c3        1 PCM     -0.078400
     13 C13         4.1540   -0.4660    4.1520 c3        1 PCM     -0.064700
     14 C14         5.4040   -1.2200    3.7420 c3        1 PCM     -0.097600
     15 C15         4.3260    1.0170    3.8990 c3        1 PCM     -0.097600
     16 C16         0.5500   -0.9920    2.8450 c         1 PCM      0.638100
     17 O17        -0.0980   -1.9820    3.2330 o         1 PCM     -0.599100
     18 N18         0.3750   -0.4580    1.5840 n         1 PCM     -0.552900
     19 C19        -0.6170   -0.9530    0.6760 c3        1 PCM     -0.010300
     20 N20         1.2790   -0.4210    5.1360 n         1 PCM     -0.513900
     21 C21        -0.0350   -1.4530   -0.6860 c3        1 PCM      0.078000
     22 C22        -1.6690    0.0910    0.2710 c         1 PCM      0.542100
     23 O23        -2.3030    0.8140    1.0280 o         1 PCM     -0.480100
     24 C24         3.2180    0.6990  -10.7790 ca        1 PCM     -0.123000
     25 C25         2.4290    1.8500  -10.7600 ca        1 PCM     -0.131500
     26 C26         1.6190    2.1260   -9.6600 ca        1 PCM     -0.111000
     27 C27         1.6030    1.2530   -8.5660 ca        1 PCM     -0.098300
     28 C28         2.3940    0.1000   -8.5870 ca        1 PCM     -0.111000
     29 C29         3.1970   -0.1760   -9.6930 ca        1 PCM     -0.131500
     30 C30         0.7650    1.5940   -7.3810 c3        1 PCM      0.196700
     31 O31         0.2620    0.3560   -6.8360 os        1 PCM     -0.433900
     32 C32        -0.5900    0.5040   -5.7640 c         1 PCM      0.728100
     33 O33        -0.7850    1.6390   -5.2970 o         1 PCM     -0.588000
     34 C34        -1.7960   -0.7720   -4.0740 c3        1 PCM      0.035700
     35 C35        -3.0430   -1.6750   -4.0620 c3        1 PCM     -0.076400
     36 C36        -4.2620   -0.9870   -4.6550 c3        1 PCM     -0.070700
     37 C37        -5.2960   -2.0240   -5.0490 c3        1 PCM     -0.093600
     38 C38        -4.8650    0.0010   -3.6770 c3        1 PCM     -0.093600
     39 O40        -0.0130   -2.2660   -3.3390 o         1 PCM     -0.601100
     40 N41        -0.8310   -0.8590   -1.7460 n         1 PCM     -0.475800
     41 C42        -1.8060    0.0810   -1.2440 c3        1 PCM     -0.021000
     42 N43        -1.1920   -0.6900   -5.3850 n         1 PCM     -0.500900
     43 H1         -2.4020    0.1440   12.3710 ha        1 PCM      0.132000
     44 H2         -0.6890   -1.3440   11.3290 ha        1 PCM      0.133000
     45 H3          0.4300   -0.6630    9.2020 ha        1 PCM      0.139000
     46 H5         -1.8940    2.9830    9.1530 ha        1 PCM      0.139000
     47 H6         -3.0000    2.3080   11.2800 ha        1 PCM      0.133000
     48 H71         1.0030    2.1590    8.0420 h1        1 PCM      0.065200
     49 H72        -0.6160    2.3520    7.2070 h1        1 PCM      0.065200
     50 H11         1.7350    0.7670    3.4730 h1        1 PCM      0.103700
     51 H121        3.1260   -0.9320    2.3020 hc        1 PCM      0.055200
     52 H122        2.8680   -2.1310    3.6370 hc        1 PCM      0.055200
     53 H13         3.9980   -0.6210    5.2570 hc        1 PCM      0.061700
     54 H141        6.2830   -0.8530    4.3240 hc        1 PCM      0.038200
     55 H142        5.2830   -2.3130    3.9340 hc        1 PCM      0.038200
     56 H143        5.6140   -1.0720    2.6550 hc        1 PCM      0.038200
     57 H151        4.3370    1.2330    2.8040 hc        1 PCM      0.038200
     58 H152        3.4960    1.5970    4.3730 hc        1 PCM      0.038200
     59 H153        5.2920    1.3700    4.3360 hc        1 PCM      0.038200
     60 HN8         0.8660    0.3640    1.3250 hn        1 PCM      0.322500
     61 H19        -1.1630   -1.8120    1.1760 h1        1 PCM      0.126700
     62 HN2         0.8680   -1.2790    5.4390 hn        1 PCM      0.339500
     63 H211        1.0400   -1.1540   -0.8240 h1        1 PCM      0.072200
     64 H212       -0.0910   -2.5750   -0.7410 h1        1 PCM      0.072200
     65 H25         2.4420    2.5400  -11.6170 ha        1 PCM      0.133500
     66 H26         0.9930    3.0300   -9.6510 ha        1 PCM      0.139000
     67 H28         2.3710   -0.5900   -7.7300 ha        1 PCM      0.139000
     68 H29         3.8160   -1.0850   -9.7070 ha        1 PCM      0.133500
     69 H301       -0.1060    2.2470   -7.6560 h1        1 PCM      0.064700
     70 H302        1.3750    2.1050   -6.5880 h1        1 PCM      0.064700
     71 H34        -2.0950    0.2790   -3.7740 h1        1 PCM      0.104700
     72 H351       -2.8300   -2.6230   -4.6240 hc        1 PCM      0.058200
     73 H352       -3.2590   -1.9610   -2.9980 hc        1 PCM      0.058200
     74 H36        -3.9510   -0.4280   -5.5830 hc        1 PCM      0.066700
     75 H371       -6.2020   -1.5240   -5.4670 hc        1 PCM      0.036700
     76 H372       -4.8820   -2.7130   -5.8240 hc        1 PCM      0.036700
     77 H373       -5.6020   -2.6290   -4.1620 hc        1 PCM      0.036700
     78 H381       -5.1860   -0.5160   -2.7410 hc        1 PCM      0.036700
     79 H382       -4.1270    0.7950   -3.4080 hc        1 PCM      0.036700
     80 H383       -5.7580    0.4940   -4.1320 hc        1 PCM      0.036700
     81 H421       -1.6030    1.1140   -1.6480 h1        1 PCM      0.085200
     82 H422       -2.8560   -0.2110   -1.5360 h1        1 PCM      0.085200
     83 HN4        -0.7680   -1.5290   -5.7240 hn        1 PCM      0.331500
     84 C39        -0.8150   -1.3630   -3.0300 c         1 PCM      0.634100
     85 H24         3.8540    0.4830  -11.6490 ha        1 PCM      0.132000
@<TRIPOS>BOND
     1    1    2 ar  
     2    1    6 ar  
     3    1   43 1   
     4    2    3 ar  
     5    2   44 1   
     6    3    4 ar  
     7    3   45 1   
     8    4    5 ar  
     9    4    7 1   
    10    5    6 ar  
    11    5   46 1   
    12    6   47 1   
    13    7    8 1   
    14    7   48 1   
    15    7   49 1   
    16    8    9 1   
    17    9   10 2   
    18    9   20 1   
    19   11   12 1   
    20   11   16 1   
    21   11   20 1   
    22   11   50 1   
    23   12   13 1   
    24   12   51 1   
    25   12   52 1   
    26   13   14 1   
    27   13   15 1   
    28   13   53 1   
    29   14   54 1   
    30   14   55 1   
    31   14   56 1   
    32   15   57 1   
    33   15   58 1   
    34   15   59 1   
    35   16   17 2   
    36   16   18 1   
    37   18   19 1   
    38   18   60 1   
    39   19   21 1   
    40   19   22 1   
    41   19   61 1   
    42   20   62 1   
    43   21   40 1   
    44   21   63 1   
    45   21   64 1   
    46   22   23 2   
    47   22   41 1   
    48   24   25 ar  
    49   24   29 ar  
    50   24   85 1   
    51   25   26 ar  
    52   25   65 1   
    53   26   27 ar  
    54   26   66 1   
    55   27   28 ar  
    56   27   30 1   
    57   28   29 ar  
    58   28   67 1   
    59   29   68 1   
    60   30   31 1   
    61   30   69 1   
    62   30   70 1   
    63   31   32 1   
    64   32   33 2   
    65   32   42 1   
    66   34   35 1   
    67   34   42 1   
    68   34   71 1   
    69   34   84 1   
    70   35   36 1   
    71   35   72 1   
    72   35   73 1   
    73   36   37 1   
    74   36   38 1   
    75   36   74 1   
    76   37   75 1   
    77   37   76 1   
    78   37   77 1   
    79   38   78 1   
    80   38   79 1   
    81   38   80 1   
    82   39   84 2   
    83   40   41 1   
    84   40   84 1   
    85   41   81 1   
    86   41   82 1   
    87   42   83 1   
@<TRIPOS>SUBSTRUCTURE
     1 PCM         1 TEMP              0 ****  ****    0 ROOT
