@<TRIPOS>MOLECULE
PCM
   85    81     1     0     0
SMALL
bcc


@<TRIPOS>ATOM
      1 C1         -3.8820   -3.7030  -10.0750 c1        1 PCM     -0.067125
      2 C2         -3.5160   -4.6670   -9.1620 c1        1 PCM     -0.067125
      3 C3         -3.3910   -4.3390   -7.8170 c1        1 PCM     -0.067125
      4 C4         -3.6360   -3.0390   -7.3930 c1        1 PCM     -0.097100
      5 C5         -4.0030   -2.0750   -8.3070 c1        1 PCM     -0.047500
      6 C6         -4.1280   -2.4030   -9.6520 c1        1 PCM     -0.067125
      7 C7         -3.4370   -2.6620   -5.9090 c3        1 PCM      0.162500
      8 O8         -2.2960   -1.7800   -5.7800 os        1 PCM     -0.426900
      9 C9         -1.7100   -1.7800   -4.4720 c         1 PCM      0.750100
     10 O10        -1.4200   -2.8330   -3.9360 o         1 PCM     -0.620000
     11 C11        -0.3120   -0.2470   -3.1340 c3        1 PCM      0.052700
     12 C12         0.8290   -0.4350   -4.1470 c3        1 PCM     -0.080400
     13 C13         2.0820   -0.9300   -3.4230 c3        1 PCM     -0.065700
     14 C14         2.1940   -2.4370   -3.5770 c3        1 PCM     -0.092600
     15 C15         3.3110   -0.2680   -4.0220 c3        1 PCM     -0.092600
     16 C16        -0.3250    1.1850   -2.6460 c         1 PCM      0.636100
     17 O17        -0.2370    2.1060   -3.4510 o         1 PCM     -0.596100
     18 N18        -0.5740    1.4740   -1.2250 n         1 PCM     -0.557900
     19 C19        -0.7130    2.8280   -0.7870 c3        1 PCM     -0.008300
     20 N20        -1.5500   -0.5480   -3.7600 n         1 PCM     -0.540900
     21 C21         0.2110    3.0980    0.0970 c3        1 PCM      0.067000
     22 C22        -2.1150    2.9850    0.0730 c         1 PCM      0.545100
     23 O23        -3.1890    3.3670   -0.3690 o         1 PCM     -0.488100
     24 C24         4.0990   -4.7680    6.8680 c1        1 PCM     -0.067125
     25 C25         3.4380   -4.6880    5.6470 c1        1 PCM     -0.067125
     26 C26         3.0400   -3.4450    5.1480 c1        1 PCM     -0.067125
     27 C27         3.3070   -2.2800    5.8780 c1        1 PCM     -0.093100
     28 C28         3.9700   -2.3610    7.1000 c1        1 PCM     -0.047500
     29 C29         4.3670   -3.6030    7.5970 c1        1 PCM     -0.067125
     30 C30         2.9790   -0.9130    5.2780 c3        1 PCM      0.160500
     31 O31         1.5980   -0.6230    5.4860 os        1 PCM     -0.443900
     32 C32         1.2300    0.7200    5.1500 c         1 PCM      0.737100
     33 O33         1.9540    1.6410    5.4580 o         1 PCM     -0.574000
     34 C34        -0.3540    2.3030    4.0520 c3        1 PCM      0.051700
     35 C35         0.0720    3.3020    5.1160 c3        1 PCM     -0.087400
     36 C36        -1.0040    4.4230    5.2390 c3        1 PCM     -0.068700
     37 C37        -0.3770    5.7880    4.8380 c3        1 PCM     -0.093100
     38 C38        -1.4910    4.4950    6.6560 c3        1 PCM     -0.093100
     39 C39         0.3860    2.5980    2.7480 c         1 PCM      0.616100
     40 O40         1.5890    2.8040    2.7640 o         1 PCM     -0.578100
     41 N41        -0.3720    2.7200    1.4770 n         1 PCM     -0.468800
     42 C42        -1.9010    2.4900    1.2860 c3        1 PCM     -0.027000
     43 N43        -0.0400    0.9830    4.4890 n         1 PCM     -0.500900
     44 H1         -3.9690   -3.9320  -11.0150 ha        1 PCM      0.077625
     45 H2         -3.3440   -5.5770   -9.4590 ha        1 PCM      0.077625
     46 H3         -3.1300   -5.0260   -7.1670 ha        1 PCM      0.077625
     47 H5         -4.1740   -1.1710   -8.0120 ha        1 PCM      0.075500
     48 H6         -4.3880   -1.7190  -10.3000 ha        1 PCM      0.077625
     49 H71        -4.2390   -2.2080   -5.5760 h1        1 PCM      0.076200
     50 H72        -3.2800   -3.4810   -5.3820 h1        1 PCM      0.076200
     51 H11        -0.1770   -0.8470   -2.3750 h1        1 PCM      0.093700
     52 H121        0.5630   -1.0900   -4.8180 hc        1 PCM      0.065700
     53 H122        1.0210    0.4180   -4.5840 hc        1 PCM      0.065700
     54 H13         2.0210   -0.7040   -2.4800 hc        1 PCM      0.059700
     55 H141        1.3860   -2.8590   -3.2380 hc        1 PCM      0.037033
     56 H142        2.9720   -2.7610   -3.0690 hc        1 PCM      0.037033
     57 H143        2.3070   -2.6600   -4.5190 hc        1 PCM      0.037033
     58 H151        3.2950   -0.3720   -5.0010 hc        1 PCM      0.037033
     59 H152        3.3120    0.6880   -3.7930 hc        1 PCM      0.037033
     60 H153        4.1230   -0.6940   -3.6580 hc        1 PCM      0.037033
     61 HN8        -0.6730    0.7860   -0.6260 hn        1 PCM      0.344500
     62 H19        -0.6610    3.3060   -1.6470 h1        1 PCM      0.121700
     63 HN2        -2.2280    0.0430   -3.7230 hn        1 PCM      0.339500
     64 H211        1.0200    2.5640   -0.0860 h1        1 PCM      0.075200
     65 H212        0.4260    4.0540    0.0740 h1        1 PCM      0.075200
     66 H24         4.3840   -5.6550    7.2250 ha        1 PCM      0.077625
     67 H25         3.2490   -5.5120    5.1320 ha        1 PCM      0.077625
     68 H26         2.5700   -3.3880    4.2800 ha        1 PCM      0.077625
     69 H28         4.1610   -1.5270    7.6230 ha        1 PCM      0.098500
     70 H29         4.8340   -3.6600    8.4600 ha        1 PCM      0.077625
     71 H301        3.5250   -0.2280    5.7100 h1        1 PCM      0.075200
     72 H302        3.1700   -0.9240    4.3160 h1        1 PCM      0.075200
     73 H34        -1.3260    2.3780    3.9010 h1        1 PCM      0.072700
     74 H351        0.9230    3.6970    4.8660 hc        1 PCM      0.084700
     75 H352        0.1650    2.8410    5.9780 hc        1 PCM      0.084700
     76 H36        -1.7500    4.2230    4.6480 hc        1 PCM      0.037700
     77 H371       -1.0640    6.4990    4.9010 hc        1 PCM      0.037867
     78 H372       -0.0460    5.7370    3.9250 hc        1 PCM      0.037867
     79 H373        0.3680    5.9980    5.4450 hc        1 PCM      0.037867
     80 H381       -0.7280    4.6110    7.2590 hc        1 PCM      0.037867
     81 H382       -2.1010    5.2550    6.7530 hc        1 PCM      0.037867
     82 H383       -1.9630    3.6670    6.8820 hc        1 PCM      0.037867
     83 H421       -2.4100    2.8820    2.0220 h1        1 PCM      0.080700
     84 H422       -2.1710    1.5520    1.3290 h1        1 PCM      0.080700
     85 HN4        -0.6540    0.3140    4.3970 hn        1 PCM      0.316500
@<TRIPOS>BOND
     1    1    6 3   
     2    1   44 1   
     3    2    3 3   
     4    2   45 1   
     5    3   46 1   
     6    4    5 3   
     7    4    7 1   
     8    5   47 1   
     9    6   48 1   
    10    7    8 1   
    11    7   49 1   
    12    7   50 1   
    13    8    9 1   
    14    9   10 2   
    15    9   20 1   
    16   11   12 1   
    17   11   16 1   
    18   11   20 1   
    19   11   51 1   
    20   12   13 1   
    21   12   52 1   
    22   12   53 1   
    23   13   14 1   
    24   13   15 1   
    25   13   54 1   
    26   14   55 1   
    27   14   56 1   
    28   14   57 1   
    29   15   58 1   
    30   15   59 1   
    31   15   60 1   
    32   16   17 2   
    33   16   18 1   
    34   18   19 1   
    35   18   61 1   
    36   19   21 1   
    37   19   22 1   
    38   19   62 1   
    39   20   63 1   
    40   21   41 1   
    41   21   64 1   
    42   21   65 1   
    43   22   23 2   
    44   22   42 1   
    45   24   29 3   
    46   24   66 1   
    47   25   26 3   
    48   25   67 1   
    49   26   68 1   
    50   27   28 3   
    51   27   30 1   
    52   28   69 1   
    53   29   70 1   
    54   30   31 1   
    55   30   71 1   
    56   30   72 1   
    57   31   32 1   
    58   32   33 2   
    59   32   43 1   
    60   34   35 1   
    61   34   39 1   
    62   34   43 1   
    63   34   73 1   
    64   35   36 1   
    65   35   74 1   
    66   35   75 1   
    67   36   37 1   
    68   36   38 1   
    69   36   76 1   
    70   37   77 1   
    71   37   78 1   
    72   37   79 1   
    73   38   80 1   
    74   38   81 1   
    75   38   82 1   
    76   39   40 2   
    77   39   41 1   
    78   41   42 1   
    79   42   83 1   
    80   42   84 1   
    81   43   85 1   
@<TRIPOS>SUBSTRUCTURE
     1 PCM         1 TEMP              0 ****  ****    0 ROOT
