@<TRIPOS>MOLECULE
PCN
   44    45     1     0     0
SMALL
bcc


@<TRIPOS>ATOM
      1 O1         -0.5600   -2.8000   -2.0470 o         1 PCN     -0.545100
      2 C1         -1.0770   -2.6070   -0.9470 c         1 PCN      0.578900
      3 C2         -0.4490   -1.7940    0.1770 c3        1 PCN     -0.010300
      4 C3         -1.4310   -0.6850    0.6760 c3        1 PCN      0.297600
      5 S4         -1.5520    0.6410   -0.5780 ss        1 PCN     -0.521200
      6 C5         -3.3650    0.5130   -0.7370 c3        1 PCN      0.098100
      7 C51        -3.7430    0.4150   -2.1930 c3        1 PCN     -0.083600
      8 C52        -3.9750    1.7390   -0.1030 c3        1 PCN     -0.083600
      9 C6         -3.7490   -0.7850    0.0140 c3        1 PCN      0.018500
     10 C61        -5.1810   -0.6060    0.6510 c         1 PCN      0.927600
     11 O62        -5.2500   -0.2990    1.8700 o         1 PCN     -0.819800
     12 O63        -6.1520   -0.7720   -0.1310 o         1 PCN     -0.819800
     13 N7         -2.7450   -1.1890    0.9860 n3        1 PCN     -0.802200
     14 N8          0.8370   -1.2370   -0.1730 n         1 PCN     -0.526900
     15 C9          1.9230   -1.3020    0.6660 c         1 PCN      0.582800
     16 O91         1.9780   -2.0300    1.6750 o         1 PCN     -0.596100
     17 C10         3.1120   -0.4460    0.2650 ce        1 PCN      0.297300
     18 N11         4.3170   -0.8790    0.0000 n2        1 PCN     -0.410200
     19 O12         4.4820   -2.1880    0.0200 os        1 PCN     -0.161300
     20 C13         5.8440   -2.6070   -0.2200 c3        1 PCN      0.131700
     21 C14         2.8310    0.9980    0.2070 cc        1 PCN      0.325000
     22 C15         3.5320    1.9230   -0.5560 cd        1 PCN     -0.229400
     23 S16         2.8680    3.4480   -0.4140 ss        1 PCN     -0.130300
     24 C17         1.6280    2.8280    0.6660 cd        1 PCN      0.620300
     25 N18         1.7420    1.5130    0.9110 nc        1 PCN     -0.660000
     26 N19         0.7080    3.7140    1.2390 nh        1 PCN     -0.878500
     27 HC1        -2.0600   -3.0540   -0.6760 h4        1 PCN      0.033200
     28 HC2        -0.2970   -2.5150    1.0420 h1        1 PCN      0.107700
     29 HC3        -0.9500   -0.2180    1.5810 h2        1 PCN      0.074700
     30 H511       -4.8320    0.1550   -2.2620 hc        1 PCN      0.045700
     31 H512       -3.5660    1.3860   -2.7150 hc        1 PCN      0.045700
     32 H513       -3.1510   -0.3800   -2.7070 hc        1 PCN      0.045700
     33 H521       -3.7990    1.7350    1.0000 hc        1 PCN      0.045700
     34 H522       -3.5440    2.6690   -0.5460 hc        1 PCN      0.045700
     35 H523       -5.0830    1.7320   -0.2720 hc        1 PCN      0.045700
     36 HC6        -3.8260   -1.6180   -0.7430 h1        1 PCN      0.059700
     37 HN7        -3.0380   -0.9030    1.9080 hn        1 PCN      0.403800
     38 HN8         0.8270   -0.5690   -0.9110 hn        1 PCN      0.330500
     39 H131        6.5240   -2.2160    0.5730 h1        1 PCN      0.045367
     40 H132        5.7570   -3.7200   -0.1630 h1        1 PCN      0.045367
     41 H133        6.1880   -2.2820   -1.2300 h1        1 PCN      0.045367
     42 H15         4.3960    1.6950   -1.1770 h4        1 PCN      0.187000
     43 H191        0.1080    4.1100    0.5400 hn        1 PCN      0.396800
     44 H192        0.1610    3.2900    1.9680 hn        1 PCN      0.396800
@<TRIPOS>BOND
     1    1    2 2   
     2    2    3 1   
     3    2   27 1   
     4    3    4 1   
     5    3   14 1   
     6    3   28 1   
     7    4    5 1   
     8    4   13 1   
     9    4   29 1   
    10    5    6 1   
    11    6    7 1   
    12    6    8 1   
    13    6    9 1   
    14    7   30 1   
    15    7   31 1   
    16    7   32 1   
    17    8   33 1   
    18    8   34 1   
    19    8   35 1   
    20    9   10 1   
    21    9   13 1   
    22    9   36 1   
    23   10   11 1   
    24   10   12 1   
    25   13   37 1   
    26   14   15 1   
    27   14   38 1   
    28   15   16 2   
    29   15   17 1   
    30   17   18 2   
    31   17   21 1   
    32   18   19 1   
    33   19   20 1   
    34   20   39 1   
    35   20   40 1   
    36   20   41 1   
    37   21   22 2   
    38   21   25 1   
    39   22   23 1   
    40   22   42 1   
    41   23   24 1   
    42   24   25 2   
    43   24   26 1   
    44   26   43 1   
    45   26   44 1   
@<TRIPOS>SUBSTRUCTURE
     1 PCN         1 TEMP              0 ****  ****    0 ROOT
