@<TRIPOS>MOLECULE
PCN
   46    47     1     0     0
SMALL
bcc


@<TRIPOS>ATOM
      1 O1          0.4790    0.5790   -0.7450 o         1 PCN     -0.497100
      2 C1          1.5340    0.1440   -0.2940 c         1 PCN      0.585900
      3 C2          1.7610    0.0160    1.2190 c3        1 PCN      0.001500
      4 C3          2.3230   -1.3860    1.5530 c3        1 PCN      0.229600
      5 S4          1.2810   -2.6550    0.7990 ss        1 PCN     -0.343200
      6 C5          2.6740   -3.6460    0.1630 c3        1 PCN      0.092100
      7 C51         2.6980   -3.5510   -1.3440 c3        1 PCN     -0.100600
      8 C52         2.4910   -5.0740    0.6100 c3        1 PCN     -0.100600
      9 C6          3.9340   -2.9740    0.7680 c3        1 PCN      0.122500
     10 C61         4.3940   -3.7280    2.0130 c         1 PCN      0.618100
     11 O62         5.2340   -4.7560    1.7580 oh        1 PCN     -0.576100
     12 O63         4.1190   -3.4770    3.1930 o         1 PCN     -0.580000
     13 N7          3.6720   -1.5630    1.0330 n3        1 PCN     -0.803200
     14 N8          0.5140    0.2960    2.0090 n4        1 PCN     -0.663800
     15 C9          0.6500    1.4070    3.0290 c         1 PCN      0.482800
     16 O91         1.4280    2.3120    2.7960 o         1 PCN     -0.392100
     17 C10        -0.2210    1.2220    4.2380 ce        1 PCN      0.263300
     18 N11        -1.3570    1.8390    4.4440 n2        1 PCN     -0.315200
     19 O12        -1.7770    2.6160    3.4810 os        1 PCN     -0.198300
     20 C13        -2.9890    3.3690    3.7890 c3        1 PCN      0.134700
     21 C14         0.3570    0.3010    5.2230 cc        1 PCN      0.299000
     22 C15         0.0630    0.2860    6.5770 cd        1 PCN     -0.202400
     23 S16         0.9620   -0.8750    7.3670 ss        1 PCN     -0.047300
     24 C17         1.7330   -1.3510    5.8590 cd        1 PCN      0.690300
     25 N18         1.2970   -0.6370    4.7930 nc        1 PCN     -0.809000
     26 N19         2.7330   -2.2840    5.8280 nh        1 PCN     -0.926500
     27 HC1         2.4080   -0.1600   -0.9060 h4        1 PCN      0.082200
     28 HC2         2.5320    0.8040    1.4980 hx        1 PCN      0.146700
     29 HC3         2.2990   -1.5460    2.6710 h2        1 PCN      0.110700
     30 H511        2.8870   -2.5010   -1.6760 hc        1 PCN      0.066200
     31 H512        1.7200   -3.8900   -1.7670 hc        1 PCN      0.066200
     32 H513        3.5050   -4.2070   -1.7570 hc        1 PCN      0.066200
     33 H521        1.6020   -5.5250    0.1040 hc        1 PCN      0.066200
     34 H522        3.3960   -5.6760    0.3410 hc        1 PCN      0.066200
     35 H523        2.3380   -5.1340    1.7160 hc        1 PCN      0.066200
     36 HC6         4.7790   -3.0150    0.0130 h1        1 PCN      0.137700
     37 HN7         4.3590   -1.1680    1.6510 hn        1 PCN      0.406800
     38 HN8        -0.2300    0.5740    1.3430 hn        1 PCN      0.480300
     39 H131       -3.1470    3.9280    2.8330 h1        1 PCN      0.074367
     40 H132       -3.8330    2.6710    4.0030 h1        1 PCN      0.074367
     41 H133       -2.8040    4.0610    4.6430 h1        1 PCN      0.074367
     42 H15        -0.6530    0.9400    7.0780 h4        1 PCN      0.207000
     43 H191        3.0960   -2.5810    4.9480 hn        1 PCN      0.450300
     44 H192        5.5060   -5.1840    2.5910 ho        1 PCN      0.464000
     45 H82         0.2100   -0.5620    2.4900 hn        1 PCN      0.480300
     46 H193        2.7670   -2.9380    6.5740 hn        1 PCN      0.450300
@<TRIPOS>BOND
     1    1    2 2   
     2    2    3 1   
     3    2   27 1   
     4    3    4 1   
     5    3   14 1   
     6    3   28 1   
     7    4    5 1   
     8    4   13 1   
     9    4   29 1   
    10    5    6 1   
    11    6    7 1   
    12    6    8 1   
    13    6    9 1   
    14    7   30 1   
    15    7   31 1   
    16    7   32 1   
    17    8   33 1   
    18    8   34 1   
    19    8   35 1   
    20    9   10 1   
    21    9   13 1   
    22    9   36 1   
    23   10   11 1   
    24   10   12 2   
    25   11   44 1   
    26   13   37 1   
    27   14   15 1   
    28   14   38 1   
    29   14   45 1   
    30   15   16 2   
    31   15   17 1   
    32   17   18 2   
    33   17   21 1   
    34   18   19 1   
    35   19   20 1   
    36   20   39 1   
    37   20   40 1   
    38   20   41 1   
    39   21   22 2   
    40   21   25 1   
    41   22   23 1   
    42   22   42 1   
    43   23   24 1   
    44   24   25 2   
    45   24   26 1   
    46   26   43 1   
    47   26   46 1   
@<TRIPOS>SUBSTRUCTURE
     1 PCN         1 TEMP              0 ****  ****    0 ROOT
