@<TRIPOS>MOLECULE
PCN
   45    46     1     0     0
SMALL
bcc


@<TRIPOS>ATOM
      1 O1          1.0610    1.0040   -0.7660 o         1 PCN     -0.538100
      2 C1          2.0290    0.4420   -0.2540 c         1 PCN      0.594900
      3 C2          2.0830    0.1560    1.2480 c3        1 PCN      0.006500
      4 C3          2.5790   -1.2850    1.4830 c3        1 PCN      0.233600
      5 S4          1.5860   -2.3980    0.4570 ss        1 PCN     -0.461200
      6 C5          3.0060   -3.5200    0.0940 c3        1 PCN      0.143100
      7 C51         3.2800   -3.4470   -1.3880 c3        1 PCN     -0.091100
      8 C52         2.6310   -4.9160    0.5130 c3        1 PCN     -0.091100
      9 C6          4.1720   -2.9300    0.9160 c3        1 PCN      0.005500
     10 C61         4.3480   -3.6800    2.2860 c         1 PCN      0.910600
     11 O62         4.9200   -4.7920    2.2750 o         1 PCN     -0.825300
     12 O63         3.9240   -3.0870    3.3270 o         1 PCN     -0.825300
     13 N7          3.9720   -1.4790    1.0900 n3        1 PCN     -0.782200
     14 N8          0.7460    0.3550    1.9140 n4        1 PCN     -0.657800
     15 C9          0.7550    1.3300    3.0570 c         1 PCN      0.474800
     16 O91         1.5510    2.2550    3.0340 o         1 PCN     -0.413100
     17 C10        -0.2500    1.0510    4.1420 ce        1 PCN      0.283300
     18 N11        -1.3470    1.7350    4.3360 n2        1 PCN     -0.340200
     19 O12        -1.5960    2.6880    3.4700 os        1 PCN     -0.198300
     20 C13        -2.7830    3.4750    3.7670 c3        1 PCN      0.134700
     21 C14         0.1430   -0.0510    5.0290 cc        1 PCN      0.301000
     22 C15        -0.1160   -0.1300    6.3860 cd        1 PCN     -0.209400
     23 S16         0.5490   -1.5220    7.0330 ss        1 PCN     -0.132300
     24 C17         1.1800   -2.0020    5.4470 cd        1 PCN      0.729300
     25 N18         0.8780   -1.1020    4.4820 nc        1 PCN     -0.802000
     26 N19         1.7860   -3.2100    5.2550 nh        1 PCN     -0.888500
     27 HC1         2.9390    0.1220   -0.8050 h4        1 PCN      0.087200
     28 HC2         2.8190    0.8890    1.7040 hx        1 PCN      0.137700
     29 HC3         2.4360   -1.5870    2.5650 h2        1 PCN      0.135700
     30 H511        4.1060   -4.1540   -1.6510 hc        1 PCN      0.053200
     31 H512        3.5880   -2.4160   -1.6850 hc        1 PCN      0.053200
     32 H513        2.3710   -3.7330   -1.9700 hc        1 PCN      0.053200
     33 H521        2.2640   -4.9270    1.5690 hc        1 PCN      0.053200
     34 H522        1.8380   -5.3270   -0.1570 hc        1 PCN      0.053200
     35 H523        3.5380   -5.5740    0.4660 hc        1 PCN      0.053200
     36 HC6         5.1310   -3.0550    0.3370 h1        1 PCN      0.095700
     37 HN7         4.5690   -1.1720    1.8440 hn        1 PCN      0.383800
     38 HN8         0.0850    0.7100    1.2040 hn        1 PCN      0.485300
     39 H131       -3.6890    2.8260    3.7720 h1        1 PCN      0.065700
     40 H132       -2.7960    4.1910    2.9070 h1        1 PCN      0.065700
     41 H133       -2.6600    4.0070    4.7390 h1        1 PCN      0.065700
     42 H15        -0.6680    0.6030    6.9720 h4        1 PCN      0.192000
     43 H191        2.2490   -3.3720    4.3680 hn        1 PCN      0.460300
     44 H192        2.2780   -3.5750    6.0400 hn        1 PCN      0.460300
     45 H82         0.4040   -0.5640    2.2490 hn        1 PCN      0.485300
@<TRIPOS>BOND
     1    1    2 2   
     2    2    3 1   
     3    2   27 1   
     4    3    4 1   
     5    3   14 1   
     6    3   28 1   
     7    4    5 1   
     8    4   13 1   
     9    4   29 1   
    10    5    6 1   
    11    6    7 1   
    12    6    8 1   
    13    6    9 1   
    14    7   30 1   
    15    7   31 1   
    16    7   32 1   
    17    8   33 1   
    18    8   34 1   
    19    8   35 1   
    20    9   10 1   
    21    9   13 1   
    22    9   36 1   
    23   10   11 1   
    24   10   12 1   
    25   13   37 1   
    26   14   15 1   
    27   14   38 1   
    28   14   45 1   
    29   15   16 2   
    30   15   17 1   
    31   17   18 2   
    32   17   21 1   
    33   18   19 1   
    34   19   20 1   
    35   20   39 1   
    36   20   40 1   
    37   20   41 1   
    38   21   22 2   
    39   21   25 1   
    40   22   23 1   
    41   22   42 1   
    42   23   24 1   
    43   24   25 2   
    44   24   26 1   
    45   26   43 1   
    46   26   44 1   
@<TRIPOS>SUBSTRUCTURE
     1 PCN         1 TEMP              0 ****  ****    0 ROOT
