@<TRIPOS>MOLECULE
PCN
   45    46     1     0     0
SMALL
bcc


@<TRIPOS>ATOM
      1 O1          0.9610    0.9010   -0.8160 o         1 PCN     -0.538100
      2 C1          1.9470    0.3630   -0.3130 c         1 PCN      0.594900
      3 C2          2.0430    0.1250    1.1960 c3        1 PCN      0.006500
      4 C3          2.5570   -1.3030    1.4620 c3        1 PCN      0.233600
      5 S4          1.5490   -2.4550    0.4960 ss        1 PCN     -0.461200
      6 C5          2.9700   -3.5770    0.1310 c3        1 PCN      0.143100
      7 C51         3.2050   -3.5470   -1.3580 c3        1 PCN     -0.091100
      8 C52         2.6180   -4.9620    0.6030 c3        1 PCN     -0.091100
      9 C6          4.1510   -2.9520    0.9050 c3        1 PCN      0.005500
     10 C61         4.3680   -3.6580    2.2920 c         1 PCN      0.910600
     11 O62         4.9500   -4.7650    2.3010 o         1 PCN     -0.825300
     12 O63         3.9650   -3.0370    3.3250 o         1 PCN     -0.825300
     13 N7          3.9420   -1.4980    1.0390 n7        1 PCN     -0.782200
     14 N8          0.7230    0.3350    1.8910 ny        1 PCN     -0.657800
     15 C9          0.7540    1.3450    3.0010 c         1 PCN      0.474800
     16 O91         1.5400    2.2760    2.9280 o         1 PCN     -0.413100
     17 C10        -0.2190    1.0930    4.1220 ce        1 PCN      0.283300
     18 N11        -1.3170    1.7750    4.3240 n2        1 PCN     -0.340200
     19 O12        -1.5970    2.6990    3.4360 os        1 PCN     -0.198300
     20 C13        -2.7810    3.4860    3.7400 c3        1 PCN      0.134700
     21 C14         0.2070    0.0230    5.0310 cc        1 PCN      0.301000
     22 C15        -0.0150   -0.0150    6.3970 cd        1 PCN     -0.209400
     23 S16         0.6780   -1.3810    7.0690 ss        1 PCN     -0.132300
     24 C17         1.2690   -1.9070    5.4830 cd        1 PCN      0.729300
     25 N18         0.9340   -1.0400    4.4980 nc        1 PCN     -0.802000
     26 N19         1.8790   -3.1160    5.3110 nv        1 PCN     -0.888500
     27 HC1         2.8440    0.0330   -0.8780 h4        1 PCN      0.087200
     28 HC2         2.7840    0.8780    1.6090 hx        1 PCN      0.137700
     29 HC3         2.4450   -1.5730    2.5560 h2        1 PCN      0.135700
     30 H511        2.2850   -3.8590   -1.9080 hc        1 PCN      0.053200
     31 H512        3.4960   -2.5230   -1.6950 hc        1 PCN      0.053200
     32 H513        4.0310   -4.2550   -1.6210 hc        1 PCN      0.053200
     33 H521        3.5290   -5.6140    0.5530 hc        1 PCN      0.053200
     34 H522        1.8120   -5.4000   -0.0340 hc        1 PCN      0.053200
     35 H523        2.2780   -4.9440    1.6670 hc        1 PCN      0.053200
     36 HC6         5.0960   -3.0870    0.3060 h1        1 PCN      0.095700
     37 HN7         4.5550   -1.1630    1.7690 hn        1 PCN      0.383800
     38 HN8         0.3980   -0.5750    2.2640 hn        1 PCN      0.485300
     39 H131       -2.8220    4.1760    2.8600 h1        1 PCN      0.065700
     40 H132       -2.6370    4.0490    4.6920 h1        1 PCN      0.065700
     41 H133       -3.6820    2.8310    3.7900 h1        1 PCN      0.065700
     42 H15        -0.5560    0.7320    6.9740 h4        1 PCN      0.192000
     43 H191        2.3190   -3.3020    4.4180 hn        1 PCN      0.460300
     44 H192        2.3960   -3.4520    6.0940 hn        1 PCN      0.460300
     45 H82         0.0400    0.6620    1.1870 hn        1 PCN      0.485300
@<TRIPOS>BOND
     1    1    2 2   
     2    2    3 1   
     3    2   27 1   
     4    3    4 1   
     5    3   14 1   
     6    3   28 1   
     7    4    5 1   
     8    4   13 1   
     9    4   29 1   
    10    5    6 1   
    11    6    7 1   
    12    6    8 1   
    13    6    9 1   
    14    7   30 1   
    15    7   31 1   
    16    7   32 1   
    17    8   33 1   
    18    8   34 1   
    19    8   35 1   
    20    9   10 1   
    21    9   13 1   
    22    9   36 1   
    23   10   11 1   
    24   10   12 1   
    25   13   37 1   
    26   14   15 1   
    27   14   38 1   
    28   14   45 1   
    29   15   16 2   
    30   15   17 1   
    31   17   18 2   
    32   17   21 1   
    33   18   19 1   
    34   19   20 1   
    35   20   39 1   
    36   20   40 1   
    37   20   41 1   
    38   21   22 2   
    39   21   25 1   
    40   22   23 1   
    41   22   42 1   
    42   23   24 1   
    43   24   25 2   
    44   24   26 1   
    45   26   43 1   
    46   26   44 1   
@<TRIPOS>SUBSTRUCTURE
     1 PCN         1 TEMP              0 ****  ****    0 ROOT
