@<TRIPOS>MOLECULE
PCO
   40    39     1     0     0
SMALL
bcc


@<TRIPOS>ATOM
      1 C23         0.2040    0.9760    0.2730 c2        1 PCO     -0.232000
      2 N19         1.2240    0.5810   -0.6850 ny        1 PCO     -0.524600
      3 C17         2.3820   -0.1220   -0.0180 c         1 PCO      0.541100
      4 C16         3.2320    0.6980    0.9130 c3        1 PCO     -0.174400
      5 C15         4.4050   -0.1640    1.3890 c3        1 PCO      0.099800
      6 N14         5.3110    0.5370    2.3290 ny        1 PCO     -0.676800
      7 C12         6.5710   -0.2670    2.6620 c         1 PCO      0.578100
      8 C10         7.3110    0.1260    3.9390 c3        1 PCO      0.106100
      9 C7          8.5850    0.9420    3.6160 c3        1 PCO     -0.109000
     10 C6          8.2380    2.1840    2.7850 c3        1 PCO      0.119400
     11 O5          7.6710    1.8210    1.5360 oh        1 PCO     -0.676800
     12 C8          9.5790    0.0630    2.8750 c3        1 PCO     -0.113600
     13 C9          9.2050    1.4010    4.9300 c3        1 PCO     -0.113600
     14 O11         6.3970    0.8430    4.7510 oh        1 PCO     -0.641800
     15 O13         6.8710   -1.1480    1.8790 o         1 PCO     -0.402100
     16 O18         2.5300   -1.3020   -0.2950 o         1 PCO     -0.380100
     17 C24        -1.0080    0.3780    0.3850 c2        1 PCO     -0.000400
     18 S25        -1.5260   -0.9290   -0.4730 sh        1 PCO     -0.104400
     19 HC23        0.4850    1.8600    0.8720 hx        1 PCO      0.197000
     20 HN19        0.8180   -0.0560   -1.3950 hn        1 PCO      0.475300
     21 H161        3.6040    1.6170    0.3800 hc        1 PCO      0.117700
     22 H162        2.5950    1.0310    1.7810 hc        1 PCO      0.117700
     23 H151        5.0160   -0.5030    0.4960 hx        1 PCO      0.136200
     24 H152        4.0160   -1.0940    1.9010 hx        1 PCO      0.136200
     25 HN14        5.6400    1.4290    1.9210 hn        1 PCO      0.481800
     26 HC10        7.6050   -0.8470    4.4400 h1        1 PCO      0.123700
     27 HC61        7.4420    2.7860    3.3040 h1        1 PCO      0.080700
     28 HC62        9.1540    2.8160    2.6440 h1        1 PCO      0.080700
     29 HO5         8.3930    1.6630    0.9130 ho        1 PCO      0.449000
     30 HC81        9.1350   -0.3360    1.9310 hc        1 PCO      0.066700
     31 HC82        9.8950   -0.7980    3.5140 hc        1 PCO      0.066700
     32 HC83       10.4900    0.6570    2.6170 hc        1 PCO      0.066700
     33 HC91       10.2160    1.8390    4.7360 hc        1 PCO      0.066700
     34 HC92        9.3290    0.5380    5.6280 hc        1 PCO      0.066700
     35 HC93        8.5760    2.1850    5.4180 hc        1 PCO      0.066700
     36 HO11        6.8120    0.9730    5.6190 ho        1 PCO      0.477000
     37 HC24       -1.6810    0.8490    1.1350 h4        1 PCO      0.209000
     38 HS25       -2.7870   -1.0410   -0.0350 hs        1 PCO      0.266800
     39 H192        1.5660    1.4250   -1.1650 hn        1 PCO      0.475300
     40 H142        4.8280    0.7470    3.2130 hn        1 PCO      0.481800
@<TRIPOS>BOND
     1    1    2 1   
     2    1   17 2   
     3    1   19 1   
     4    2    3 1   
     5    2   20 1   
     6    2   39 1   
     7    3    4 1   
     8    3   16 2   
     9    4    5 1   
    10    4   21 1   
    11    4   22 1   
    12    5    6 1   
    13    5   23 1   
    14    5   24 1   
    15    6    7 1   
    16    6   25 1   
    17    6   40 1   
    18    7    8 1   
    19    7   15 2   
    20    8    9 1   
    21    8   14 1   
    22    8   26 1   
    23    9   10 1   
    24    9   12 1   
    25    9   13 1   
    26   10   11 1   
    27   10   27 1   
    28   10   28 1   
    29   11   29 1   
    30   12   30 1   
    31   12   31 1   
    32   12   32 1   
    33   13   33 1   
    34   13   34 1   
    35   13   35 1   
    36   14   36 1   
    37   17   18 1   
    38   17   37 1   
    39   18   38 1   
@<TRIPOS>SUBSTRUCTURE
     1 PCO         1 TEMP              0 ****  ****    0 ROOT
