@<TRIPOS>MOLECULE
PCO
   38    37     1     0     0
SMALL
bcc


@<TRIPOS>ATOM
      1 C23         0.2760   -0.0760   -4.6790 c2        1 PCO      0.018600
      2 N19         0.1650   -0.0140   -3.2950 n         1 PCO     -0.482100
      3 C17        -0.0070    1.1850   -2.6110 c         1 PCO      0.664100
      4 C16        -0.1710    1.1030   -1.1070 c3        1 PCO     -0.188400
      5 C15         1.1560    0.7100   -0.4490 c3        1 PCO      0.090000
      6 N14         1.1350    0.7390    0.9860 n         1 PCO     -0.551900
      7 C12         0.7400   -0.3520    1.7320 c         1 PCO      0.625100
      8 C10         0.6840   -0.2070    3.2610 c3        1 PCO      0.083100
      9 C7         -0.7250    0.2000    3.7440 c3        1 PCO     -0.076000
     10 C6         -1.7150   -0.9360    3.4550 c3        1 PCO      0.125400
     11 O5         -3.0220   -0.4630    3.7430 oh        1 PCO     -0.599800
     12 C8         -1.1750    1.4720    3.0470 c3        1 PCO     -0.089100
     13 C9         -0.6600    0.4400    5.2460 c3        1 PCO     -0.089100
     14 O11         1.1120   -1.4180    3.8490 oh        1 PCO     -0.580800
     15 O13         0.4940   -1.4570    1.2060 o         1 PCO     -0.617100
     16 O18        -0.0210    2.2760   -3.2080 o         1 PCO     -0.586100
     17 C24         0.4520   -1.2130   -5.3850 c2        1 PCO     -0.180400
     18 S25         0.6550   -2.7360   -4.6820 sh        1 PCO     -0.305400
     19 HC23        0.2240    0.9120   -5.1830 h4        1 PCO      0.174000
     20 HN19        0.1370   -0.8710   -2.7850 hn        1 PCO      0.333500
     21 H161       -0.9700    0.3620   -0.8410 hc        1 PCO      0.080700
     22 H162       -0.5050    2.1140   -0.7510 hc        1 PCO      0.080700
     23 H151        1.9590    1.4220   -0.7970 h1        1 PCO      0.073700
     24 H152        1.4350   -0.3330   -0.7750 h1        1 PCO      0.073700
     25 HN14        1.1380    1.6310    1.4230 hn        1 PCO      0.313500
     26 HC10        1.4310    0.5550    3.6270 h1        1 PCO      0.091700
     27 HC61       -1.6480   -1.2410    2.3750 h1        1 PCO      0.035700
     28 HC62       -1.4750   -1.8200    4.1060 h1        1 PCO      0.035700
     29 HO5        -3.6150   -1.2120    3.6090 ho        1 PCO      0.404000
     30 HC81       -1.3790    1.2810    1.9660 hc        1 PCO      0.045533
     31 HC82       -2.1230    1.8340    3.5170 hc        1 PCO      0.045533
     32 HC83       -0.3980    2.2680    3.1420 hc        1 PCO      0.045533
     33 HC91       -0.1870   -0.4360    5.7530 hc        1 PCO      0.045533
     34 HC92       -0.0580    1.3520    5.4690 hc        1 PCO      0.045533
     35 HC93       -1.6940    0.5800    5.6460 hc        1 PCO      0.045533
     36 HO11        0.6540   -2.1450    3.4000 ho        1 PCO      0.424000
     37 HC24        0.5140   -1.1360   -6.4790 h4        1 PCO      0.150000
     38 HS25        0.0870   -3.4790   -5.6190 hs        1 PCO      0.197800
@<TRIPOS>BOND
     1    1    2 1   
     2    1   17 2   
     3    1   19 1   
     4    2    3 1   
     5    2   20 1   
     6    3    4 1   
     7    3   16 2   
     8    4    5 1   
     9    4   21 1   
    10    4   22 1   
    11    5    6 1   
    12    5   23 1   
    13    5   24 1   
    14    6    7 1   
    15    6   25 1   
    16    7    8 1   
    17    7   15 2   
    18    8    9 1   
    19    8   14 1   
    20    8   26 1   
    21    9   10 1   
    22    9   12 1   
    23    9   13 1   
    24   10   11 1   
    25   10   27 1   
    26   10   28 1   
    27   11   29 1   
    28   12   30 1   
    29   12   31 1   
    30   12   32 1   
    31   13   33 1   
    32   13   34 1   
    33   13   35 1   
    34   14   36 1   
    35   17   18 1   
    36   17   37 1   
    37   18   38 1   
@<TRIPOS>SUBSTRUCTURE
     1 PCO         1 TEMP              0 ****  ****    0 ROOT
