@<TRIPOS>MOLECULE
PCO
   40    39     1     0     0
SMALL
bcc


@<TRIPOS>ATOM
      1 C23         0.1940    0.7700    0.2700 c2        1 PCO     -0.232000
      2 N19         1.2460    0.5980   -0.7170 n4        1 PCO     -0.524600
      3 C17         2.4620   -0.0830   -0.1340 c         1 PCO      0.541100
      4 C16         3.2340    0.6770    0.9100 c3        1 PCO     -0.174400
      5 C15         4.4770   -0.1350    1.2830 c3        1 PCO      0.099800
      6 N14         5.3160    0.5120    2.3190 n4        1 PCO     -0.676800
      7 C12         6.6410   -0.2160    2.5610 c         1 PCO      0.578100
      8 C10         7.3420    0.0690    3.8880 c3        1 PCO      0.106100
      9 C7          8.5400    1.0280    3.6910 c3        1 PCO     -0.109000
     10 C6          8.0860    2.3330    3.0250 c3        1 PCO      0.119400
     11 O5          7.5550    2.0900    1.7320 oh        1 PCO     -0.676800
     12 C8          9.6080    0.3440    2.8540 c3        1 PCO     -0.113600
     13 C9          9.1150    1.3620    5.0620 c3        1 PCO     -0.113600
     14 O11         6.3670    0.5900    4.7740 oh        1 PCO     -0.641800
     15 O13         7.0190   -0.9560    1.6730 o         1 PCO     -0.402100
     16 O18         2.7140   -1.1990   -0.5620 o         1 PCO     -0.380100
     17 C24        -0.9600    0.0580    0.2850 c2        1 PCO     -0.000400
     18 S25        -1.3580   -1.1630   -0.7460 sh        1 PCO     -0.104400
     19 HC23        0.3940    1.5870    0.9860 hx        1 PCO      0.197000
     20 HN19        1.5130    1.5250   -1.0760 hn        1 PCO      0.475300
     21 H161        2.5680    0.8350    1.8050 hc        1 PCO      0.117700
     22 H162        3.5240    1.6880    0.5070 hc        1 PCO      0.117700
     23 H151        4.1700   -1.1550    1.6630 hx        1 PCO      0.136200
     24 H152        5.1170   -0.2980    0.3620 hx        1 PCO      0.136200
     25 HN14        4.8150    0.5610    3.2160 hn        1 PCO      0.481800
     26 HC10        7.7190   -0.9320    4.2610 h1        1 PCO      0.123700
     27 HC61        8.9430    3.0560    2.9800 h1        1 PCO      0.080700
     28 HC62        7.2400    2.7910    3.6080 h1        1 PCO      0.080700
     29 HO5         8.2890    2.0780    1.1030 ho        1 PCO      0.449000
     30 HC81       10.4640    1.0440    2.6880 hc        1 PCO      0.066700
     31 HC82        9.9980   -0.5630    3.3790 hc        1 PCO      0.066700
     32 HC83        9.2030    0.0350    1.8600 hc        1 PCO      0.066700
     33 HC91       10.0840    1.9080    4.9400 hc        1 PCO      0.066700
     34 HC92        8.4190    2.0170    5.6400 hc        1 PCO      0.066700
     35 HC93        9.3130    0.4290    5.6430 hc        1 PCO      0.066700
     36 HO11        6.7680    0.6400    5.6570 ho        1 PCO      0.477000
     37 HC24       -1.6740    0.3640    1.0830 h4        1 PCO      0.209000
     38 HS25       -2.6050   -1.4430   -0.3430 hs        1 PCO      0.266800
     39 H192        0.9000    0.0280   -1.5110 hn        1 PCO      0.475300
     40 H142        5.5660    1.4750    2.0360 hn        1 PCO      0.481800
@<TRIPOS>BOND
     1    1    2 1   
     2    1   17 2   
     3    1   19 1   
     4    2    3 1   
     5    2   20 1   
     6    2   39 1   
     7    3    4 1   
     8    3   16 2   
     9    4    5 1   
    10    4   21 1   
    11    4   22 1   
    12    5    6 1   
    13    5   23 1   
    14    5   24 1   
    15    6    7 1   
    16    6   25 1   
    17    6   40 1   
    18    7    8 1   
    19    7   15 2   
    20    8    9 1   
    21    8   14 1   
    22    8   26 1   
    23    9   10 1   
    24    9   12 1   
    25    9   13 1   
    26   10   11 1   
    27   10   27 1   
    28   10   28 1   
    29   11   29 1   
    30   12   30 1   
    31   12   31 1   
    32   12   32 1   
    33   13   33 1   
    34   13   34 1   
    35   13   35 1   
    36   14   36 1   
    37   17   18 1   
    38   17   37 1   
    39   18   38 1   
@<TRIPOS>SUBSTRUCTURE
     1 PCO         1 TEMP              0 ****  ****    0 ROOT
