@<TRIPOS>MOLECULE
PCO
   40    39     1     0     0
SMALL
bcc


@<TRIPOS>ATOM
      1 C23         0.2210    0.8600    0.2110 c2        1 PCO     -0.232000
      2 N19         1.2640    0.5130   -0.7410 n4        1 PCO     -0.524600
      3 C17         2.4340   -0.1690   -0.0730 c         1 PCO      0.541100
      4 C16         3.2450    0.6570    0.8880 c3        1 PCO     -0.174400
      5 C15         4.4420   -0.1770    1.3560 c3        1 PCO      0.099800
      6 N14         5.3110    0.5290    2.3260 n4        1 PCO     -0.676800
      7 C12         6.5960   -0.2380    2.6520 c         1 PCO      0.578100
      8 C10         7.3050    0.1420    3.9500 c3        1 PCO      0.106100
      9 C7          8.5510    1.0150    3.6700 c3        1 PCO     -0.109000
     10 C6          8.1670    2.2690    2.8740 c3        1 PCO      0.119400
     11 O5          7.6300    1.9250    1.6060 oh        1 PCO     -0.676800
     12 C8          9.5870    0.1980    2.9160 c3        1 PCO     -0.113600
     13 C9          9.1370    1.4560    5.0060 c3        1 PCO     -0.113600
     14 O11         6.3540    0.7980    4.7720 oh        1 PCO     -0.641800
     15 O13         6.9390   -1.0810    1.8460 o         1 PCO     -0.402100
     16 O18         2.6220   -1.3370   -0.3730 o         1 PCO     -0.380100
     17 C24        -0.9740    0.2250    0.2960 c2        1 PCO     -0.000400
     18 S25        -1.4440   -1.0780   -0.5930 sh        1 PCO     -0.104400
     19 HC23        0.4700    1.7390    0.8320 hx        1 PCO      0.197000
     20 HN19        1.5870    1.3760   -1.2000 hn        1 PCO      0.475300
     21 H161        3.5920    1.6010    0.3830 hc        1 PCO      0.117700
     22 H162        2.5880    0.9450    1.7560 hc        1 PCO      0.117700
     23 H151        5.0750   -0.4690    0.4630 hx        1 PCO      0.136200
     24 H152        4.0800   -1.1350    1.8370 hx        1 PCO      0.136200
     25 HN14        5.6110    1.4430    1.9480 hn        1 PCO      0.481800
     26 HC10        7.6290   -0.8340    4.4250 h1        1 PCO      0.123700
     27 HC61        9.0600    2.9390    2.7640 h1        1 PCO      0.080700
     28 HC62        7.3430    2.8240    3.4000 h1        1 PCO      0.080700
     29 HO5         8.3650    1.8120    0.9880 ho        1 PCO      0.449000
     30 HC81        9.9270   -0.6700    3.5330 hc        1 PCO      0.066700
     31 HC82       10.4780    0.8340    2.6890 hc        1 PCO      0.066700
     32 HC83        9.1700   -0.1880    1.9540 hc        1 PCO      0.066700
     33 HC91       10.1330    1.9370    4.8400 hc        1 PCO      0.066700
     34 HC92        9.2840    0.5770    5.6790 hc        1 PCO      0.066700
     35 HC93        8.4720    2.1990    5.5100 hc        1 PCO      0.066700
     36 HO11        6.7530    0.9150    5.6490 ho        1 PCO      0.477000
     37 HC24       -1.6690    0.6620    1.0480 h4        1 PCO      0.209000
     38 HS25       -2.7060   -1.2350   -0.1730 hs        1 PCO      0.266800
     39 H192        0.8850   -0.1210   -1.4680 hn        1 PCO      0.475300
     40 H142        4.8100    0.6950    3.2100 hn        1 PCO      0.481800
@<TRIPOS>BOND
     1    1    2 1   
     2    1   17 2   
     3    1   19 1   
     4    2    3 1   
     5    2   20 1   
     6    2   39 1   
     7    3    4 1   
     8    3   16 2   
     9    4    5 1   
    10    4   21 1   
    11    4   22 1   
    12    5    6 1   
    13    5   23 1   
    14    5   24 1   
    15    6    7 1   
    16    6   25 1   
    17    6   40 1   
    18    7    8 1   
    19    7   15 2   
    20    8    9 1   
    21    8   14 1   
    22    8   26 1   
    23    9   10 1   
    24    9   12 1   
    25    9   13 1   
    26   10   11 1   
    27   10   27 1   
    28   10   28 1   
    29   11   29 1   
    30   12   30 1   
    31   12   31 1   
    32   12   32 1   
    33   13   33 1   
    34   13   34 1   
    35   13   35 1   
    36   14   36 1   
    37   17   18 1   
    38   17   37 1   
    39   18   38 1   
@<TRIPOS>SUBSTRUCTURE
     1 PCO         1 TEMP              0 ****  ****    0 ROOT
