@<TRIPOS>MOLECULE
PCP
   32    32     1     0     0
SMALL
bcc


@<TRIPOS>ATOM
      1 C1          0.0130    0.0690    0.1450 c3        1 PCP      0.188100
      2 C2          1.4780   -0.2050    0.6020 c3        1 PCP      0.093100
      3 C3          1.4120   -0.5950    2.0970 c3        1 PCP      0.146100
      4 C4          0.1620    0.0980    2.6630 c3        1 PCP     -0.113700
      5 C5         -0.7530    0.3490    1.4600 c3        1 PCP     -0.091400
      6 CP          0.5040    1.3890    3.4380 c3        1 PCP      0.224400
      7 O1         -0.5280   -0.9950   -0.5580 os        1 PCP     -0.586200
      8 O2          2.1460   -1.2120   -0.1210 oh        1 PCP     -0.670800
      9 O3          1.3290   -2.0080    2.2450 oh        1 PCP     -0.642800
     10 OP          1.1580    1.1290    4.6260 os        1 PCP     -0.585200
     11 P           0.9570    2.2720    5.8960 p5        1 PCP      1.329900
     12 O1P        -0.5250    2.5600    5.9380 o         1 PCP     -0.953500
     13 O2P         1.4880    1.5320    7.1040 o         1 PCP     -0.953500
     14 O3P         1.8070    3.4510    5.4790 o         1 PCP     -0.953500
     15 PA         -0.6930   -0.7740   -2.2510 p5        1 PCP      1.582800
     16 O1A         0.7410   -0.9720   -2.6340 o         1 PCP     -0.923000
     17 O2A        -1.2440    0.6040   -2.3770 o         1 PCP     -0.923000
     18 O3A        -1.6480   -1.8990   -2.7740 os        1 PCP     -0.808800
     19 PB         -2.6560   -3.0490   -3.6870 p5        1 PCP      1.469900
     20 O1B        -2.4960   -2.6080   -5.1200 o         1 PCP     -0.968833
     21 O2B        -2.0720   -4.4090   -3.4060 o         1 PCP     -0.968833
     22 O3B        -4.0530   -2.8680   -3.1530 o         1 PCP     -0.968833
     23 H1          0.0000    0.9900   -0.5080 h1        1 PCP      0.042700
     24 H2          2.0760    0.7440    0.5020 h1        1 PCP      0.002700
     25 H3          2.3290   -0.2960    2.6660 h1        1 PCP      0.061700
     26 H4         -0.3350   -0.6040    3.3840 hc        1 PCP      0.044700
     27 H51        -1.6450   -0.3240    1.5060 hc        1 PCP      0.027700
     28 H52        -1.1190    1.4050    1.4580 hc        1 PCP      0.027700
     29 HP1         1.1540    2.0190    2.7580 h1        1 PCP     -0.011800
     30 HP2        -0.4490    1.9550    3.6460 h1        1 PCP     -0.011800
     31 HO2         1.6210   -1.3740   -0.9400 ho        1 PCP      0.478000
     32 HO3         0.8020   -2.3220    1.4960 ho        1 PCP      0.416000
@<TRIPOS>BOND
     1    1    2 1   
     2    1    5 1   
     3    1    7 1   
     4    1   23 1   
     5    2    3 1   
     6    2    8 1   
     7    2   24 1   
     8    3    4 1   
     9    3    9 1   
    10    3   25 1   
    11    4    5 1   
    12    4    6 1   
    13    4   26 1   
    14    5   27 1   
    15    5   28 1   
    16    6   10 1   
    17    6   29 1   
    18    6   30 1   
    19    7   15 1   
    20    8   31 1   
    21    9   32 1   
    22   10   11 1   
    23   11   12 1   
    24   11   13 1   
    25   11   14 1   
    26   15   16 1   
    27   15   17 1   
    28   15   18 1   
    29   18   19 1   
    30   19   20 1   
    31   19   21 1   
    32   19   22 1   
@<TRIPOS>SUBSTRUCTURE
     1 PCP         1 TEMP              0 ****  ****    0 ROOT
