@<TRIPOS>MOLECULE
PCP
   32    32     1     0     0
SMALL
bcc


@<TRIPOS>ATOM
      1 C1         -0.0100    0.0670    0.1450 c3        1 PCP      0.188100
      2 C2          1.4700   -0.1820    0.5710 c3        1 PCP      0.093100
      3 C3          1.4420   -0.5690    2.0670 c3        1 PCP      0.146100
      4 C4          0.1940    0.1050    2.6590 c3        1 PCP     -0.113700
      5 C5         -0.7510    0.3380    1.4760 c3        1 PCP     -0.091400
      6 CP          0.5320    1.4030    3.4240 c3        1 PCP      0.224400
      7 O1         -0.5490   -1.0080   -0.5440 os        1 PCP     -0.586200
      8 O2          2.1380   -1.1810   -0.1650 oh        1 PCP     -0.670800
      9 O3          1.3860   -1.9830    2.2200 oh        1 PCP     -0.642800
     10 OP          1.2160    1.1570    4.5970 os        1 PCP     -0.585200
     11 P           1.0240    2.3010    5.8690 p5        1 PCP      1.329900
     12 O1P        -0.4610    2.5640    5.9430 o         1 PCP     -0.953500
     13 O2P         1.5940    1.5730    7.0660 o         1 PCP     -0.953500
     14 O3P         1.8450    3.4920    5.4300 o         1 PCP     -0.953500
     15 PA         -0.7530   -0.7950   -2.2330 p5        1 PCP      1.582800
     16 O1A         0.6740   -0.9700   -2.6470 o         1 PCP     -0.923000
     17 O2A        -1.3300    0.5740   -2.3500 o         1 PCP     -0.923000
     18 O3A        -1.7010   -1.9370   -2.7320 os        1 PCP     -0.808800
     19 PB         -2.7110   -3.1050   -3.6190 p5        1 PCP      1.469900
     20 O1B        -2.5890   -2.6660   -5.0570 o         1 PCP     -0.968833
     21 O2B        -2.0990   -4.4540   -3.3490 o         1 PCP     -0.968833
     22 O3B        -4.0980   -2.9460   -3.0560 o         1 PCP     -0.968833
     23 H1         -0.0520    0.9860   -0.5100 h1        1 PCP      0.042700
     24 H2          2.0490    0.7760    0.4550 h1        1 PCP      0.002700
     25 H3          2.3670   -0.2540    2.6160 h1        1 PCP      0.061700
     26 H4         -0.2760   -0.6020    3.3930 hc        1 PCP      0.044700
     27 H51        -1.6300   -0.3490    1.5430 hc        1 PCP      0.027700
     28 H52        -1.1340    1.3880    1.4800 hc        1 PCP      0.027700
     29 HP1         1.1560    2.0420    2.7280 h1        1 PCP     -0.011800
     30 HP2        -0.4250    1.9540    3.6510 h1        1 PCP     -0.011800
     31 HO2         1.5970   -1.3530   -0.9720 ho        1 PCP      0.478000
     32 HO3         0.8470   -2.3080    1.4850 ho        1 PCP      0.416000
@<TRIPOS>BOND
     1    1    2 1   
     2    1    5 1   
     3    1    7 1   
     4    1   23 1   
     5    2    3 1   
     6    2    8 1   
     7    2   24 1   
     8    3    4 1   
     9    3    9 1   
    10    3   25 1   
    11    4    5 1   
    12    4    6 1   
    13    4   26 1   
    14    5   27 1   
    15    5   28 1   
    16    6   10 1   
    17    6   29 1   
    18    6   30 1   
    19    7   15 1   
    20    8   31 1   
    21    9   32 1   
    22   10   11 1   
    23   11   12 1   
    24   11   13 1   
    25   11   14 1   
    26   15   16 1   
    27   15   17 1   
    28   15   18 1   
    29   18   19 1   
    30   19   20 1   
    31   19   21 1   
    32   19   22 1   
@<TRIPOS>SUBSTRUCTURE
     1 PCP         1 TEMP              0 ****  ****    0 ROOT
