@<TRIPOS>MOLECULE
PCP
   32    32     1     0     0
SMALL
bcc


@<TRIPOS>ATOM
      1 C1          0.6010   -0.7780    0.0530 c3        1 PCP      0.188100
      2 C2          1.9970   -0.6080   -0.6210 c3        1 PCP      0.093100
      3 C3          1.8330    0.4720   -1.7160 c3        1 PCP      0.146100
      4 C4          0.3630    0.4090   -2.1610 c3        1 PCP     -0.113700
      5 C5         -0.3970   -0.2170   -0.9870 c3        1 PCP     -0.091400
      6 CP          0.1810   -0.3710   -3.4810 c3        1 PCP      0.224400
      7 O1          0.5170   -0.1150    1.2670 os        1 PCP     -0.586200
      8 O2          3.0380   -0.2400    0.2540 oh        1 PCP     -0.670800
      9 O3          2.1620    1.7590   -1.2060 oh        1 PCP     -0.642800
     10 OP          0.7010    0.3050   -4.5660 os        1 PCP     -0.585200
     11 P          -0.0210    0.0010   -6.0980 p5        1 PCP      1.329900
     12 O1P         0.4830   -1.3710   -6.4850 o         1 PCP     -0.953500
     13 O2P        -1.5100    0.0690   -5.8530 o         1 PCP     -0.953500
     14 O3P         0.5250    1.1190   -6.9570 o         1 PCP     -0.953500
     15 PA          0.5440   -1.1040    2.6680 p5        1 PCP      1.582800
     16 O1A         2.0100   -1.4060    2.6910 o         1 PCP     -0.923000
     17 O2A        -0.3740   -2.2270    2.3280 o         1 PCP     -0.923000
     18 O3A         0.0630   -0.2210    3.8680 os        1 PCP     -0.808800
     19 PB         -0.4050    0.5030    5.4260 p5        1 PCP      1.469900
     20 O1B        -0.1770   -0.6080    6.4210 o         1 PCP     -0.968833
     21 O2B         0.5160    1.6800    5.6170 o         1 PCP     -0.968833
     22 O3B        -1.8530    0.8870    5.2720 o         1 PCP     -0.968833
     23 H1          0.4060   -1.8780    0.2160 h1        1 PCP      0.042700
     24 H2          2.2870   -1.5790   -1.1110 h1        1 PCP      0.002700
     25 H3          2.5230    0.3190   -2.5850 h1        1 PCP      0.061700
     26 H4          0.0020    1.4560   -2.3380 hc        1 PCP      0.044700
     27 H51        -1.0620   -1.0420   -1.3450 hc        1 PCP      0.027700
     28 H52        -1.0400    0.5510   -0.4900 hc        1 PCP      0.027700
     29 HP1         0.7010   -1.3690   -3.3490 h1        1 PCP     -0.011800
     30 HP2        -0.9190   -0.5620   -3.6440 h1        1 PCP     -0.011800
     31 HO2         2.7120   -0.4040    1.1710 ho        1 PCP      0.478000
     32 HO3         1.8700    1.7600   -0.2830 ho        1 PCP      0.416000
@<TRIPOS>BOND
     1    1    2 1   
     2    1    5 1   
     3    1    7 1   
     4    1   23 1   
     5    2    3 1   
     6    2    8 1   
     7    2   24 1   
     8    3    4 1   
     9    3    9 1   
    10    3   25 1   
    11    4    5 1   
    12    4    6 1   
    13    4   26 1   
    14    5   27 1   
    15    5   28 1   
    16    6   10 1   
    17    6   29 1   
    18    6   30 1   
    19    7   15 1   
    20    8   31 1   
    21    9   32 1   
    22   10   11 1   
    23   11   12 1   
    24   11   13 1   
    25   11   14 1   
    26   15   16 1   
    27   15   17 1   
    28   15   18 1   
    29   18   19 1   
    30   19   20 1   
    31   19   21 1   
    32   19   22 1   
@<TRIPOS>SUBSTRUCTURE
     1 PCP         1 TEMP              0 ****  ****    0 ROOT
