@<TRIPOS>MOLECULE
PCQ
   24    25     1     0     0
SMALL
bcc


@<TRIPOS>ATOM
      1 CL1        -0.0130    0.0800    0.0640 cl        1 PCQ     -0.069400
      2 CL2         3.6660    0.1520   -3.9090 cl        1 PCQ     -0.069400
      3 O1          0.8540    0.1460   -2.7420 oh        1 PCQ     -0.473100
      4 C1          3.9630    0.0460    0.0570 cp        1 PCQ     -0.056000
      5 C2          2.6220    0.0480    0.4600 ca        1 PCQ     -0.078500
      6 C3          1.5930    0.0810   -0.4820 ca        1 PCQ     -0.037600
      7 C4          1.9020    0.1140   -1.8590 ca        1 PCQ      0.150100
      8 C5          3.2530    0.1120   -2.2580 ca        1 PCQ     -0.037600
      9 C6          4.2730    0.0780   -1.3080 ca        1 PCQ     -0.078500
     10 CL3         8.5230   -1.8340    1.5370 cl        1 PCQ     -0.069400
     11 CL4         5.7860    1.7310    4.5580 cl        1 PCQ     -0.069400
     12 O1'         8.0500   -0.0400    3.9510 oh        1 PCQ     -0.473100
     13 C1'         5.0310    0.0110    1.0540 cp        1 PCQ     -0.056000
     14 C2'         6.1540   -0.8000    0.8560 ca        1 PCQ     -0.078500
     15 C3'         7.1720   -0.8330    1.8080 ca        1 PCQ     -0.037600
     16 C4'         7.0850   -0.0520    2.9780 ca        1 PCQ      0.150100
     17 C5'         5.9510    0.7650    3.1730 ca        1 PCQ     -0.037600
     18 C6'         4.9390    0.7900    2.2140 ca        1 PCQ     -0.078500
     19 HO1         1.2140    0.1680   -3.6450 ho        1 PCQ      0.435000
     20 H21         2.3750    0.0160    1.5340 ha        1 PCQ      0.157000
     21 H61         5.3260    0.0840   -1.6320 ha        1 PCQ      0.157000
     22 HO1'        8.7620   -0.6450    3.6840 ho        1 PCQ      0.435000
     23 H2'1        6.2310   -1.4210   -0.0510 ha        1 PCQ      0.157000
     24 H6'1        4.0580    1.4360    2.3680 ha        1 PCQ      0.157000
@<TRIPOS>BOND
     1    1    6 1   
     2    2    8 1   
     3    3    7 1   
     4    3   19 1   
     5    4    5 ar  
     6    4    9 ar  
     7    4   13 1   
     8    5    6 ar  
     9    5   20 1   
    10    6    7 ar  
    11    7    8 ar  
    12    8    9 ar  
    13    9   21 1   
    14   10   15 1   
    15   11   17 1   
    16   12   16 1   
    17   12   22 1   
    18   13   14 ar  
    19   13   18 ar  
    20   14   15 ar  
    21   14   23 1   
    22   15   16 ar  
    23   16   17 ar  
    24   17   18 ar  
    25   18   24 1   
@<TRIPOS>SUBSTRUCTURE
     1 PCQ         1 TEMP              0 ****  ****    0 ROOT
