@<TRIPOS>MOLECULE
PCQ
   24    25     1     0     0
SMALL
bcc


@<TRIPOS>ATOM
      1 CL1         2.5330   -0.7700    3.6400 cl        1 PCQ     -0.069400
      2 CL2        -2.5870    0.9950    3.6490 cl        1 PCQ     -0.069400
      3 O1         -0.0750    0.1480    4.9150 oh        1 PCQ     -0.473100
      4 C1         -0.0470    0.0740    0.7310 cp        1 PCQ     -0.056000
      5 C2          1.1030   -0.3100    1.4290 ca        1 PCQ     -0.078500
      6 C3          1.1170   -0.2930    2.8230 ca        1 PCQ     -0.037600
      7 C4         -0.0240    0.1090    3.5460 ca        1 PCQ      0.150100
      8 C5         -1.1820    0.4970    2.8390 ca        1 PCQ     -0.037600
      9 C6         -1.1850    0.4760    1.4440 ca        1 PCQ     -0.078500
     10 CL3        -2.5970   -1.0360   -3.5920 cl        1 PCQ     -0.069400
     11 CL4         2.3900    1.0730   -3.6930 cl        1 PCQ     -0.069400
     12 O1'        -0.1770   -0.0210   -4.9120 oh        1 PCQ     -0.473100
     13 C1'        -0.0630    0.0570   -0.7300 cp        1 PCQ     -0.056000
     14 C2'        -1.1850   -0.4210   -1.4180 ca        1 PCQ     -0.078500
     15 C3'        -1.2120   -0.4430   -2.8130 ca        1 PCQ     -0.037600
     16 C4'        -0.0980    0.0220   -3.5450 ca        1 PCQ      0.150100
     17 C5'         1.0280    0.5020   -2.8470 ca        1 PCQ     -0.037600
     18 C6'         1.0440    0.5180   -1.4520 ca        1 PCQ     -0.078500
     19 HO1         0.7840   -0.1440    5.2630 ho        1 PCQ      0.435000
     20 H21         1.9990   -0.6340    0.8750 ha        1 PCQ      0.157000
     21 H61        -2.0900    0.7860    0.8960 ha        1 PCQ      0.157000
     22 HO1'        0.6530    0.3290   -5.2780 ho        1 PCQ      0.435000
     23 H2'1       -2.0550   -0.7920   -0.8510 ha        1 PCQ      0.157000
     24 H6'1        1.9270    0.9030   -0.9180 ha        1 PCQ      0.157000
@<TRIPOS>BOND
     1    1    6 1   
     2    2    8 1   
     3    3    7 1   
     4    3   19 1   
     5    4    5 ar  
     6    4    9 ar  
     7    4   13 1   
     8    5    6 ar  
     9    5   20 1   
    10    6    7 ar  
    11    7    8 ar  
    12    8    9 ar  
    13    9   21 1   
    14   10   15 1   
    15   11   17 1   
    16   12   16 1   
    17   12   22 1   
    18   13   14 ar  
    19   13   18 ar  
    20   14   15 ar  
    21   14   23 1   
    22   15   16 ar  
    23   16   17 ar  
    24   17   18 ar  
    25   18   24 1   
@<TRIPOS>SUBSTRUCTURE
     1 PCQ         1 TEMP              0 ****  ****    0 ROOT
