@<TRIPOS>MOLECULE
PCR
   16    16     1     0     0
SMALL
bcc


@<TRIPOS>ATOM
      1 CB          0.0060   -0.0410    0.0310 c3        1 PCR     -0.048800
      2 CG          1.4840    0.0240   -0.0130 ca        1 PCR     -0.112300
      3 CD1         2.2260    0.1480    1.1660 ca        1 PCR     -0.095000
      4 CE1         3.6180    0.1950    1.1300 ca        1 PCR     -0.181500
      5 CD2         2.1560   -0.0520   -1.2410 ca        1 PCR     -0.095000
      6 CE2         3.5440   -0.0080   -1.3000 ca        1 PCR     -0.181500
      7 CZ          4.2740    0.1160   -0.1050 ca        1 PCR      0.118100
      8 OH          5.6450    0.1550   -0.2240 oh        1 PCR     -0.499100
      9 HB1        -0.3910    0.4370    0.9600 hc        1 PCR      0.042700
     10 HB2        -0.4420    0.4790   -0.8520 hc        1 PCR      0.042700
     11 HB3        -0.3320   -1.1080    0.0160 hc        1 PCR      0.042700
     12 HD11        1.7070    0.2100    2.1350 ha        1 PCR      0.133000
     13 HE11        4.1950    0.2920    2.0600 ha        1 PCR      0.140500
     14 HD21        1.5770   -0.1480   -2.1710 ha        1 PCR      0.133000
     15 HE21        4.0780   -0.0670   -2.2580 ha        1 PCR      0.140500
     16 HO1         6.0170    0.2420    0.6650 ho        1 PCR      0.418000
@<TRIPOS>BOND
     1    1    2 1   
     2    1    9 1   
     3    1   10 1   
     4    1   11 1   
     5    2    3 ar  
     6    2    5 ar  
     7    3    4 ar  
     8    3   12 1   
     9    4    7 ar  
    10    4   13 1   
    11    5    6 ar  
    12    5   14 1   
    13    6    7 ar  
    14    6   15 1   
    15    7    8 1   
    16    8   16 1   
@<TRIPOS>SUBSTRUCTURE
     1 PCR         1 TEMP              0 ****  ****    0 ROOT
