@<TRIPOS>MOLECULE
PCR
   16    16     1     0     0
SMALL
bcc


@<TRIPOS>ATOM
      1 CB         -0.0260    0.0440    2.9060 c3        1 PCR     -0.048800
      2 CG          0.0140   -0.0220    1.4280 ca        1 PCR     -0.112300
      3 CD1         1.2430    0.0260    0.7540 ca        1 PCR     -0.095000
      4 CE1         1.2990   -0.0200   -0.6330 ca        1 PCR     -0.181500
      5 CD2        -1.1680   -0.1200    0.6880 ca        1 PCR     -0.095000
      6 CE2        -1.1350   -0.1680   -0.7040 ca        1 PCR     -0.181500
      7 CZ          0.1020   -0.1170   -1.3610 ca        1 PCR      0.118100
      8 OH          0.2180   -0.1600   -2.7320 oh        1 PCR     -0.499100
      9 HB1         0.8360   -0.5110    3.3530 hc        1 PCR      0.042700
     10 HB2         0.0330    1.1090    3.2440 hc        1 PCR      0.042700
     11 HB3        -0.9730   -0.3970    3.3040 hc        1 PCR      0.042700
     12 HD11        2.1760    0.1020    1.3330 ha        1 PCR      0.133000
     13 HE11        2.2580    0.0170   -1.1690 ha        1 PCR      0.140500
     14 HD21       -2.1370   -0.1600    1.2080 ha        1 PCR      0.133000
     15 HE21       -2.0670   -0.2450   -1.2800 ha        1 PCR      0.140500
     16 HO1        -0.6740   -0.2260   -3.1040 ho        1 PCR      0.418000
@<TRIPOS>BOND
     1    1    2 1   
     2    1    9 1   
     3    1   10 1   
     4    1   11 1   
     5    2    3 ar  
     6    2    5 ar  
     7    3    4 ar  
     8    3   12 1   
     9    4    7 ar  
    10    4   13 1   
    11    5    6 ar  
    12    5   14 1   
    13    6    7 ar  
    14    6   15 1   
    15    7    8 1   
    16    8   16 1   
@<TRIPOS>SUBSTRUCTURE
     1 PCR         1 TEMP              0 ****  ****    0 ROOT
