@<TRIPOS>MOLECULE
PCR
   16    16     1     0     0
SMALL
bcc


@<TRIPOS>ATOM
      1 CB          0.0060   -0.0560    0.0240 c3        1 PCR     -0.048800
      2 CG          1.4850    0.0180   -0.0150 ca        1 PCR     -0.112300
      3 CD1         2.2240    0.1120    1.1680 ca        1 PCR     -0.095000
      4 CE1         3.6150    0.1680    1.1360 ca        1 PCR     -0.181500
      5 CD2         2.1590   -0.0180   -1.2440 ca        1 PCR     -0.095000
      6 CE2         3.5470    0.0370   -1.2990 ca        1 PCR     -0.181500
      7 CZ          4.2730    0.1300   -0.1000 ca        1 PCR      0.118100
      8 OH          5.6440    0.1810   -0.2150 oh        1 PCR     -0.499100
      9 HB1        -0.3940    0.3870    0.9690 hc        1 PCR      0.042700
     10 HB2        -0.4430    0.4910   -0.8410 hc        1 PCR      0.042700
     11 HB3        -0.3250   -1.1240   -0.0290 hc        1 PCR      0.042700
     12 HD11        1.7020    0.1430    2.1370 ha        1 PCR      0.133000
     13 HE11        4.1900    0.2420    2.0690 ha        1 PCR      0.140500
     14 HD21        1.5810   -0.0890   -2.1780 ha        1 PCR      0.133000
     15 HE21        4.0830    0.0100   -2.2580 ha        1 PCR      0.140500
     16 HO1         6.0150    0.2440    0.6770 ho        1 PCR      0.418000
@<TRIPOS>BOND
     1    1    2 1   
     2    1    9 1   
     3    1   10 1   
     4    1   11 1   
     5    2    3 ar  
     6    2    5 ar  
     7    3    4 ar  
     8    3   12 1   
     9    4    7 ar  
    10    4   13 1   
    11    5    6 ar  
    12    5   14 1   
    13    6    7 ar  
    14    6   15 1   
    15    7    8 1   
    16    8   16 1   
@<TRIPOS>SUBSTRUCTURE
     1 PCR         1 TEMP              0 ****  ****    0 ROOT
