@<TRIPOS>MOLECULE
PCS
   25    25     1     0     0
SMALL
bcc


@<TRIPOS>ATOM
      1 N           1.5660    1.1020    0.0540 n3        1 PCS     -0.897800
      2 CA          0.3290    0.4410    0.4090 c3        1 PCS      0.075500
      3 C           0.3480   -0.0100    1.8750 c         1 PCS      0.564100
      4 CB         -0.0420   -0.8000   -0.4320 c3        1 PCS     -0.075100
      5 O           1.2700   -0.6820    2.3320 o         1 PCS     -0.495100
      6 CD1         0.9430   -0.5590   -2.7210 ca        1 PCS     -0.128500
      7 CG         -0.1680   -0.4650   -1.8740 ca        1 PCS     -0.088300
      8 CD2        -1.3990   -0.0560   -2.4010 ca        1 PCS     -0.128500
      9 CE2        -1.5150    0.2540   -3.7550 ca        1 PCS     -0.124500
     10 CZ         -0.4050    0.1600   -4.5930 ca        1 PCS     -0.126000
     11 CE1         0.8240   -0.2480   -4.0740 ca        1 PCS     -0.124500
     12 CT         -0.8470    0.4600    2.6510 c3        1 PCS     -0.077000
     13 CL1        -1.0910   -0.3410    4.1810 cl        1 PCS     -0.146400
     14 H           2.3560    0.5550    0.3390 hn        1 PCS      0.362800
     15 H2          1.6030    1.2460   -0.9380 hn        1 PCS      0.362800
     16 HA         -0.4910    1.2080    0.2700 h1        1 PCS      0.072700
     17 HB2         0.7390   -1.5930   -0.2830 hc        1 PCS      0.062700
     18 HB3        -1.0140   -1.2080   -0.0470 hc        1 PCS      0.062700
     19 HD2        -2.2780    0.0160   -1.7440 ha        1 PCS      0.131500
     20 HE2        -2.4860    0.5730   -4.1620 ha        1 PCS      0.134500
     21 HZ         -0.4980    0.4050   -5.6610 ha        1 PCS      0.135000
     22 HE1         1.7010   -0.3270   -4.7340 ha        1 PCS      0.134500
     23 HT1        -0.7230    1.5520    2.8640 h1        1 PCS      0.090700
     24 HT2        -1.7760    0.2970    2.0510 h1        1 PCS      0.090700
     25 HD1         1.9120   -0.8910   -2.3170 ha        1 PCS      0.131500
@<TRIPOS>BOND
     1    1    2 1   
     2    1   14 1   
     3    1   15 1   
     4    2    3 1   
     5    2    4 1   
     6    2   16 1   
     7    3    5 2   
     8    3   12 1   
     9    4    7 1   
    10    4   17 1   
    11    4   18 1   
    12    6    7 ar  
    13    6   11 ar  
    14    6   25 1   
    15    7    8 ar  
    16    8    9 ar  
    17    8   19 1   
    18    9   10 ar  
    19    9   20 1   
    20   10   11 ar  
    21   10   21 1   
    22   11   22 1   
    23   12   13 1   
    24   12   23 1   
    25   12   24 1   
@<TRIPOS>SUBSTRUCTURE
     1 PCS         1 TEMP              0 ****  ****    0 ROOT
