@<TRIPOS>MOLECULE
PCT
   12    11     1     0     0
SMALL
bcc


@<TRIPOS>ATOM
      1 P           0.1650    0.0880   -0.9920 p5        1 PCT      1.199700
      2 O1P         1.2420    1.0000   -0.4480 o         1 PCT     -0.931833
      3 O2P         0.6330   -0.9310   -1.9950 o         1 PCT     -0.931833
      4 O3P        -1.1590    0.7300   -1.2820 o         1 PCT     -0.931833
      5 C1P        -0.1460   -1.0570    0.5340 c3        1 PCT     -0.341600
      6 C1         -0.0540   -0.4210    1.8470 c         1 PCT      0.694100
      7 O1         -1.0080   -0.3510    2.6730 o         1 PCT     -0.757100
      8 N1          1.1900    0.1170    2.2550 n         1 PCT     -0.650000
      9 H1P1        0.6530   -1.8040    0.3610 hc        1 PCT      0.055200
     10 H1P2       -1.1480   -1.4890    0.3610 hc        1 PCT      0.055200
     11 HN11        1.0930    0.8270    2.9460 hn        1 PCT      0.270000
     12 HN12        1.7070    0.4410    1.4430 hn        1 PCT      0.270000
@<TRIPOS>BOND
     1    1    2 1   
     2    1    3 1   
     3    1    4 1   
     4    1    5 1   
     5    5    6 1   
     6    5    9 1   
     7    5   10 1   
     8    6    7 2   
     9    6    8 1   
    10    8   11 1   
    11    8   12 1   
@<TRIPOS>SUBSTRUCTURE
     1 PCT         1 TEMP              0 ****  ****    0 ROOT
