@<TRIPOS>MOLECULE
PCV
   28    28     1     0     0
SMALL
bcc


@<TRIPOS>ATOM
      1 N1         -0.0330    0.8520    0.1480 n         1 PCV     -0.440800
      2 C8          1.3700    1.0650   -0.0360 c         1 PCV      0.684500
      3 O1          1.9910    1.8080   -0.8030 o         1 PCV     -0.652500
      4 C9          1.7380    0.2520    1.2040 cy        1 PCV     -0.188400
      5 C7          0.2140   -0.0050    1.3480 cy        1 PCV      0.029000
      6 C1         -0.9530    0.3210   -0.8360 c3        1 PCV     -0.129300
      7 C2         -1.4350    1.2960   -1.9250 c3        1 PCV      0.163100
      8 C4         -2.0830    2.5620   -1.3530 c3        1 PCV     -0.108400
      9 C5         -1.3020    3.8400   -1.6230 c3        1 PCV      0.130800
     10 N2          0.1040    3.7660   -1.1480 n4        1 PCV     -0.845600
     11 O3         -0.4130    1.6980   -2.8220 oh        1 PCV     -0.688800
     12 C3         -0.4520   -1.0160   -1.5230 c         1 PCV      0.911600
     13 O2         -0.2320   -0.9750   -2.7620 o         1 PCV     -0.795800
     14 O4         -0.3290   -2.0090   -0.7690 o         1 PCV     -0.795800
     15 HC91        2.3300   -0.6600    0.9680 hc        1 PCV      0.090700
     16 HC92        2.2190    0.8300    2.0190 hc        1 PCV      0.090700
     17 HC71       -0.0870   -1.0760    1.2100 h1        1 PCV      0.091700
     18 HC72       -0.2570    0.4390    2.2550 h1        1 PCV      0.091700
     19 HC1        -1.8730    0.0280   -0.2450 h1        1 PCV      0.071700
     20 H22        -2.2110    0.7210   -2.5130 h1        1 PCV      0.077700
     21 HC41       -2.2520    2.4340   -0.2520 hc        1 PCV      0.072200
     22 HC42       -3.0900    2.7020   -1.8320 hc        1 PCV      0.072200
     23 HC51       -1.8000    4.7120   -1.1140 hx        1 PCV      0.088200
     24 HC52       -1.2660    4.0210   -2.7360 hx        1 PCV      0.088200
     25 HN21        0.6020    3.0050   -1.6790 hn        1 PCV      0.466133
     26 HN22        0.1390    3.5120   -0.1580 hn        1 PCV      0.466133
     27 HO3        -0.0150    0.8850   -3.1950 ho        1 PCV      0.494000
     28 H23         0.5850    4.6500   -1.2940 hn        1 PCV      0.466133
@<TRIPOS>BOND
     1    1    2 1   
     2    1    5 1   
     3    1    6 1   
     4    2    3 2   
     5    2    4 1   
     6    4    5 1   
     7    4   15 1   
     8    4   16 1   
     9    5   17 1   
    10    5   18 1   
    11    6    7 1   
    12    6   12 1   
    13    6   19 1   
    14    7    8 1   
    15    7   11 1   
    16    7   20 1   
    17    8    9 1   
    18    8   21 1   
    19    8   22 1   
    20    9   10 1   
    21    9   23 1   
    22    9   24 1   
    23   10   25 1   
    24   10   26 1   
    25   10   28 1   
    26   11   27 1   
    27   12   13 1   
    28   12   14 1   
@<TRIPOS>SUBSTRUCTURE
     1 PCV         1 TEMP              0 ****  ****    0 ROOT
