@<TRIPOS>MOLECULE
PCV
   28    28     1     0     0
SMALL
bcc


@<TRIPOS>ATOM
      1 N1         -0.0110    0.4520    0.2560 n         1 PCV     -0.433800
      2 C8          1.1050    1.2770    0.3160 c         1 PCV      0.715500
      3 O1          1.3550    2.4210   -0.1010 o         1 PCV     -0.746500
      4 C9          1.8550    0.2840    1.2190 cy        1 PCV     -0.190400
      5 C7          0.6040   -0.6250    1.0660 cy        1 PCV      0.075000
      6 C1         -1.0850    0.2210   -0.6660 c3        1 PCV     -0.088300
      7 C2         -1.3950    1.3370   -1.6780 c3        1 PCV      0.169100
      8 C4         -1.7980    2.6510   -1.0000 c3        1 PCV     -0.113400
      9 C5         -1.3800    3.8830   -1.7920 c3        1 PCV      0.130800
     10 N2          0.0800    4.1490   -1.6790 nz        1 PCV     -0.841600
     11 O3         -0.3190    1.6050   -2.5620 oh        1 PCV     -0.702800
     12 C3         -0.9000   -1.1380   -1.4680 c         1 PCV      0.914600
     13 O2         -0.6540   -1.0390   -2.7010 o         1 PCV     -0.797300
     14 O4         -1.0200   -2.1940   -0.8090 o         1 PCV     -0.797300
     15 HC91        2.7810   -0.1180    0.7570 hc        1 PCV      0.081700
     16 HC92        2.0580    0.6560    2.2440 hc        1 PCV      0.081700
     17 HC71        0.0310   -0.8100    2.0040 h1        1 PCV      0.091700
     18 HC72        0.7520   -1.5820    0.5050 h1        1 PCV      0.091700
     19 HC1        -2.0120    0.0860   -0.0300 h1        1 PCV      0.063700
     20 H22        -2.2630    0.9590   -2.2970 h1        1 PCV      0.070700
     21 HC41       -1.3770    2.7020    0.0390 hc        1 PCV      0.076200
     22 HC42       -2.9170    2.6720   -0.9090 hc        1 PCV      0.076200
     23 HC51       -1.9270    4.7940   -1.4210 hx        1 PCV      0.088200
     24 HC52       -1.6120    3.7200   -2.8840 hx        1 PCV      0.088200
     25 HN21        0.3340    4.3430   -0.7030 hn        1 PCV      0.466800
     26 HN22        0.3610    4.9180   -2.2800 hn        1 PCV      0.466800
     27 HO3        -0.0440    0.7510   -2.9560 ho        1 PCV      0.495000
     28 H23         0.6000    3.2780   -1.9360 hn        1 PCV      0.466800
@<TRIPOS>BOND
     1    1    2 1   
     2    1    5 1   
     3    1    6 1   
     4    2    3 2   
     5    2    4 1   
     6    4    5 1   
     7    4   15 1   
     8    4   16 1   
     9    5   17 1   
    10    5   18 1   
    11    6    7 1   
    12    6   12 1   
    13    6   19 1   
    14    7    8 1   
    15    7   11 1   
    16    7   20 1   
    17    8    9 1   
    18    8   21 1   
    19    8   22 1   
    20    9   10 1   
    21    9   23 1   
    22    9   24 1   
    23   10   25 1   
    24   10   26 1   
    25   10   28 1   
    26   11   27 1   
    27   12   13 1   
    28   12   14 1   
@<TRIPOS>SUBSTRUCTURE
     1 PCV         1 TEMP              0 ****  ****    0 ROOT
