@<TRIPOS>MOLECULE
PCV
   27    27     1     0     0
SMALL
bcc


@<TRIPOS>ATOM
      1 N1         -0.3790    1.2640   -0.5960 n         1 PCV     -0.407800
      2 C8         -0.8870    1.9420    0.5510 c         1 PCV      0.689500
      3 O1         -0.6200    1.9320    1.7480 o         1 PCV     -0.584500
      4 C9         -1.8390    2.7930   -0.3110 cy        1 PCV     -0.212400
      5 C7         -1.3430    1.9360   -1.5040 cy        1 PCV      0.032000
      6 C1         -0.1820   -0.1590   -0.7400 c3        1 PCV     -0.093300
      7 C2          0.9560   -0.7440    0.1190 c3        1 PCV      0.181100
      8 C4          2.3050   -0.1240   -0.2370 c3        1 PCV     -0.116400
      9 C5          3.4490   -0.9610    0.3340 c3        1 PCV      0.138800
     10 N2          4.7780   -0.4200    0.1690 n3        1 PCV     -0.906800
     11 O3          0.7740   -0.5630    1.5110 oh        1 PCV     -0.627800
     12 C3         -1.4940   -0.9980   -0.5330 c         1 PCV      0.894600
     13 O2         -1.6290   -1.6380    0.5440 o         1 PCV     -0.826800
     14 O4         -2.3320   -0.9710   -1.4750 o         1 PCV     -0.826800
     15 HC91       -1.5880    3.8710   -0.3560 hc        1 PCV      0.064200
     16 HC92       -2.9080    2.6500   -0.0520 hc        1 PCV      0.064200
     17 HC71       -0.8120    2.5010   -2.3040 h1        1 PCV      0.071200
     18 HC72       -2.1110    1.2460   -1.9390 h1        1 PCV      0.071200
     19 HC1         0.1150   -0.3070   -1.8220 h1        1 PCV      0.051700
     20 H22         0.9730   -1.8530   -0.0970 h1        1 PCV      0.035700
     21 HC41        2.3460    0.9160    0.1780 hc        1 PCV      0.040700
     22 HC42        2.3930   -0.0590   -1.3510 hc        1 PCV      0.040700
     23 HC51        3.4330   -1.9780   -0.1510 h1        1 PCV      0.056200
     24 HC52        3.2600   -1.1070    1.4360 h1        1 PCV      0.056200
     25 HN21        4.9520   -0.2200   -0.7980 hn        1 PCV      0.330300
     26 HN22        4.8660    0.4380    0.6790 hn        1 PCV      0.330300
     27 HO3        -0.1670   -0.7260    1.6950 ho        1 PCV      0.450000
@<TRIPOS>BOND
     1    1    2 1   
     2    1    5 1   
     3    1    6 1   
     4    2    3 2   
     5    2    4 1   
     6    4    5 1   
     7    4   15 1   
     8    4   16 1   
     9    5   17 1   
    10    5   18 1   
    11    6    7 1   
    12    6   12 1   
    13    6   19 1   
    14    7    8 1   
    15    7   11 1   
    16    7   20 1   
    17    8    9 1   
    18    8   21 1   
    19    8   22 1   
    20    9   10 1   
    21    9   23 1   
    22    9   24 1   
    23   10   25 1   
    24   10   26 1   
    25   11   27 1   
    26   12   13 1   
    27   12   14 1   
@<TRIPOS>SUBSTRUCTURE
     1 PCV         1 TEMP              0 ****  ****    0 ROOT
