@<TRIPOS>MOLECULE
PCV
   28    28     1     0     0
SMALL
bcc


@<TRIPOS>ATOM
      1 N1         -0.0270    0.3870    0.2840 n         1 PCV     -0.424800
      2 C8          0.9600    1.3360    0.5000 c         1 PCV      0.714500
      3 O1          1.0360    2.5630    0.3080 o         1 PCV     -0.753500
      4 C9          1.8950    0.2930    1.1370 cy        1 PCV     -0.187400
      5 C7          0.7890   -0.7410    0.7860 cy        1 PCV      0.075000
      6 C1         -1.1330    0.2240   -0.6120 c3        1 PCV     -0.095300
      7 C2         -1.3720    1.3380   -1.6460 c3        1 PCV      0.158100
      8 C4         -1.8220    2.6480   -0.9960 c3        1 PCV     -0.117400
      9 C5         -1.3900    3.8790   -1.7820 c3        1 PCV      0.131800
     10 N2          0.0560    4.1780   -1.5830 n4        1 PCV     -0.840600
     11 O3         -0.2300    1.5970   -2.4510 oh        1 PCV     -0.702800
     12 C3         -1.0050   -1.1210   -1.4530 c         1 PCV      0.912600
     13 O2         -0.0500   -1.1620   -2.2790 o         1 PCV     -0.791300
     14 O4         -1.8660   -1.9970   -1.2360 o         1 PCV     -0.791300
     15 HC91        2.0840    0.4460    2.2190 hc        1 PCV      0.081700
     16 HC92        2.8490    0.1610    0.5860 hc        1 PCV      0.081700
     17 HC71        1.0560   -1.4820   -0.0080 h1        1 PCV      0.088700
     18 HC72        0.3100   -1.2460    1.6570 h1        1 PCV      0.088700
     19 HC1        -2.0650    0.1440    0.0230 h1        1 PCV      0.069700
     20 H22        -2.1950    0.9680   -2.3290 h1        1 PCV      0.068700
     21 HC41       -1.4390    2.7080    0.0580 hc        1 PCV      0.081700
     22 HC42       -2.9430    2.6510   -0.9470 hc        1 PCV      0.081700
     23 HC51       -1.5520    3.6960   -2.8830 hx        1 PCV      0.088200
     24 HC52       -1.9780    4.7820   -1.4570 hx        1 PCV      0.088200
     25 HN21        0.3630    4.9300   -2.1920 hn        1 PCV      0.466133
     26 HN22        0.2350    4.4120   -0.5990 hn        1 PCV      0.466133
     27 HO3         0.1580    0.7300   -2.6960 ho        1 PCV      0.494000
     28 H23         0.6010    3.3090   -1.7720 hn        1 PCV      0.466133
@<TRIPOS>BOND
     1    1    2 1   
     2    1    5 1   
     3    1    6 1   
     4    2    3 2   
     5    2    4 1   
     6    4    5 1   
     7    4   15 1   
     8    4   16 1   
     9    5   17 1   
    10    5   18 1   
    11    6    7 1   
    12    6   12 1   
    13    6   19 1   
    14    7    8 1   
    15    7   11 1   
    16    7   20 1   
    17    8    9 1   
    18    8   21 1   
    19    8   22 1   
    20    9   10 1   
    21    9   23 1   
    22    9   24 1   
    23   10   25 1   
    24   10   26 1   
    25   10   28 1   
    26   11   27 1   
    27   12   13 1   
    28   12   14 1   
@<TRIPOS>SUBSTRUCTURE
     1 PCV         1 TEMP              0 ****  ****    0 ROOT
