@<TRIPOS>MOLECULE
PCW
  138   137     1     0     0
SMALL
bcc


@<TRIPOS>ATOM
      1 C1         -0.1280   -4.4840   -1.3400 c3        1 PCW      0.183400
      2 C2         -0.9420   -4.4450   -0.0400 c3        1 PCW      0.133100
      3 C3         -0.0760   -4.2450    1.2030 c3        1 PCW      0.118400
      4 C4          4.2860   -5.1430   -1.3250 c3        1 PCW      0.194400
      5 C5          4.6890   -5.5700    0.0990 c3        1 PCW      0.078800
      6 C6          4.7670   -7.9830   -0.4410 c3        1 PCW      0.075767
      7 C7          5.0050   -7.2070    1.8510 c3        1 PCW      0.075767
      8 C8          2.8470   -7.0850    0.7640 c3        1 PCW      0.075767
      9 C11         2.0700   -3.1720    1.3200 c         1 PCW      0.669100
     10 C12         2.8660   -2.0400    0.7510 c3        1 PCW     -0.141400
     11 C13         4.0120   -1.6520    1.6590 c3        1 PCW     -0.074400
     12 C14         4.8920   -0.6120    0.9990 c3        1 PCW     -0.081400
     13 C15         6.0380   -0.2130    1.9030 c3        1 PCW     -0.078400
     14 C16         6.9240    0.8200    1.2410 c3        1 PCW     -0.080400
     15 C17         8.0720    1.2180    2.1440 c3        1 PCW     -0.076400
     16 C18         8.9600    2.2490    1.4780 c3        1 PCW     -0.049200
     17 C19        10.0960    2.6530    2.3390 c2        1 PCW     -0.177200
     18 C20        11.0560    3.4990    1.9510 c2        1 PCW     -0.171200
     19 C21        11.1050    4.1320    0.6130 c3        1 PCW     -0.050200
     20 C22        12.2670    5.0930    0.4720 c3        1 PCW     -0.077400
     21 C23        12.2910    5.7250   -0.9030 c3        1 PCW     -0.079400
     22 C24        13.4520    6.6860   -1.0460 c3        1 PCW     -0.078400
     23 C25        13.4760    7.3180   -2.4210 c3        1 PCW     -0.079400
     24 C26        14.6370    8.2780   -2.5640 c3        1 PCW     -0.079400
     25 C27        14.6620    8.9110   -3.9390 c3        1 PCW     -0.080400
     26 C28        15.8170    9.8680   -4.0860 c3        1 PCW     -0.092100
     27 C32        -3.8560   -2.1530    0.2730 c3        1 PCW     -0.127400
     28 C33        -5.3210   -2.5230    0.3680 c3        1 PCW     -0.079400
     29 C34        -6.1960   -1.2990    0.2070 c3        1 PCW     -0.078400
     30 C35        -7.6630   -1.6650    0.2840 c3        1 PCW     -0.079400
     31 C36        -8.5410   -0.4420    0.1270 c3        1 PCW     -0.079400
     32 C37       -10.0080   -0.8080    0.2050 c3        1 PCW     -0.077400
     33 C38       -10.8860    0.4160    0.0470 c3        1 PCW     -0.049200
     34 C39       -12.3290    0.0870    0.1210 c2        1 PCW     -0.174200
     35 C40       -13.3040    0.9960    0.0100 c2        1 PCW     -0.174200
     36 C41       -13.0610    2.4420   -0.2020 c3        1 PCW     -0.049200
     37 C42       -14.3490    3.2350   -0.2880 c3        1 PCW     -0.077400
     38 C43       -14.0710    4.7070   -0.5030 c3        1 PCW     -0.079400
     39 C44       -15.3560    5.5020   -0.5900 c3        1 PCW     -0.079400
     40 C45       -15.0790    6.9740   -0.8050 c3        1 PCW     -0.079400
     41 C46       -16.3640    7.7690   -0.8920 c3        1 PCW     -0.079400
     42 C47       -16.0880    9.2420   -1.1070 c3        1 PCW     -0.080400
     43 C48       -17.3650   10.0370   -1.1940 c3        1 PCW     -0.092100
     44 N           4.3190   -6.9590    0.5470 n4        1 PCW     -0.575800
     45 O2         -1.8570   -3.3500   -0.2080 os        1 PCW     -0.428900
     46 O3          0.7490   -3.0890    1.0020 os        1 PCW     -0.421900
     47 O11         2.4720   -4.1310    1.9940 o         1 PCW     -0.612000
     48 O31        -3.1500   -4.2330    1.3940 o         1 PCW     -0.555000
     49 O1P         1.5920   -4.7630   -3.5230 o         1 PCW     -0.814000
     50 O2P         2.5400   -6.9440   -2.3050 o         1 PCW     -0.814000
     51 O3P         0.6960   -5.6160   -1.2950 os        1 PCW     -0.580200
     52 O4P         2.9680   -4.7330   -1.3690 os        1 PCW     -0.581200
     53 P           1.9320   -5.5950   -2.3690 p5        1 PCW      1.438800
     54 H11        -0.8180   -4.5580   -2.2220 h1        1 PCW      0.055200
     55 H12         0.5040   -3.5600   -1.4380 h1        1 PCW      0.055200
     56 H2         -1.5170   -5.4040    0.0940 h1        1 PCW      0.084700
     57 H31         0.5490   -5.1630    1.3620 h1        1 PCW      0.071700
     58 H32        -0.7120   -4.0330    2.1020 h1        1 PCW      0.071700
     59 H41         4.4930   -5.9580   -2.0710 h1        1 PCW      0.053700
     60 H42         4.9420   -4.2500   -1.5510 h1        1 PCW      0.053700
     61 H51         5.8110   -5.4980    0.1750 hx        1 PCW      0.091200
     62 H52         4.2070   -4.8500    0.8270 hx        1 PCW      0.091200
     63 H61         5.8270   -7.7720   -0.7330 hx        1 PCW      0.101144
     64 H62         4.6930   -8.9980    0.0280 hx        1 PCW      0.101144
     65 H63         4.0960   -7.9510   -1.3550 hx        1 PCW      0.101144
     66 H71         4.7000   -6.4130    2.5830 hx        1 PCW      0.101144
     67 H72         4.7040   -8.2130    2.2440 hx        1 PCW      0.101144
     68 H73         6.1150   -7.1820    1.7020 hx        1 PCW      0.101144
     69 H81         2.3160   -6.9290   -0.2250 hx        1 PCW      0.101144
     70 H82         2.6230   -8.1110    1.1510 hx        1 PCW      0.101144
     71 H83         2.5110   -6.3020    1.4960 hx        1 PCW      0.101144
     72 H121        2.1950   -1.1610    0.5610 hc        1 PCW      0.096700
     73 H122        3.2470   -2.4040   -0.2460 hc        1 PCW      0.096700
     74 H131        4.6170   -2.5640    1.9070 hc        1 PCW      0.046200
     75 H132        3.6100   -1.2500    2.6260 hc        1 PCW      0.046200
     76 H141        4.2790    0.2940    0.7470 hc        1 PCW      0.045200
     77 H142        5.2960   -1.0160    0.0330 hc        1 PCW      0.045200
     78 H151        6.6470   -1.1190    2.1630 hc        1 PCW      0.039200
     79 H152        5.6330    0.1990    2.8650 hc        1 PCW      0.039200
     80 H161        6.3160    1.7280    0.9840 hc        1 PCW      0.042200
     81 H162        7.3270    0.4090    0.2780 hc        1 PCW      0.042200
     82 H171        8.6800    0.3110    2.4030 hc        1 PCW      0.040700
     83 H172        7.6690    1.6330    3.1050 hc        1 PCW      0.040700
     84 H181        8.3490    3.1580    1.2170 hc        1 PCW      0.048700
     85 H182        9.3520    1.8370    0.5070 hc        1 PCW      0.048700
     86 H19        10.1160    2.2140    3.3500 ha        1 PCW      0.121000
     87 H20        11.8750    3.7640    2.6400 ha        1 PCW      0.122000
     88 H211       10.1400    4.6790    0.4220 hc        1 PCW      0.047700
     89 H212       11.1810    3.3320   -0.1750 hc        1 PCW      0.047700
     90 H221       13.2310    4.5480    0.6520 hc        1 PCW      0.041200
     91 H222       12.1890    5.8950    1.2540 hc        1 PCW      0.041200
     92 H231       11.3270    6.2710   -1.0830 hc        1 PCW      0.039700
     93 H232       12.3670    4.9240   -1.6840 hc        1 PCW      0.039700
     94 H241       14.4160    6.1400   -0.8660 hc        1 PCW      0.039700
     95 H242       13.3750    7.4870   -0.2650 hc        1 PCW      0.039700
     96 H251       12.5120    7.8640   -2.6010 hc        1 PCW      0.039700
     97 H252       13.5520    6.5160   -3.2020 hc        1 PCW      0.039700
     98 H261       15.6010    7.7330   -2.3840 hc        1 PCW      0.039700
     99 H262       14.5610    9.0800   -1.7830 hc        1 PCW      0.039700
    100 H271       13.6970    9.4550   -4.1180 hc        1 PCW      0.038700
    101 H272       14.7370    8.1080   -4.7190 hc        1 PCW      0.038700
    102 H281       15.8170   10.3230   -5.1060 hc        1 PCW      0.032700
    103 H282       15.7470   10.6900   -3.3330 hc        1 PCW      0.032700
    104 H283       16.7890    9.3390   -3.9360 hc        1 PCW      0.032700
    105 H321       -3.6040   -1.3570    1.0250 hc        1 PCW      0.079200
    106 H322       -3.6160   -1.7500   -0.7460 hc        1 PCW      0.079200
    107 H331       -5.5710   -3.2750   -0.4260 hc        1 PCW      0.057200
    108 H332       -5.5200   -3.0110    1.3600 hc        1 PCW      0.057200
    109 H341       -5.9520   -0.5520    1.0080 hc        1 PCW      0.040700
    110 H342       -5.9810   -0.8090   -0.7790 hc        1 PCW      0.040700
    111 H351       -7.9070   -2.4090   -0.5190 hc        1 PCW      0.042700
    112 H352       -7.8760   -2.1580    1.2680 hc        1 PCW      0.042700
    113 H361       -8.2960    0.3030    0.9290 hc        1 PCW      0.040200
    114 H362       -8.3280    0.0500   -0.8590 hc        1 PCW      0.040200
    115 H371      -10.2540   -1.5530   -0.5970 hc        1 PCW      0.042200
    116 H372      -10.2220   -1.3000    1.1900 hc        1 PCW      0.042200
    117 H381      -10.6330    1.1660    0.8470 hc        1 PCW      0.047200
    118 H382      -10.6660    0.9120   -0.9390 hc        1 PCW      0.047200
    119 H39       -12.5740   -0.9760    0.2770 ha        1 PCW      0.122000
    120 H40       -14.3610    0.6880    0.0730 ha        1 PCW      0.122000
    121 H411      -12.4290    2.8410    0.6400 hc        1 PCW      0.047200
    122 H412      -12.4660    2.5870   -1.1460 hc        1 PCW      0.047200
    123 H421      -14.9760    2.8430   -1.1310 hc        1 PCW      0.041700
    124 H422      -14.9390    3.0980    0.6560 hc        1 PCW      0.041700
    125 H431      -13.4430    5.0990    0.3400 hc        1 PCW      0.039700
    126 H432      -13.4790    4.8440   -1.4470 hc        1 PCW      0.039700
    127 H441      -15.9840    5.1100   -1.4330 hc        1 PCW      0.039700
    128 H442      -15.9470    5.3640    0.3530 hc        1 PCW      0.039700
    129 H451      -14.4510    7.3660    0.0380 hc        1 PCW      0.039700
    130 H452      -14.4870    7.1110   -1.7490 hc        1 PCW      0.039700
    131 H461      -16.9920    7.3770   -1.7360 hc        1 PCW      0.039700
    132 H462      -16.9560    7.6310    0.0510 hc        1 PCW      0.039700
    133 H471      -15.4590    9.6310   -0.2640 hc        1 PCW      0.038700
    134 H472      -15.4950    9.3760   -2.0500 hc        1 PCW      0.038700
    135 H481      -17.9950    9.6800   -2.0450 hc        1 PCW      0.032700
    136 H482      -17.9580    9.9340   -0.2540 hc        1 PCW      0.032700
    137 H483      -17.1390   11.1190   -1.3530 hc        1 PCW      0.032700
    138 C31        -2.9830   -3.3340    0.5660 c         1 PCW      0.637100
@<TRIPOS>BOND
     1    1    2 1   
     2    1   51 1   
     3    1   54 1   
     4    1   55 1   
     5    2    3 1   
     6    2   45 1   
     7    2   56 1   
     8    3   46 1   
     9    3   57 1   
    10    3   58 1   
    11    4    5 1   
    12    4   52 1   
    13    4   59 1   
    14    4   60 1   
    15    5   44 1   
    16    5   61 1   
    17    5   62 1   
    18    6   44 1   
    19    6   63 1   
    20    6   64 1   
    21    6   65 1   
    22    7   44 1   
    23    7   66 1   
    24    7   67 1   
    25    7   68 1   
    26    8   44 1   
    27    8   69 1   
    28    8   70 1   
    29    8   71 1   
    30    9   10 1   
    31    9   46 1   
    32    9   47 2   
    33   10   11 1   
    34   10   72 1   
    35   10   73 1   
    36   11   12 1   
    37   11   74 1   
    38   11   75 1   
    39   12   13 1   
    40   12   76 1   
    41   12   77 1   
    42   13   14 1   
    43   13   78 1   
    44   13   79 1   
    45   14   15 1   
    46   14   80 1   
    47   14   81 1   
    48   15   16 1   
    49   15   82 1   
    50   15   83 1   
    51   16   17 1   
    52   16   84 1   
    53   16   85 1   
    54   17   18 2   
    55   17   86 1   
    56   18   19 1   
    57   18   87 1   
    58   19   20 1   
    59   19   88 1   
    60   19   89 1   
    61   20   21 1   
    62   20   90 1   
    63   20   91 1   
    64   21   22 1   
    65   21   92 1   
    66   21   93 1   
    67   22   23 1   
    68   22   94 1   
    69   22   95 1   
    70   23   24 1   
    71   23   96 1   
    72   23   97 1   
    73   24   25 1   
    74   24   98 1   
    75   24   99 1   
    76   25   26 1   
    77   25  100 1   
    78   25  101 1   
    79   26  102 1   
    80   26  103 1   
    81   26  104 1   
    82   27   28 1   
    83   27  105 1   
    84   27  106 1   
    85   27  138 1   
    86   28   29 1   
    87   28  107 1   
    88   28  108 1   
    89   29   30 1   
    90   29  109 1   
    91   29  110 1   
    92   30   31 1   
    93   30  111 1   
    94   30  112 1   
    95   31   32 1   
    96   31  113 1   
    97   31  114 1   
    98   32   33 1   
    99   32  115 1   
   100   32  116 1   
   101   33   34 1   
   102   33  117 1   
   103   33  118 1   
   104   34   35 2   
   105   34  119 1   
   106   35   36 1   
   107   35  120 1   
   108   36   37 1   
   109   36  121 1   
   110   36  122 1   
   111   37   38 1   
   112   37  123 1   
   113   37  124 1   
   114   38   39 1   
   115   38  125 1   
   116   38  126 1   
   117   39   40 1   
   118   39  127 1   
   119   39  128 1   
   120   40   41 1   
   121   40  129 1   
   122   40  130 1   
   123   41   42 1   
   124   41  131 1   
   125   41  132 1   
   126   42   43 1   
   127   42  133 1   
   128   42  134 1   
   129   43  135 1   
   130   43  136 1   
   131   43  137 1   
   132   45  138 1   
   133   48  138 2   
   134   49   53 1   
   135   50   53 1   
   136   51   53 1   
   137   52   53 1   
@<TRIPOS>SUBSTRUCTURE
     1 PCW         1 TEMP              0 ****  ****    0 ROOT
