@<TRIPOS>MOLECULE
PCW
  138   137     1     0     0
SMALL
bcc


@<TRIPOS>ATOM
      1 C1         -1.9800   -0.5160   -0.5880 c3        1 PCW      0.176400
      2 C2         -0.5070   -0.1010   -0.6790 c3        1 PCW      0.135100
      3 C3          0.0830    0.2650    0.6820 c3        1 PCW      0.113400
      4 C4         -4.6890    0.2060    2.7170 c3        1 PCW      0.197400
      5 C5         -3.8550    1.0330    3.7150 c3        1 PCW      0.079800
      6 C6         -4.9520    3.1660    3.1000 c3        1 PCW      0.075433
      7 C7         -3.0760    3.1250    4.6480 c3        1 PCW      0.075433
      8 C8         -2.6990    2.6990    2.2970 c3        1 PCW      0.075433
      9 C11        -0.4070   -0.7560    2.8070 c         1 PCW      0.664100
     10 C12        -0.5300   -2.0750    3.5060 c3        1 PCW     -0.135400
     11 C13        -0.2450   -1.9450    4.9860 c3        1 PCW     -0.075400
     12 C14        -0.5170   -3.2510    5.7020 c3        1 PCW     -0.080400
     13 C15        -0.2160   -3.1340    7.1810 c3        1 PCW     -0.078400
     14 C16        -0.5010   -4.4340    7.9020 c3        1 PCW     -0.080400
     15 C17        -0.1990   -4.3190    9.3800 c3        1 PCW     -0.076400
     16 C18        -0.4920   -5.6180   10.1010 c3        1 PCW     -0.048200
     17 C19        -0.2070   -5.5320   11.5530 c2        1 PCW     -0.177200
     18 C20        -0.4670   -6.5160   12.4210 c2        1 PCW     -0.171200
     19 C21        -1.0770   -7.8110   12.0380 c3        1 PCW     -0.050200
     20 C22        -1.1840   -8.7640   13.2100 c3        1 PCW     -0.077400
     21 C23        -1.8100  -10.0770   12.7910 c3        1 PCW     -0.079400
     22 C24        -1.9190  -11.0310   13.9610 c3        1 PCW     -0.078400
     23 C25        -2.5450  -12.3440   13.5430 c3        1 PCW     -0.079400
     24 C26        -2.6550  -13.2980   14.7130 c3        1 PCW     -0.079400
     25 C27        -3.2820  -14.6120   14.2960 c3        1 PCW     -0.080400
     26 C28        -3.3940  -15.5650   15.4580 c3        1 PCW     -0.092100
     27 C32         1.9660   -2.2640   -2.4230 c3        1 PCW     -0.127400
     28 C33         2.6890   -1.9700   -3.7200 c3        1 PCW     -0.079400
     29 C34         3.3890   -3.2090   -4.2370 c3        1 PCW     -0.078400
     30 C35         4.0990   -2.9270   -5.5440 c3        1 PCW     -0.079400
     31 C36         4.8050   -4.1610   -6.0620 c3        1 PCW     -0.079400
     32 C37         5.5150   -3.8780   -7.3680 c3        1 PCW     -0.077400
     33 C38         6.2220   -5.1140   -7.8850 c3        1 PCW     -0.049200
     34 C39         6.9280   -4.8650   -9.1640 c2        1 PCW     -0.174200
     35 C40         7.6360   -5.7950   -9.8140 c2        1 PCW     -0.174200
     36 C41         7.8020   -7.1870   -9.3350 c3        1 PCW     -0.049200
     37 C42         8.6460   -8.0220  -10.2770 c3        1 PCW     -0.077400
     38 C43         8.7990   -9.4380   -9.7630 c3        1 PCW     -0.079400
     39 C44         9.6420  -10.2740  -10.7020 c3        1 PCW     -0.079400
     40 C45         9.7950  -11.6900  -10.1890 c3        1 PCW     -0.079400
     41 C46        10.6380  -12.5260  -11.1280 c3        1 PCW     -0.079400
     42 C47        10.7930  -13.9420  -10.6160 c3        1 PCW     -0.080400
     43 C48        11.6310  -14.7790  -11.5470 c3        1 PCW     -0.092100
     44 N          -3.6590    2.4980    3.4230 n4        1 PCW     -0.576800
     45 O2          0.1700   -1.2300   -1.2530 os        1 PCW     -0.426900
     46 O3          0.0440   -0.8900    1.5310 os        1 PCW     -0.419900
     47 O11        -0.6640    0.3720    3.2490 o         1 PCW     -0.609000
     48 O31         1.8670    0.1220   -1.8080 o         1 PCW     -0.555000
     49 O1P        -4.7820   -0.8160   -0.6670 o         1 PCW     -0.814000
     50 O2P        -4.8940    1.6150    0.4330 o         1 PCW     -0.814000
     51 O3P        -2.7200    0.6250   -0.2500 os        1 PCW     -0.580200
     52 O4P        -3.9090   -0.2450    1.6720 os        1 PCW     -0.578200
     53 P          -4.2800    0.3010    0.1330 p5        1 PCW      1.438800
     54 H11        -2.1200   -1.2990    0.2060 h1        1 PCW      0.056200
     55 H12        -2.3430   -0.9160   -1.5720 h1        1 PCW      0.056200
     56 H2         -0.3930    0.7940   -1.3520 h1        1 PCW      0.087700
     57 H31        -0.5130    1.1110    1.1160 h1        1 PCW      0.074700
     58 H32         1.1650    0.5420    0.5820 h1        1 PCW      0.074700
     59 H41        -5.0370   -0.6930    3.3090 h1        1 PCW      0.053200
     60 H42        -5.5840    0.7800    2.3500 h1        1 PCW      0.053200
     61 H51        -2.8250    0.5710    3.7750 hx        1 PCW      0.091200
     62 H52        -4.3620    0.9730    4.7190 hx        1 PCW      0.091200
     63 H61        -5.2800    2.8760    2.0540 hx        1 PCW      0.100811
     64 H62        -4.8090    4.2770    3.1420 hx        1 PCW      0.100811
     65 H63        -5.7240    2.8520    3.8480 hx        1 PCW      0.100811
     66 H71        -3.8100    3.0540    5.4920 hx        1 PCW      0.100811
     67 H72        -2.1290    2.5870    4.9190 hx        1 PCW      0.100811
     68 H73        -2.8480    4.2030    4.4410 hx        1 PCW      0.100811
     69 H81        -1.7210    2.2100    2.5520 hx        1 PCW      0.100811
     70 H82        -2.5610    3.7980    2.1300 hx        1 PCW      0.100811
     71 H83        -3.1280    2.2260    1.3610 hx        1 PCW      0.100811
     72 H121       -1.5800   -2.4390    3.3340 hc        1 PCW      0.088700
     73 H122        0.1670   -2.8170    3.0320 hc        1 PCW      0.088700
     74 H131        0.8250   -1.6440    5.1390 hc        1 PCW      0.049700
     75 H132       -0.8830   -1.1300    5.4190 hc        1 PCW      0.049700
     76 H141       -1.5900   -3.5450    5.5570 hc        1 PCW      0.044700
     77 H142        0.1120   -4.0650    5.2530 hc        1 PCW      0.044700
     78 H151       -0.8360   -2.3130    7.6270 hc        1 PCW      0.040200
     79 H152        0.8600   -2.8520    7.3250 hc        1 PCW      0.040200
     80 H161        0.1180   -5.2560    7.4540 hc        1 PCW      0.041700
     81 H162       -1.5780   -4.7160    7.7580 hc        1 PCW      0.041700
     82 H171       -0.8140   -3.4940    9.8270 hc        1 PCW      0.040700
     83 H172        0.8790   -4.0430    9.5240 hc        1 PCW      0.040700
     84 H181        0.1240   -6.4450    9.6510 hc        1 PCW      0.048200
     85 H182       -1.5700   -5.8990    9.9460 hc        1 PCW      0.048200
     86 H19         0.2470   -4.5890   11.9010 ha        1 PCW      0.121000
     87 H20        -0.2280   -6.3920   13.4900 ha        1 PCW      0.122000
     88 H211       -2.1000   -7.6280   11.6080 hc        1 PCW      0.047700
     89 H212       -0.4660   -8.2860   11.2220 hc        1 PCW      0.047700
     90 H221       -0.1640   -8.9520   13.6370 hc        1 PCW      0.041200
     91 H222       -1.8010   -8.2960   14.0210 hc        1 PCW      0.041200
     92 H231       -1.1920  -10.5460   11.9800 hc        1 PCW      0.039700
     93 H232       -2.8290   -9.8890   12.3630 hc        1 PCW      0.039700
     94 H241       -0.8990  -11.2200   14.3890 hc        1 PCW      0.039700
     95 H242       -2.5360  -10.5620   14.7720 hc        1 PCW      0.039700
     96 H251       -1.9280  -12.8140   12.7320 hc        1 PCW      0.039700
     97 H252       -3.5650  -12.1550   13.1140 hc        1 PCW      0.039700
     98 H261       -1.6360  -13.4880   15.1410 hc        1 PCW      0.039700
     99 H262       -3.2720  -12.8290   15.5240 hc        1 PCW      0.039700
    100 H271       -2.6640  -15.0790   13.4830 hc        1 PCW      0.038700
    101 H272       -4.3010  -14.4200   13.8660 hc        1 PCW      0.038700
    102 H281       -3.8580  -16.5260   15.1290 hc        1 PCW      0.032700
    103 H282       -2.3860  -15.7870   15.8840 hc        1 PCW      0.032700
    104 H283       -4.0260  -15.1270   16.2670 hc        1 PCW      0.032700
    105 H321        1.1500   -3.0170   -2.5870 hc        1 PCW      0.079200
    106 H322        2.6790   -2.6890   -1.6650 hc        1 PCW      0.079200
    107 H331        3.4340   -1.1470   -3.5560 hc        1 PCW      0.057700
    108 H332        1.9540   -1.6040   -4.4850 hc        1 PCW      0.057700
    109 H341        2.6410   -4.0320   -4.3850 hc        1 PCW      0.040700
    110 H342        4.1310   -3.5680   -3.4760 hc        1 PCW      0.040700
    111 H351        3.3560   -2.5710   -6.3060 hc        1 PCW      0.043200
    112 H352        4.8430   -2.1000   -5.3970 hc        1 PCW      0.043200
    113 H361        5.5470   -4.5180   -5.3000 hc        1 PCW      0.039700
    114 H362        4.0600   -4.9870   -6.2090 hc        1 PCW      0.039700
    115 H371        6.2600   -3.0530   -7.2210 hc        1 PCW      0.042200
    116 H372        4.7730   -3.5230   -8.1310 hc        1 PCW      0.042200
    117 H381        5.4740   -5.9430   -8.0270 hc        1 PCW      0.047200
    118 H382        6.9590   -5.4760   -7.1160 hc        1 PCW      0.047200
    119 H39         6.8420   -3.8450   -9.5720 ha        1 PCW      0.122000
    120 H40         8.1390   -5.5480  -10.7640 ha        1 PCW      0.122000
    121 H411        6.7900   -7.6640   -9.2150 hc        1 PCW      0.047200
    122 H412        8.2760   -7.1770   -8.3150 hc        1 PCW      0.047200
    123 H421        9.6580   -7.5520  -10.3920 hc        1 PCW      0.041700
    124 H422        8.1710   -8.0400  -11.2930 hc        1 PCW      0.041700
    125 H431        9.2730   -9.4200   -8.7460 hc        1 PCW      0.039700
    126 H432        7.7860   -9.9080   -9.6470 hc        1 PCW      0.039700
    127 H441        9.1670  -10.2920  -11.7180 hc        1 PCW      0.039700
    128 H442       10.6540   -9.8040  -10.8180 hc        1 PCW      0.039700
    129 H451        8.7830  -12.1600  -10.0730 hc        1 PCW      0.039200
    130 H452       10.2700  -11.6720   -9.1720 hc        1 PCW      0.039200
    131 H461       10.1640  -12.5440  -12.1440 hc        1 PCW      0.039700
    132 H462       11.6500  -12.0560  -11.2440 hc        1 PCW      0.039700
    133 H471        9.7800  -14.4100  -10.4980 hc        1 PCW      0.038200
    134 H472       11.2660  -13.9220   -9.5980 hc        1 PCW      0.038200
    135 H481       11.7330  -15.8180  -11.1510 hc        1 PCW      0.032700
    136 H482       11.1630  -14.8310  -12.5600 hc        1 PCW      0.032700
    137 H483       12.6530  -14.3420  -11.6580 hc        1 PCW      0.032700
    138 C31         1.3870   -1.0130   -1.8370 c         1 PCW      0.637100
@<TRIPOS>BOND
     1    1    2 1   
     2    1   51 1   
     3    1   54 1   
     4    1   55 1   
     5    2    3 1   
     6    2   45 1   
     7    2   56 1   
     8    3   46 1   
     9    3   57 1   
    10    3   58 1   
    11    4    5 1   
    12    4   52 1   
    13    4   59 1   
    14    4   60 1   
    15    5   44 1   
    16    5   61 1   
    17    5   62 1   
    18    6   44 1   
    19    6   63 1   
    20    6   64 1   
    21    6   65 1   
    22    7   44 1   
    23    7   66 1   
    24    7   67 1   
    25    7   68 1   
    26    8   44 1   
    27    8   69 1   
    28    8   70 1   
    29    8   71 1   
    30    9   10 1   
    31    9   46 1   
    32    9   47 2   
    33   10   11 1   
    34   10   72 1   
    35   10   73 1   
    36   11   12 1   
    37   11   74 1   
    38   11   75 1   
    39   12   13 1   
    40   12   76 1   
    41   12   77 1   
    42   13   14 1   
    43   13   78 1   
    44   13   79 1   
    45   14   15 1   
    46   14   80 1   
    47   14   81 1   
    48   15   16 1   
    49   15   82 1   
    50   15   83 1   
    51   16   17 1   
    52   16   84 1   
    53   16   85 1   
    54   17   18 2   
    55   17   86 1   
    56   18   19 1   
    57   18   87 1   
    58   19   20 1   
    59   19   88 1   
    60   19   89 1   
    61   20   21 1   
    62   20   90 1   
    63   20   91 1   
    64   21   22 1   
    65   21   92 1   
    66   21   93 1   
    67   22   23 1   
    68   22   94 1   
    69   22   95 1   
    70   23   24 1   
    71   23   96 1   
    72   23   97 1   
    73   24   25 1   
    74   24   98 1   
    75   24   99 1   
    76   25   26 1   
    77   25  100 1   
    78   25  101 1   
    79   26  102 1   
    80   26  103 1   
    81   26  104 1   
    82   27   28 1   
    83   27  105 1   
    84   27  106 1   
    85   27  138 1   
    86   28   29 1   
    87   28  107 1   
    88   28  108 1   
    89   29   30 1   
    90   29  109 1   
    91   29  110 1   
    92   30   31 1   
    93   30  111 1   
    94   30  112 1   
    95   31   32 1   
    96   31  113 1   
    97   31  114 1   
    98   32   33 1   
    99   32  115 1   
   100   32  116 1   
   101   33   34 1   
   102   33  117 1   
   103   33  118 1   
   104   34   35 2   
   105   34  119 1   
   106   35   36 1   
   107   35  120 1   
   108   36   37 1   
   109   36  121 1   
   110   36  122 1   
   111   37   38 1   
   112   37  123 1   
   113   37  124 1   
   114   38   39 1   
   115   38  125 1   
   116   38  126 1   
   117   39   40 1   
   118   39  127 1   
   119   39  128 1   
   120   40   41 1   
   121   40  129 1   
   122   40  130 1   
   123   41   42 1   
   124   41  131 1   
   125   41  132 1   
   126   42   43 1   
   127   42  133 1   
   128   42  134 1   
   129   43  135 1   
   130   43  136 1   
   131   43  137 1   
   132   45  138 1   
   133   48  138 2   
   134   49   53 1   
   135   50   53 1   
   136   51   53 1   
   137   52   53 1   
@<TRIPOS>SUBSTRUCTURE
     1 PCW         1 TEMP              0 ****  ****    0 ROOT
