@<TRIPOS>MOLECULE
PCX
   31    30     1     0     0
SMALL
bcc


@<TRIPOS>ATOM
      1 N1          1.7390   -1.4380    1.5480 n         1 PCX     -0.420800
      2 C1          0.7480   -1.5430    0.5380 c3        1 PCX     -0.039300
      3 C2          0.5490   -0.1930   -0.1160 c3        1 PCX     -0.087400
      4 C4         -0.9030   -0.0360   -0.5180 c3        1 PCX     -0.092400
      5 C5         -1.0750    1.2500   -1.2920 c3        1 PCX      0.177800
      6 N2         -2.4440    1.6360   -1.2730 nh        1 PCX     -0.772000
      7 C6         -2.9180    2.6140   -2.1840 c2        1 PCX      0.320000
      8 N3         -3.9160    3.5360   -1.7780 nh        1 PCX     -0.813600
      9 N4         -2.4360    2.6660   -3.3960 n1        1 PCX     -0.374000
     10 C3          1.1920   -2.5470   -0.5020 c         1 PCX      0.921600
     11 O1          2.1540   -2.2760   -1.2670 o         1 PCX     -0.828800
     12 O2          0.5990   -3.6530   -0.6040 o         1 PCX     -0.828800
     13 C8          3.1860   -1.2670    1.5560 c         1 PCX      0.680500
     14 C9          3.2120   -1.5520    3.0200 cy        1 PCX     -0.216400
     15 O4          4.0260   -1.0180    0.7150 o         1 PCX     -0.639500
     16 C7          1.7370   -1.5000    2.9870 cy        1 PCX      0.077000
     17 H1         -0.0940   -1.8390    0.9380 h1        1 PCX      0.055700
     18 H2C1        1.1160   -0.1300   -0.9110 hc        1 PCX      0.038700
     19 H2C2        0.7910    0.5140    0.5150 hc        1 PCX      0.038700
     20 H4C1       -1.4620   -0.0110    0.2840 hc        1 PCX      0.069200
     21 H4C2       -1.1690   -0.7920   -1.0780 hc        1 PCX      0.069200
     22 H5C1       -0.7870    1.1150   -2.2180 h1        1 PCX      0.034200
     23 H5C2       -0.5310    1.9550   -0.8800 h1        1 PCX      0.034200
     24 H2         -3.0200    1.2410   -0.6870 hn        1 PCX      0.406800
     25 H3N1       -4.2600    3.4940   -0.9330 hn        1 PCX      0.382300
     26 H3N2       -4.2210    4.1660   -2.3650 hn        1 PCX      0.382300
     27 H9C1        3.7560   -0.9980    3.6140 hc        1 PCX      0.059700
     28 H9C2        3.5200   -2.4580    3.2210 hc        1 PCX      0.059700
     29 H7C1        1.3800   -0.6870    3.3980 h1        1 PCX      0.077700
     30 H7C2        1.3250   -2.3190    3.3270 h1        1 PCX      0.077700
     31 HN1        -1.7930    2.0710   -3.6580 DU        1 PCX      0.148000
@<TRIPOS>BOND
     1    1    2 1   
     2    1   13 1   
     3    1   16 1   
     4    2    3 1   
     5    2   10 1   
     6    2   17 1   
     7    3    4 1   
     8    3   18 1   
     9    3   19 1   
    10    4    5 1   
    11    4   20 1   
    12    4   21 1   
    13    5    6 1   
    14    5   22 1   
    15    5   23 1   
    16    6    7 1   
    17    6   24 1   
    18    7    8 1   
    19    7    9 2   
    20    8   25 1   
    21    8   26 1   
    22   10   11 1   
    23   10   12 1   
    24   13   14 1   
    25   13   15 2   
    26   14   16 1   
    27   14   27 1   
    28   14   28 1   
    29   16   29 1   
    30   16   30 1   
@<TRIPOS>SUBSTRUCTURE
     1 PCX         1 TEMP              0 ****  ****    0 ROOT
