@<TRIPOS>MOLECULE
PCX
   31    31     1     0     0
SMALL
bcc


@<TRIPOS>ATOM
      1 N1         -0.5780    1.3460   -0.8630 n         1 PCX     -0.419800
      2 C1         -0.0150    2.3630   -1.7020 c3        1 PCX     -0.039300
      3 C2          1.4490    2.1380   -2.1110 c3        1 PCX     -0.085400
      4 C4          1.6380    0.8940   -2.9510 c3        1 PCX     -0.101400
      5 C5          3.0670    0.8380   -3.4900 c3        1 PCX      0.183800
      6 N2          3.3050   -0.3230   -4.3210 nh        1 PCX     -0.847200
      7 C6          4.4920   -0.4030   -5.1170 c2        1 PCX      0.760100
      8 N3          5.5780    0.4590   -4.7620 nh        1 PCX     -0.883800
      9 N4          4.6630   -1.2370   -6.1220 n2        1 PCX     -0.917100
     10 C3         -0.8520    2.6310   -3.0090 c         1 PCX      0.923600
     11 O1         -1.2470    1.6450   -3.6920 o         1 PCX     -0.828300
     12 O2         -1.0400    3.8400   -3.2990 o         1 PCX     -0.828300
     13 C8          0.0040    0.6440    0.2030 c         1 PCX      0.681500
     14 C9         -0.8650   -0.5980   -0.0880 cy        1 PCX     -0.216400
     15 O4          0.8400    0.9220    1.0650 o         1 PCX     -0.639500
     16 C7         -1.3840    0.1970   -1.3180 cy        1 PCX      0.078000
     17 H1         -0.0400    3.3190   -1.0960 h1        1 PCX      0.058700
     18 H2C1        2.0950    2.0770   -1.1950 hc        1 PCX      0.039700
     19 H2C2        1.7620    3.0420   -2.6960 hc        1 PCX      0.039700
     20 H4C1        0.8890    0.9080   -3.7920 hc        1 PCX      0.067700
     21 H4C2        1.4290   -0.0180   -2.3330 hc        1 PCX      0.067700
     22 H5C1        3.2760    1.7970   -4.0490 h1        1 PCX      0.034700
     23 H5C2        3.7800    0.7900   -2.6170 h1        1 PCX      0.034700
     24 H2          2.4840   -0.6110   -4.8160 hn        1 PCX      0.404800
     25 H3N1        5.6600    0.6090   -3.7790 hn        1 PCX      0.390300
     26 H3N2        6.4450    0.1780   -5.1710 hn        1 PCX      0.390300
     27 H9C1       -0.2710   -1.5020   -0.3330 hc        1 PCX      0.060200
     28 H9C2       -1.6200   -0.8250    0.6890 hc        1 PCX      0.060200
     29 H7C1       -1.0850   -0.1990   -2.3190 h1        1 PCX      0.075700
     30 H7C2       -2.4730    0.4350   -1.3140 h1        1 PCX      0.075700
     31 HN1         3.8480   -1.7370   -6.4010 hn        1 PCX      0.383400
@<TRIPOS>BOND
     1    1    2 1   
     2    1   13 1   
     3    1   16 1   
     4    2    3 1   
     5    2   10 1   
     6    2   17 1   
     7    3    4 1   
     8    3   18 1   
     9    3   19 1   
    10    4    5 1   
    11    4   20 1   
    12    4   21 1   
    13    5    6 1   
    14    5   22 1   
    15    5   23 1   
    16    6    7 1   
    17    6   24 1   
    18    7    8 1   
    19    7    9 2   
    20    8   25 1   
    21    8   26 1   
    22    9   31 1   
    23   10   11 1   
    24   10   12 1   
    25   13   14 1   
    26   13   15 2   
    27   14   16 1   
    28   14   27 1   
    29   14   28 1   
    30   16   29 1   
    31   16   30 1   
@<TRIPOS>SUBSTRUCTURE
     1 PCX         1 TEMP              0 ****  ****    0 ROOT
