@<TRIPOS>MOLECULE
PCX
   31    31     1     0     0
SMALL
bcc


@<TRIPOS>ATOM
      1 N1         -0.0250    0.2280   -0.0750 n         1 PCX     -0.421800
      2 C1         -0.9320    0.0730   -1.1730 c3        1 PCX     -0.038300
      3 C2         -0.7730   -1.2260   -1.9770 c3        1 PCX     -0.085400
      4 C4         -1.0500   -2.4650   -1.1550 c3        1 PCX     -0.100400
      5 C5         -1.0960   -3.6920   -2.0650 c3        1 PCX      0.187800
      6 N2         -1.3610   -4.9200   -1.3490 nh        1 PCX     -0.853200
      7 C6         -1.0880   -6.1850   -1.9530 c2        1 PCX      0.765100
      8 N3         -0.9720   -6.2120   -3.3800 nh        1 PCX     -0.883800
      9 N4         -0.9680   -7.3210   -1.2960 n2        1 PCX     -0.921100
     10 C3         -2.4470    0.2060   -0.7610 c         1 PCX      0.923600
     11 O1         -2.8470   -0.3740    0.2860 o         1 PCX     -0.827800
     12 O2         -3.1680    0.8710   -1.5480 o         1 PCX     -0.827800
     13 C8          1.3410   -0.0670    0.0170 c         1 PCX      0.681500
     14 C9          1.2220   -0.3330    1.5320 cy        1 PCX     -0.217400
     15 O4          2.2800   -0.0660   -0.7830 o         1 PCX     -0.639500
     16 C7         -0.3030   -0.1020    1.3360 cy        1 PCX      0.082000
     17 H1         -0.7120    0.9250   -1.8860 h1        1 PCX      0.058700
     18 H2C1       -1.5020   -1.1670   -2.8280 hc        1 PCX      0.040700
     19 H2C2        0.2610   -1.2820   -2.4090 hc        1 PCX      0.040700
     20 H4C1       -2.0260   -2.3320   -0.6090 hc        1 PCX      0.065700
     21 H4C2       -0.2470   -2.5930   -0.3820 hc        1 PCX      0.065700
     22 H5C1       -0.1230   -3.7490   -2.6350 h1        1 PCX      0.035200
     23 H5C2       -1.9250   -3.5500   -2.8170 h1        1 PCX      0.035200
     24 H2         -1.1150   -4.8760   -0.3820 hn        1 PCX      0.403800
     25 H3N1       -1.0590   -7.1330   -3.7560 hn        1 PCX      0.390800
     26 H3N2       -1.5780   -5.5640   -3.8370 hn        1 PCX      0.390800
     27 H9C1        1.5060   -1.3640    1.8220 hc        1 PCX      0.059700
     28 H9C2        1.7390    0.4090    2.1720 hc        1 PCX      0.059700
     29 H7C1       -0.9550   -0.9980    1.4720 h1        1 PCX      0.074700
     30 H7C2       -0.7360    0.7670    1.8820 h1        1 PCX      0.074700
     31 HN1        -0.9540   -7.2360   -0.3040 hn        1 PCX      0.380400
@<TRIPOS>BOND
     1    1    2 1   
     2    1   13 1   
     3    1   16 1   
     4    2    3 1   
     5    2   10 1   
     6    2   17 1   
     7    3    4 1   
     8    3   18 1   
     9    3   19 1   
    10    4    5 1   
    11    4   20 1   
    12    4   21 1   
    13    5    6 1   
    14    5   22 1   
    15    5   23 1   
    16    6    7 1   
    17    6   24 1   
    18    7    8 1   
    19    7    9 2   
    20    8   25 1   
    21    8   26 1   
    22    9   31 1   
    23   10   11 1   
    24   10   12 1   
    25   13   14 1   
    26   13   15 2   
    27   14   16 1   
    28   14   27 1   
    29   14   28 1   
    30   16   29 1   
    31   16   30 1   
@<TRIPOS>SUBSTRUCTURE
     1 PCX         1 TEMP              0 ****  ****    0 ROOT
