@<TRIPOS>MOLECULE
PCY
   81    83     1     0     0
SMALL
bcc


@<TRIPOS>ATOM
      1 C1          0.0000    0.0000    0.0000 c         1 PCY     -0.014900
      2 N2          1.3480    0.0000    0.0000 ny        1 PCY      0.142200
      3 C3          2.0810    0.0000    1.2680 c3        1 PCY     -0.060800
      4 N4         -0.6750    0.1190   -1.1610 nx        1 PCY      0.072800
      5 O5         -0.6080   -0.1110    1.0480 o         1 PCY     -0.455100
      6 C6          1.6670    1.2080    2.1120 c3        1 PCY      0.173100
      7 C7          3.6000    0.0380    1.0010 c3        1 PCY      0.160800
      8 C8          1.8010   -1.3020    2.0390 c3        1 PCY     -0.131500
      9 C9         -2.1390    0.1190   -1.1600 c3        1 PCY      0.065100
     10 C10         0.0570    0.2460   -2.4240 c3        1 PCY      0.065100
     11 C11         0.3210    0.9250    2.7830 c3        1 PCY     -0.057100
     12 O12         1.5470    2.3570    1.2720 oh        1 PCY     -0.641800
     13 C13         3.8850    0.6220   -0.3840 c3        1 PCY     -0.068100
     14 O14         4.2660    0.7980    2.0100 oh        1 PCY     -0.548800
     15 C15         4.0330   -1.4470    1.0620 c3        1 PCY      0.130800
     16 N16         0.8830   -2.1540    1.2710 nz        1 PCY      0.005400
     17 C17         3.1600   -2.0120    2.2120 c3        1 PCY      0.131500
     18 C18         5.5200   -1.5650    1.4010 c3        1 PCY      0.191400
     19 O19         3.7380   -2.1120   -0.1680 oh        1 PCY     -0.644800
     20 N20         3.7490   -1.6790    3.5120 nu        1 PCY     -0.347600
     21 O21         5.8960   -2.9670    1.4510 os        1 PCY     -0.430900
     22 C22         3.4110   -2.4270    4.6430 ca        1 PCY     -0.024400
     23 C23         7.1820   -3.2460    1.7410 c         1 PCY      0.739700
     24 C24         3.9690   -2.1120    5.8720 ca        1 PCY     -0.060000
     25 C25         2.5130   -3.4810    4.5370 ca        1 PCY     -0.171000
     26 O26         7.9690   -2.3420    1.9450 o         1 PCY     -0.522000
     27 C27         7.6360   -4.6460    1.8080 ca        1 PCY     -0.192600
     28 C28         3.6280   -2.8640    7.0010 ca        1 PCY     -0.113600
     29 C29         2.1740   -4.2250    5.6520 ca        1 PCY     -0.052000
     30 C30         7.5810   -5.3450    3.0170 ca        1 PCY     -0.010300
     31 C31         8.1190   -5.2880    0.6590 ca        1 PCY      0.226100
     32 C32         4.2150   -2.5360    8.3110 c         1 PCY      0.600700
     33 C33         2.7280   -3.9260    6.8810 ca        1 PCY     -0.028000
     34 C34         7.0570   -4.6670    4.2580 c3        1 PCY      0.046200
     35 C35         8.0070   -6.6540    3.0740 ca        1 PCY     -0.058000
     36 O36         8.1720   -4.6220   -0.5210 oh        1 PCY     -0.481100
     37 C37         8.5430   -6.6060    0.7350 ca        1 PCY     -0.152000
     38 C38         3.8450   -3.3480    9.5260 c3        1 PCY     -0.081100
     39 O39         4.9960   -1.6150    8.4130 o         1 PCY     -0.513100
     40 C40         8.4890   -7.2820    1.9380 ca        1 PCY     -0.018000
     41 H2          1.6390   -0.8140   -0.5040 hn        1 PCY      0.279800
     42 H6          2.4170    1.3930    2.8720 h1        1 PCY      0.100700
     43 H8          1.3780   -1.0730    3.0090 hx        1 PCY      0.164700
     44 H91        -2.5000   -0.8720   -0.9110 hx        1 PCY      0.090200
     45 H92        -2.5000    0.8300   -0.4270 hx        1 PCY      0.090200
     46 H93        -2.5010    0.3980   -2.1430 hx        1 PCY      0.090200
     47 H101        0.6650   -0.6370   -2.5790 hx        1 PCY      0.090200
     48 H102       -0.6470    0.3480   -3.2400 hx        1 PCY      0.090200
     49 H103        0.6950    1.1210   -2.3850 hx        1 PCY      0.090200
     50 H111        0.1480   -0.1450    2.8080 hc        1 PCY      0.048367
     51 H112       -0.4710    1.4050    2.2210 hc        1 PCY      0.048367
     52 H113        0.3320    1.3130    3.7940 hc        1 PCY      0.048367
     53 H12         1.5440    3.1360    1.8030 ho        1 PCY      0.482000
     54 H131        4.9550    0.7170   -0.5220 hc        1 PCY      0.047700
     55 H132        3.4220    1.5980   -0.4670 hc        1 PCY      0.047700
     56 H133        3.4800   -0.0360   -1.1440 hc        1 PCY      0.047700
     57 H14         4.7600    1.4930    1.6060 ho        1 PCY      0.456000
     58 H161        1.0540   -3.1140    1.4930 hn        1 PCY      0.242467
     59 H162       -0.0620   -1.9210    1.5040 hn        1 PCY      0.242467
     60 H17         3.0420   -3.0830    2.1050 h1        1 PCY      0.091700
     61 H181        5.7080   -1.1060    2.3640 h1        1 PCY      0.049200
     62 H182        6.1040   -1.0620    0.6410 h1        1 PCY      0.049200
     63 H19         4.5430   -2.3500   -0.5980 ho        1 PCY      0.480000
     64 H20         4.3580   -0.8890    3.5980 hn        1 PCY      0.336800
     65 H24         4.5890   -1.2300    5.9760 ha        1 PCY      0.144000
     66 H25         2.0740   -3.7210    3.5760 ha        1 PCY      0.065000
     67 H29         1.4730   -5.0460    5.5620 ha        1 PCY      0.126000
     68 H33         2.4610   -4.5110    7.7520 ha        1 PCY      0.143000
     69 H341        5.9760   -4.6160    4.2110 hc        1 PCY      0.021700
     70 H342        7.4640   -3.6650    4.3220 hc        1 PCY      0.021700
     71 H343        7.3540   -5.2340    5.1320 hc        1 PCY      0.021700
     72 H35         7.9530   -7.1990    4.0090 ha        1 PCY      0.133000
     73 H36         8.9450   -4.8820   -0.9940 ho        1 PCY      0.444000
     74 H37         8.9200   -7.1050   -0.1500 ha        1 PCY      0.138000
     75 H381        4.1210   -4.3830    9.3660 hc        1 PCY      0.040033
     76 H382        2.7770   -3.2810    9.6940 hc        1 PCY      0.040033
     77 H383        4.3720   -2.9640   10.3910 hc        1 PCY      0.040033
     78 H40         8.8220   -8.3110    1.9920 ha        1 PCY      0.134000
     79 H22         1.6390    0.8140   -0.5040 hn        1 PCY      0.279800
     80 H41        -0.6730    1.1150   -1.0600 hn        1 PCY      0.286800
     81 H163        1.0310   -2.0070    0.2920 hn        1 PCY      0.242467
@<TRIPOS>BOND
     1    1    2 1   
     2    1    4 1   
     3    1    5 2   
     4    2    3 1   
     5    2   41 1   
     6    2   79 1   
     7    3    6 1   
     8    3    7 1   
     9    3    8 1   
    10    4    9 1   
    11    4   10 1   
    12    4   80 1   
    13    6   11 1   
    14    6   12 1   
    15    6   42 1   
    16    7   13 1   
    17    7   14 1   
    18    7   15 1   
    19    8   16 1   
    20    8   17 1   
    21    8   43 1   
    22    9   44 1   
    23    9   45 1   
    24    9   46 1   
    25   10   47 1   
    26   10   48 1   
    27   10   49 1   
    28   11   50 1   
    29   11   51 1   
    30   11   52 1   
    31   12   53 1   
    32   13   54 1   
    33   13   55 1   
    34   13   56 1   
    35   14   57 1   
    36   15   17 1   
    37   15   18 1   
    38   15   19 1   
    39   16   58 1   
    40   16   59 1   
    41   16   81 1   
    42   17   20 1   
    43   17   60 1   
    44   18   21 1   
    45   18   61 1   
    46   18   62 1   
    47   19   63 1   
    48   20   22 1   
    49   20   64 1   
    50   21   23 1   
    51   22   24 ar  
    52   22   25 ar  
    53   23   26 2   
    54   23   27 1   
    55   24   28 ar  
    56   24   65 1   
    57   25   29 ar  
    58   25   66 1   
    59   27   30 ar  
    60   27   31 ar  
    61   28   32 1   
    62   28   33 ar  
    63   29   33 ar  
    64   29   67 1   
    65   30   34 1   
    66   30   35 ar  
    67   31   36 1   
    68   31   37 ar  
    69   32   38 1   
    70   32   39 2   
    71   33   68 1   
    72   34   69 1   
    73   34   70 1   
    74   34   71 1   
    75   35   40 ar  
    76   35   72 1   
    77   36   73 1   
    78   37   40 ar  
    79   37   74 1   
    80   38   75 1   
    81   38   76 1   
    82   38   77 1   
    83   40   78 1   
@<TRIPOS>SUBSTRUCTURE
     1 PCY         1 TEMP              0 ****  ****    0 ROOT
