@<TRIPOS>MOLECULE
PCY
   78    75     1     0     0
SMALL
bcc


@<TRIPOS>ATOM
      1 C1         -3.8040    1.5250   -1.1870 c1        1 PCY      0.397000
      2 N2         -2.4240    1.0400   -1.1870 n2        1 PCY     -0.324000
      3 C3         -1.6520    1.0130    0.0730 c3        1 PCY      0.064000
      4 N4         -4.5670    1.5620   -2.4320 n3        1 PCY     -0.329000
      5 O5         -4.3150    1.9050   -0.1500 o         1 PCY     -0.423000
      6 C6         -2.1020    2.1570    1.0010 c3        1 PCY      0.016000
      7 C7         -0.3220    1.1100   -0.1840 c3        1 PCY      0.071000
      8 C8         -1.8320   -0.3980    0.8050 c3        1 PCY     -0.085000
      9 C9         -5.8150    0.8460   -2.5290 c3        1 PCY     -0.077000
     10 C10        -4.1720    2.4630   -3.4890 c3        1 PCY     -0.077000
     11 C11        -2.0820    3.4700    0.2360 c3        1 PCY     -0.241000
     12 O12        -1.2370    2.2400    2.0870 oh        1 PCY     -0.341000
     13 C13        -0.0930    1.8620   -1.4940 c3        1 PCY     -0.242000
     14 O14         0.3370    1.7790    0.8860 oh        1 PCY     -0.317000
     15 C15         0.2340   -0.4310   -0.3120 c3        1 PCY      0.090000
     16 N16        -2.8060   -1.0780    0.2510 n3        1 PCY     -0.364000
     17 C17        -0.4480   -1.1600    0.6140 c3        1 PCY      0.002000
     18 C18         1.7350   -0.4760   -0.0190 c3        1 PCY     -0.027000
     19 O19        -0.0240   -0.9360   -1.6150 oh        1 PCY     -0.347000
     20 N20         0.2900   -1.1970    1.8750 n3        1 PCY     -0.276000
     21 O21         2.4460   -0.8480   -1.2160 os        1 PCY     -0.276000
     22 C22        -0.0660   -2.1790    2.9060 c2        1 PCY      0.051000
     23 C23         3.6370   -0.0860   -1.4440 c2        1 PCY      0.364000
     24 C24         0.1740   -1.6860    4.1900 c2        1 PCY     -0.137000
     25 C25        -0.5490   -3.4740    2.7360 c1        1 PCY     -0.152000
     26 O26         4.1770    0.4920   -0.5160 o         1 PCY     -0.354000
     27 C27         4.2700   -0.0460   -2.8530 c2        1 PCY     -0.148000
     28 C28        -0.0690   -2.4930    5.3020 c1        1 PCY     -0.123000
     29 C29        -0.7910   -4.2800    3.8490 c1        1 PCY     -0.114000
     30 C30         5.5510   -0.2820   -3.3560 c2        1 PCY      0.034000
     31 C31         3.2600    0.4010   -3.7010 c1        1 PCY      0.139000
     32 C32         0.1960   -1.9540    6.7150 c1        1 PCY      0.267000
     33 C33        -0.5510   -3.7880    5.1310 c2        1 PCY     -0.135000
     34 C34         6.6950   -0.6510   -2.3970 c3        1 PCY     -0.197000
     35 C35         5.8170   -0.0690   -4.7080 c1        1 PCY     -0.185000
     36 O36         2.4300    1.5490   -3.7260 o         1 PCY     -0.241000
     37 C37         3.5280    0.6130   -5.0540 c2        1 PCY     -0.239000
     38 C38        -0.0720   -2.8410    7.9360 c3        1 PCY     -0.265000
     39 O39         0.6820   -0.8470    6.8630 o         1 PCY     -0.298000
     40 C40         4.8050    0.3780   -5.5560 c1        1 PCY     -0.053000
     41 H2         -2.0650    0.6790   -1.9520 hn        1 PCY      0.224000
     42 H6         -3.0140    1.9790    1.3220 h1        1 PCY      0.125000
     43 H8         -2.0150   -0.2620    1.7620 h1        1 PCY      0.104000
     44 H91        -6.3520    1.0120   -1.7220 h1        1 PCY      0.081500
     45 H92        -6.3100    1.1550   -3.3220 h1        1 PCY      0.081500
     46 H93        -5.6340   -0.1160   -2.6100 h1        1 PCY      0.081500
     47 H101       -4.1670    3.3850   -3.1490 h1        1 PCY      0.081500
     48 H102       -3.2740    2.2260   -3.8020 h1        1 PCY      0.081500
     49 H103       -4.8110    2.3920   -4.2370 h1        1 PCY      0.081500
     50 H111       -2.9060    3.9740    0.4280 hc        1 PCY      0.085000
     51 H112       -1.3000    4.0010    0.5140 hc        1 PCY      0.085000
     52 H113       -2.0280    3.2860   -0.7260 hc        1 PCY      0.085000
     53 H12        -1.6110    2.7380    2.7290 ho        1 PCY      0.206000
     54 H131       -0.6860    2.6450   -1.5300 hc        1 PCY      0.093000
     55 H132       -0.2880    1.2690   -2.2510 hc        1 PCY      0.093000
     56 H133        0.8460    2.1600   -1.5430 hc        1 PCY      0.093000
     57 H14         0.8620    2.4210    0.5570 ho        1 PCY      0.224000
     58 H161       -3.5530   -1.0370    0.7870 hn        1 PCY      0.165500
     59 H162       -2.5490   -1.9540    0.1490 hn        1 PCY      0.165500
     60 H17        -0.6040   -2.0740    0.2810 h1        1 PCY      0.140000
     61 H181        1.9120   -1.1380    0.6860 h1        1 PCY      0.124000
     62 H182        2.0370    0.4100    0.2800 h1        1 PCY      0.124000
     63 H19         0.1950   -1.8020   -1.6480 ho        1 PCY      0.236000
     64 H20         0.9570   -0.5900    2.0330 hn        1 PCY      0.198000
     65 H24         0.5830   -0.8030    4.3070 ha        1 PCY      0.156000
     66 H25        -0.7180   -3.8190    1.8350 ha        1 PCY      0.150000
     67 H29        -1.1320   -5.1930    3.7290 ha        1 PCY      0.134000
     68 H33        -0.7220   -4.3560    5.9140 ha        1 PCY      0.133000
     69 H341        7.1830    0.1630   -2.1390 hc        1 PCY      0.102667
     70 H342        6.3250   -1.0800   -1.5950 hc        1 PCY      0.102667
     71 H343        7.3110   -1.2730   -2.8460 hc        1 PCY      0.102667
     72 H35         6.7180   -0.2350   -5.0620 ha        1 PCY      0.144000
     73 H36         2.9190    2.2650   -3.9350 ho        1 PCY      0.220000
     74 H37         2.8130    0.9290   -5.6530 ha        1 PCY      0.140000
     75 H381       -1.0270   -3.0700    7.9720 hc        1 PCY      0.103333
     76 H382        0.4590   -3.6640    7.8660 hc        1 PCY      0.103333
     77 H383        0.1790   -2.3580    8.7550 hc        1 PCY      0.103333
     78 H40         4.9940    0.5280   -6.5100 ha        1 PCY      0.139000
@<TRIPOS>BOND
     1    1    4 1   
     2    1    5 1   
     3    2    3 1   
     4    2   41 1   
     5    3    6 1   
     6    3    7 1   
     7    3    8 1   
     8    4    9 1   
     9    4   10 1   
    10    6   11 1   
    11    6   12 1   
    12    6   42 1   
    13    7   13 1   
    14    7   14 1   
    15    7   15 1   
    16    8   16 1   
    17    8   17 1   
    18    8   43 1   
    19    9   44 1   
    20    9   45 1   
    21    9   46 1   
    22   10   47 1   
    23   10   48 1   
    24   10   49 1   
    25   11   50 1   
    26   11   51 1   
    27   11   52 1   
    28   12   53 1   
    29   13   54 1   
    30   13   55 1   
    31   13   56 1   
    32   14   57 1   
    33   15   17 1   
    34   15   18 1   
    35   15   19 1   
    36   16   58 1   
    37   16   59 1   
    38   17   20 1   
    39   17   60 1   
    40   18   21 1   
    41   18   61 1   
    42   18   62 1   
    43   19   63 1   
    44   20   22 1   
    45   20   64 1   
    46   21   23 1   
    47   22   24 1   
    48   22   25 1   
    49   23   26 1   
    50   23   27 1   
    51   24   28 1   
    52   24   65 1   
    53   25   66 1   
    54   27   30 1   
    55   27   31 1   
    56   28   33 1   
    57   29   33 1   
    58   29   67 1   
    59   30   34 1   
    60   30   35 1   
    61   31   37 1   
    62   32   38 1   
    63   32   39 1   
    64   33   68 1   
    65   34   69 1   
    66   34   70 1   
    67   34   71 1   
    68   35   72 1   
    69   36   73 1   
    70   37   40 1   
    71   37   74 1   
    72   38   75 1   
    73   38   76 1   
    74   38   77 1   
    75   40   78 1   
@<TRIPOS>SUBSTRUCTURE
     1 PCY         1 TEMP              0 ****  ****    0 ROOT
