@<TRIPOS>MOLECULE
PCY
   78    80     1     0     0
SMALL
bcc


@<TRIPOS>ATOM
      1 C1          4.5940   -0.2770   -0.9660 c         1 PCY      0.774100
      2 N2          3.8050   -0.6780    0.1410 n         1 PCY     -0.510900
      3 C3          2.8670    0.1860    0.8410 c3        1 PCY      0.078400
      4 N4          4.8740   -1.2030   -1.9930 n         1 PCY     -0.474800
      5 O5          5.1200    0.8630   -1.0320 o         1 PCY     -0.657100
      6 C6          3.5510    1.1930    1.8230 c3        1 PCY      0.142100
      7 C7          1.9030   -0.7430    1.7180 c3        1 PCY      0.163800
      8 C8          1.8410    0.9900   -0.0540 c3        1 PCY      0.132500
      9 C9          5.9820   -0.9450   -2.8710 c3        1 PCY      0.078300
     10 C10         4.3560   -2.5390   -1.9780 c3        1 PCY      0.078300
     11 C11         4.5000    2.2000    1.2120 c3        1 PCY     -0.117100
     12 O12         4.1810    0.4880    2.8820 oh        1 PCY     -0.616800
     13 C13         2.5490   -1.9740    2.3330 c3        1 PCY     -0.123100
     14 O14         1.2950    0.0420    2.7380 oh        1 PCY     -0.613800
     15 C15         0.7490   -1.1080    0.7430 c3        1 PCY      0.152800
     16 N16         2.2660    1.2250   -1.4130 n3        1 PCY     -0.927800
     17 C17         0.4700    0.2080   -0.0420 c3        1 PCY      0.175500
     18 C18        -0.4430   -1.7070    1.4950 c3        1 PCY      0.130400
     19 O19         1.2590   -2.0860   -0.1600 oh        1 PCY     -0.608800
     20 N20        -0.6240    0.9660    0.5270 nh        1 PCY     -0.713600
     21 O21        -1.4130   -2.0450    0.4870 os        1 PCY     -0.437900
     22 C22        -1.0580    2.1270   -0.1420 ca        1 PCY      0.125600
     23 C23        -2.6700   -2.3570    0.9300 c         1 PCY      0.670700
     24 C24        -1.5460    3.2230    0.6100 ca        1 PCY     -0.133000
     25 C25        -1.1230    2.2050   -1.5510 ca        1 PCY     -0.163000
     26 O26        -2.8370   -2.3530    2.1590 o         1 PCY     -0.580000
     27 C27        -3.6610   -2.6940   -0.0970 ca        1 PCY     -0.224600
     28 C28        -2.0950    4.3400   -0.0230 ca        1 PCY     -0.140600
     29 C29        -1.6630    3.3290   -2.1690 ca        1 PCY     -0.113000
     30 C30        -3.4830   -2.3730   -1.4620 ca        1 PCY      0.026700
     31 C31        -4.8480   -3.3560    0.2930 ca        1 PCY      0.208100
     32 C32        -2.6010    5.4520    0.8150 c         1 PCY      0.575700
     33 C33        -2.1520    4.3950   -1.4200 ca        1 PCY     -0.131000
     34 C34        -2.2800   -1.6570   -1.9490 c3        1 PCY     -0.065800
     35 C35        -4.4610   -2.7270   -2.3930 ca        1 PCY     -0.194000
     36 O36        -5.1700   -3.7270    1.5670 oh        1 PCY     -0.503100
     37 C37        -5.8220   -3.7150   -0.6650 ca        1 PCY     -0.189000
     38 C38        -3.4960    6.4510    0.1530 c3        1 PCY     -0.197100
     39 O39        -2.3020    5.5490    2.0120 o         1 PCY     -0.533100
     40 C40        -5.6200   -3.3990   -1.9970 ca        1 PCY     -0.056000
     41 H2          3.3980   -1.5900    0.0210 hn        1 PCY      0.301500
     42 H6          2.7190    1.7600    2.3420 h1        1 PCY      0.077700
     43 H8          1.6780    1.9730    0.4910 h1        1 PCY      0.031700
     44 H91         6.8630   -1.5880   -2.6010 h1        1 PCY      0.042867
     45 H92         5.6720   -1.1810   -3.9250 h1        1 PCY      0.042867
     46 H93         6.2860    0.1340   -2.8140 h1        1 PCY      0.042867
     47 H101        3.2370   -2.5250   -1.8600 h1        1 PCY      0.042867
     48 H102        4.5980   -3.0410   -2.9530 h1        1 PCY      0.042867
     49 H103        4.8020   -3.1520   -1.1470 h1        1 PCY      0.042867
     50 H111        4.0770    2.6310    0.2750 hc        1 PCY      0.053367
     51 H112        4.6760    3.0260    1.9440 hc        1 PCY      0.053367
     52 H113        5.4850    1.7300    0.9710 hc        1 PCY      0.053367
     53 H12         4.9900    0.0950    2.5300 ho        1 PCY      0.416000
     54 H131        3.5530   -1.7210    2.7510 hc        1 PCY      0.060033
     55 H132        1.9000   -2.3480    3.1640 hc        1 PCY      0.060033
     56 H133        2.6550   -2.7930    1.5820 hc        1 PCY      0.060033
     57 H14         1.9320    0.1010    3.4660 ho        1 PCY      0.438000
     58 H161        1.5630    1.7450   -1.9020 hn        1 PCY      0.371300
     59 H162        3.1370    1.7220   -1.4420 hn        1 PCY      0.371300
     60 H17         0.1720   -0.0890   -1.0910 h1        1 PCY      0.081700
     61 H181       -0.1330   -2.6560    2.0060 h1        1 PCY      0.078700
     62 H182       -0.8770   -1.0010    2.2480 h1        1 PCY      0.078700
     63 H19         0.5350   -2.3140   -0.7590 ho        1 PCY      0.427000
     64 H20        -0.4980    1.1130    1.5140 hn        1 PCY      0.410800
     65 H24        -1.5060    3.2120    1.7130 ha        1 PCY      0.158000
     66 H25        -0.7620    1.3750   -2.1770 ha        1 PCY      0.137000
     67 H29        -1.7050    3.3700   -3.2690 ha        1 PCY      0.135000
     68 H33        -2.5740    5.2730   -1.9290 ha        1 PCY      0.136000
     69 H341       -1.3800   -2.3160   -1.8540 hc        1 PCY      0.055700
     70 H342       -2.3910   -1.3630   -3.0220 hc        1 PCY      0.055700
     71 H343       -2.0980   -0.7320   -1.3430 hc        1 PCY      0.055700
     72 H35        -4.3190   -2.4740   -3.4540 ha        1 PCY      0.139000
     73 H36        -4.5260   -3.3770    2.2050 ho        1 PCY      0.461000
     74 H37        -6.7280   -4.2380   -0.3260 ha        1 PCY      0.158000
     75 H381       -4.3080    5.9300   -0.4090 hc        1 PCY      0.065367
     76 H382       -3.9570    7.1250    0.9170 hc        1 PCY      0.065367
     77 H383       -2.9020    7.0740   -0.5600 hc        1 PCY      0.065367
     78 H40        -6.3770   -3.6740   -2.7470 ha        1 PCY      0.139000
@<TRIPOS>BOND
     1    1    2 1   
     2    1    4 1   
     3    1    5 2   
     4    2    3 1   
     5    2   41 1   
     6    3    6 1   
     7    3    7 1   
     8    3    8 1   
     9    4    9 1   
    10    4   10 1   
    11    6   11 1   
    12    6   12 1   
    13    6   42 1   
    14    7   13 1   
    15    7   14 1   
    16    7   15 1   
    17    8   16 1   
    18    8   17 1   
    19    8   43 1   
    20    9   44 1   
    21    9   45 1   
    22    9   46 1   
    23   10   47 1   
    24   10   48 1   
    25   10   49 1   
    26   11   50 1   
    27   11   51 1   
    28   11   52 1   
    29   12   53 1   
    30   13   54 1   
    31   13   55 1   
    32   13   56 1   
    33   14   57 1   
    34   15   17 1   
    35   15   18 1   
    36   15   19 1   
    37   16   58 1   
    38   16   59 1   
    39   17   20 1   
    40   17   60 1   
    41   18   21 1   
    42   18   61 1   
    43   18   62 1   
    44   19   63 1   
    45   20   22 1   
    46   20   64 1   
    47   21   23 1   
    48   22   24 ar  
    49   22   25 ar  
    50   23   26 2   
    51   23   27 1   
    52   24   28 ar  
    53   24   65 1   
    54   25   29 ar  
    55   25   66 1   
    56   27   30 ar  
    57   27   31 ar  
    58   28   32 1   
    59   28   33 ar  
    60   29   33 ar  
    61   29   67 1   
    62   30   34 1   
    63   30   35 ar  
    64   31   36 1   
    65   31   37 ar  
    66   32   38 1   
    67   32   39 2   
    68   33   68 1   
    69   34   69 1   
    70   34   70 1   
    71   34   71 1   
    72   35   40 ar  
    73   35   72 1   
    74   36   73 1   
    75   37   40 ar  
    76   37   74 1   
    77   38   75 1   
    78   38   76 1   
    79   38   77 1   
    80   40   78 1   
@<TRIPOS>SUBSTRUCTURE
     1 PCY         1 TEMP              0 ****  ****    0 ROOT
