@<TRIPOS>MOLECULE
PCY
   81    83     1     0     0
SMALL
bcc


@<TRIPOS>ATOM
      1 C1          0.2590   -0.7000    0.3160 c         1 PCY      0.520100
      2 N2          1.7440   -0.7570    0.3910 n4        1 PCY     -0.657800
      3 C3          2.4150   -0.0310    1.5610 c3        1 PCY      0.122200
      4 N4         -0.3990    0.1810   -0.7020 n4        1 PCY     -0.551200
      5 O5         -0.4000   -1.4050    1.0710 o         1 PCY     -0.373100
      6 C6          1.8260    1.3970    1.7710 c3        1 PCY      0.121100
      7 C7          3.9880    0.0600    1.2130 c3        1 PCY      0.170800
      8 C8          2.4910   -0.8450    2.8880 c3        1 PCY      0.061500
      9 C9         -1.8660    0.3110   -0.4010 c3        1 PCY      0.076600
     10 C10        -0.1980   -0.3620   -2.0820 c3        1 PCY      0.076600
     11 C11         0.5720    1.4630    2.6200 c3        1 PCY     -0.160100
     12 O12         1.5390    1.9240    0.4780 oh        1 PCY     -0.698800
     13 C13         4.2960    0.5530   -0.1860 c3        1 PCY     -0.169100
     14 O14         4.4570    0.9730    2.1860 oh        1 PCY     -0.591800
     15 C15         4.5070   -1.3850    1.5020 c3        1 PCY      0.102800
     16 N16         1.2720   -1.5500    3.3530 n4        1 PCY     -0.862600
     17 C17         3.7570   -1.8210    2.8050 c3        1 PCY      0.203500
     18 C18         6.0510   -1.4200    1.4910 c3        1 PCY      0.112400
     19 O19         3.9920   -2.2130    0.4650 oh        1 PCY     -0.701800
     20 N20         4.5140   -1.7090    4.0320 nh        1 PCY     -0.723600
     21 O21         6.4820   -2.6820    1.0220 os        1 PCY     -0.438900
     22 C22         3.9660   -2.4570    5.1170 ca        1 PCY      0.054600
     23 C23         6.9120   -3.6470    1.9310 c         1 PCY      0.702700
     24 C24         2.8630   -1.9170    5.7960 ca        1 PCY     -0.188000
     25 C25         4.4830   -3.6990    5.5480 ca        1 PCY     -0.108000
     26 O26         6.7650   -3.3530    3.1200 o         1 PCY     -0.572000
     27 C27         7.4410   -4.8400    1.2890 ca        1 PCY     -0.203600
     28 C28         2.1250   -2.7110    6.6880 ca        1 PCY     -0.178600
     29 C29         3.8440   -4.3950    6.5720 ca        1 PCY     -0.085000
     30 C30         8.4960   -5.5550    1.8990 ca        1 PCY      0.038700
     31 C31         6.9250   -5.2920    0.0560 ca        1 PCY      0.179100
     32 C32         0.7480   -2.2220    6.9600 c         1 PCY      0.634700
     33 C33         2.6350   -3.9350    7.1120 ca        1 PCY     -0.059000
     34 C34         9.0580   -5.1200    3.1980 c3        1 PCY     -0.080800
     35 C35         9.0150   -6.6840    1.2560 ca        1 PCY     -0.157000
     36 O36         5.8570   -4.5980   -0.4780 oh        1 PCY     -0.549100
     37 C37         7.4520   -6.4250   -0.5740 ca        1 PCY     -0.216000
     38 C38         0.1610   -2.3630    8.3100 c3        1 PCY     -0.200100
     39 O39         0.1520   -1.7100    5.9850 o         1 PCY     -0.660100
     40 C40         8.5030   -7.1120    0.0320 ca        1 PCY     -0.017000
     41 H2          2.1680   -0.3470   -0.4650 hn        1 PCY      0.513300
     42 H6          2.6340    2.0150    2.2780 h1        1 PCY      0.164700
     43 H8          2.7410   -0.0480    3.6750 hx        1 PCY      0.190700
     44 H91        -2.3680   -0.6930   -0.4850 hx        1 PCY      0.138367
     45 H92        -2.3080    1.0230   -1.1560 hx        1 PCY      0.138367
     46 H93        -2.0010    0.7220    0.6370 hx        1 PCY      0.138367
     47 H101       -0.7510    0.3070   -2.8070 hx        1 PCY      0.138367
     48 H102       -0.6260   -1.4010   -2.1560 hx        1 PCY      0.138367
     49 H103        0.8920   -0.3580   -2.3490 hx        1 PCY      0.138367
     50 H111        0.1740    2.5140    2.5970 hc        1 PCY      0.075700
     51 H112       -0.2340    0.7900    2.2430 hc        1 PCY      0.075700
     52 H113        0.7970    1.2330    3.6910 hc        1 PCY      0.075700
     53 H12         1.8210    2.8540    0.4560 ho        1 PCY      0.496000
     54 H131        4.2810   -0.2860   -0.9260 hc        1 PCY      0.088367
     55 H132        3.5950    1.3680   -0.4910 hc        1 PCY      0.088367
     56 H133        5.3300    0.9940   -0.2090 hc        1 PCY      0.088367
     57 H14         5.4280    0.9630    2.1780 ho        1 PCY      0.475000
     58 H161        1.4100   -1.8790    4.3550 hn        1 PCY      0.479800
     59 H162        0.4540   -0.9300    3.3720 hn        1 PCY      0.479800
     60 H17         3.3770   -2.8740    2.6270 h1        1 PCY      0.064700
     61 H181        6.5160   -1.1450    2.4720 h1        1 PCY      0.101700
     62 H182        6.4150   -0.7070    0.6960 h1        1 PCY      0.101700
     63 H19         4.6460   -2.9020    0.2180 ho        1 PCY      0.518000
     64 H20         5.4960   -1.9010    3.9140 hn        1 PCY      0.454800
     65 H24         2.5900   -0.8530    5.6850 ha        1 PCY      0.140000
     66 H25         5.4010   -4.1070    5.0870 ha        1 PCY      0.183000
     67 H29         4.2790   -5.3400    6.9420 ha        1 PCY      0.183000
     68 H33         2.0950   -4.5450    7.8570 ha        1 PCY      0.178000
     69 H341        8.2820   -5.2130    4.0010 hc        1 PCY      0.070033
     70 H342        9.3750   -4.0470    3.1500 hc        1 PCY      0.070033
     71 H343        9.9440   -5.7380    3.4860 hc        1 PCY      0.070033
     72 H35         9.8450   -7.2400    1.7240 ha        1 PCY      0.174000
     73 H36         5.7030   -4.9460   -1.3710 ho        1 PCY      0.442000
     74 H37         7.0460   -6.7660   -1.5380 ha        1 PCY      0.160000
     75 H381        0.2120   -3.4310    8.6450 hc        1 PCY      0.101700
     76 H382        0.7460   -1.7430    9.0400 hc        1 PCY      0.101700
     77 H383       -0.9060   -2.0260    8.3240 hc        1 PCY      0.101700
     78 H40         8.9310   -8.0010   -0.4630 ha        1 PCY      0.173000
     79 H22         2.0400   -1.7620    0.4310 hn        1 PCY      0.513300
     80 H41         0.0270    1.1330   -0.6390 hn        1 PCY      0.516800
     81 H163        1.0620   -2.3710    2.7820 hn        1 PCY      0.479800
@<TRIPOS>BOND
     1    1    2 1   
     2    1    4 1   
     3    1    5 2   
     4    2    3 1   
     5    2   41 1   
     6    2   79 1   
     7    3    6 1   
     8    3    7 1   
     9    3    8 1   
    10    4    9 1   
    11    4   10 1   
    12    4   80 1   
    13    6   11 1   
    14    6   12 1   
    15    6   42 1   
    16    7   13 1   
    17    7   14 1   
    18    7   15 1   
    19    8   16 1   
    20    8   17 1   
    21    8   43 1   
    22    9   44 1   
    23    9   45 1   
    24    9   46 1   
    25   10   47 1   
    26   10   48 1   
    27   10   49 1   
    28   11   50 1   
    29   11   51 1   
    30   11   52 1   
    31   12   53 1   
    32   13   54 1   
    33   13   55 1   
    34   13   56 1   
    35   14   57 1   
    36   15   17 1   
    37   15   18 1   
    38   15   19 1   
    39   16   58 1   
    40   16   59 1   
    41   16   81 1   
    42   17   20 1   
    43   17   60 1   
    44   18   21 1   
    45   18   61 1   
    46   18   62 1   
    47   19   63 1   
    48   20   22 1   
    49   20   64 1   
    50   21   23 1   
    51   22   24 ar  
    52   22   25 ar  
    53   23   26 2   
    54   23   27 1   
    55   24   28 ar  
    56   24   65 1   
    57   25   29 ar  
    58   25   66 1   
    59   27   30 ar  
    60   27   31 ar  
    61   28   32 1   
    62   28   33 ar  
    63   29   33 ar  
    64   29   67 1   
    65   30   34 1   
    66   30   35 ar  
    67   31   36 1   
    68   31   37 ar  
    69   32   38 1   
    70   32   39 2   
    71   33   68 1   
    72   34   69 1   
    73   34   70 1   
    74   34   71 1   
    75   35   40 ar  
    76   35   72 1   
    77   36   73 1   
    78   37   40 ar  
    79   37   74 1   
    80   38   75 1   
    81   38   76 1   
    82   38   77 1   
    83   40   78 1   
@<TRIPOS>SUBSTRUCTURE
     1 PCY         1 TEMP              0 ****  ****    0 ROOT
