@<TRIPOS>MOLECULE
PCY
   78    80     1     0     0
SMALL
bcc


@<TRIPOS>ATOM
      1 C1          0.3300   -0.0460   -0.0950 c         1 PCY      0.770100
      2 N2          1.6650    0.3120    0.2590 n         1 PCY     -0.502900
      3 C3          2.1810    0.1900    1.6180 c3        1 PCY      0.073400
      4 N4          0.0990   -0.8990   -1.2030 n         1 PCY     -0.480800
      5 O5         -0.6590    0.4370    0.4980 o         1 PCY     -0.616100
      6 C6          1.6980    1.3270    2.5730 c3        1 PCY      0.150100
      7 C7          3.7790    0.2770    1.5460 c3        1 PCY      0.159800
      8 C8          1.8980   -1.1970    2.3390 c3        1 PCY      0.123500
      9 C9         -1.2160   -0.9130   -1.7840 c3        1 PCY      0.075300
     10 C10         1.1690   -1.3620   -2.0360 c3        1 PCY      0.075300
     11 C11         0.2100    1.3990    2.8300 c3        1 PCY     -0.121100
     12 O12         2.2040    2.5760    2.1250 oh        1 PCY     -0.621800
     13 C13         4.3500    1.0680    0.3780 c3        1 PCY     -0.121100
     14 O14         4.3000    0.8170    2.7560 oh        1 PCY     -0.618800
     15 C15         4.2210   -1.2120    1.5340 c3        1 PCY      0.154800
     16 N16         0.9730   -2.0390    1.6240 n3        1 PCY     -0.907800
     17 C17         3.2940   -1.8920    2.5840 c3        1 PCY      0.147500
     18 C18         5.7230   -1.3690    1.7740 c3        1 PCY      0.130400
     19 O19         3.8700   -1.7370    0.2540 oh        1 PCY     -0.623800
     20 N20         3.7990   -1.7940    3.9320 nh        1 PCY     -0.715600
     21 O21         5.9880   -2.7680    1.5810 os        1 PCY     -0.435900
     22 C22         3.0860   -2.3950    4.9810 ca        1 PCY      0.140600
     23 C23         7.3010   -3.1330    1.4420 c         1 PCY      0.668700
     24 C24         3.2870   -1.9300    6.3060 ca        1 PCY     -0.135000
     25 C25         2.2440   -3.5140    4.7930 ca        1 PCY     -0.168000
     26 O26         8.1610   -2.2610    1.5860 o         1 PCY     -0.539000
     27 C27         7.4760   -4.5610    1.1400 ca        1 PCY     -0.162600
     28 C28         2.6910   -2.5730    7.3910 ca        1 PCY     -0.137600
     29 C29         1.6510   -4.1420    5.8840 ca        1 PCY     -0.108000
     30 C30         8.5590   -5.2690    1.6950 ca        1 PCY      0.022700
     31 C31         6.5790   -5.2370    0.2900 ca        1 PCY      0.180100
     32 C32         2.9460   -2.0470    8.7520 c         1 PCY      0.575700
     33 C33         1.8670   -3.6850    7.1800 ca        1 PCY     -0.138000
     34 C34         9.5290   -4.5840    2.5810 c3        1 PCY     -0.073800
     35 C35         8.7190   -6.6270    1.3990 ca        1 PCY     -0.179000
     36 O36         5.5430   -4.5090   -0.2490 oh        1 PCY     -0.496100
     37 C37         6.7520   -6.5980   -0.0050 ca        1 PCY     -0.234000
     38 C38         2.4960   -2.8860    9.9060 c3        1 PCY     -0.197100
     39 O39         3.5140   -0.9620    8.9320 o         1 PCY     -0.535100
     40 C40         7.8230   -7.2840    0.5580 ca        1 PCY     -0.056000
     41 H2          2.3400   -0.0750   -0.3790 hn        1 PCY      0.284500
     42 H6          2.2260    1.1630    3.5620 h1        1 PCY      0.074700
     43 H8          1.4240   -0.9660    3.3390 h1        1 PCY      0.079700
     44 H91        -1.4570   -1.9600   -2.1090 h1        1 PCY      0.040367
     45 H92        -1.9780   -0.5810   -1.0300 h1        1 PCY      0.040367
     46 H93        -1.2720   -0.2370   -2.6800 h1        1 PCY      0.040367
     47 H101        0.7690   -2.1010   -2.7810 h1        1 PCY      0.040367
     48 H102        1.6580   -0.5230   -2.6050 h1        1 PCY      0.040367
     49 H103        1.9510   -1.8820   -1.4160 h1        1 PCY      0.040367
     50 H111       -0.2500    0.3820    2.8190 hc        1 PCY      0.057033
     51 H112        0.0290    1.8730    3.8250 hc        1 PCY      0.057033
     52 H113       -0.3000    2.0160    2.0500 hc        1 PCY      0.057033
     53 H12         1.7100    2.8230    1.3330 ho        1 PCY      0.419000
     54 H131        4.3300    0.4720   -0.5650 hc        1 PCY      0.058033
     55 H132        3.7790    2.0180    0.2400 hc        1 PCY      0.058033
     56 H133        5.4160    1.3250    0.6010 hc        1 PCY      0.058033
     57 H14         4.1770    1.7780    2.7160 ho        1 PCY      0.443000
     58 H161        0.6130   -2.7570    2.2200 hn        1 PCY      0.360300
     59 H162        1.3990   -2.4470    0.8150 hn        1 PCY      0.360300
     60 H17         3.2410   -2.9900    2.3280 h1        1 PCY      0.071700
     61 H181        6.0320   -1.0670    2.8050 h1        1 PCY      0.077200
     62 H182        6.2980   -0.7700    1.0190 h1        1 PCY      0.077200
     63 H19         4.3280   -2.5870    0.1610 ho        1 PCY      0.440000
     64 H20         4.1340   -0.8750    4.1570 hn        1 PCY      0.420800
     65 H24         3.9250   -1.0510    6.5000 ha        1 PCY      0.159000
     66 H25         2.0500   -3.9060    3.7840 ha        1 PCY      0.128000
     67 H29         1.0000   -5.0130    5.7150 ha        1 PCY      0.132000
     68 H33         1.3860   -4.1960    8.0260 ha        1 PCY      0.134000
     69 H341        8.9950   -4.0660    3.4180 hc        1 PCY      0.063033
     70 H342       10.0850   -3.8020    2.0020 hc        1 PCY      0.063033
     71 H343       10.2640   -5.3050    3.0140 hc        1 PCY      0.063033
     72 H35         9.5630   -7.1810    1.8370 ha        1 PCY      0.144000
     73 H36         5.0420   -5.0950   -0.8360 ho        1 PCY      0.424000
     74 H37         6.0460   -7.1120   -0.6720 ha        1 PCY      0.140000
     75 H381        2.8980   -3.9230    9.8090 hc        1 PCY      0.064700
     76 H382        1.3800   -2.9290    9.9280 hc        1 PCY      0.064700
     77 H383        2.8560   -2.4460   10.8690 hc        1 PCY      0.064700
     78 H40         7.9630   -8.3530    0.3350 ha        1 PCY      0.140000
@<TRIPOS>BOND
     1    1    2 1   
     2    1    4 1   
     3    1    5 2   
     4    2    3 1   
     5    2   41 1   
     6    3    6 1   
     7    3    7 1   
     8    3    8 1   
     9    4    9 1   
    10    4   10 1   
    11    6   11 1   
    12    6   12 1   
    13    6   42 1   
    14    7   13 1   
    15    7   14 1   
    16    7   15 1   
    17    8   16 1   
    18    8   17 1   
    19    8   43 1   
    20    9   44 1   
    21    9   45 1   
    22    9   46 1   
    23   10   47 1   
    24   10   48 1   
    25   10   49 1   
    26   11   50 1   
    27   11   51 1   
    28   11   52 1   
    29   12   53 1   
    30   13   54 1   
    31   13   55 1   
    32   13   56 1   
    33   14   57 1   
    34   15   17 1   
    35   15   18 1   
    36   15   19 1   
    37   16   58 1   
    38   16   59 1   
    39   17   20 1   
    40   17   60 1   
    41   18   21 1   
    42   18   61 1   
    43   18   62 1   
    44   19   63 1   
    45   20   22 1   
    46   20   64 1   
    47   21   23 1   
    48   22   24 ar  
    49   22   25 ar  
    50   23   26 2   
    51   23   27 1   
    52   24   28 ar  
    53   24   65 1   
    54   25   29 ar  
    55   25   66 1   
    56   27   30 ar  
    57   27   31 ar  
    58   28   32 1   
    59   28   33 ar  
    60   29   33 ar  
    61   29   67 1   
    62   30   34 1   
    63   30   35 ar  
    64   31   36 1   
    65   31   37 ar  
    66   32   38 1   
    67   32   39 2   
    68   33   68 1   
    69   34   69 1   
    70   34   70 1   
    71   34   71 1   
    72   35   40 ar  
    73   35   72 1   
    74   36   73 1   
    75   37   40 ar  
    76   37   74 1   
    77   38   75 1   
    78   38   76 1   
    79   38   77 1   
    80   40   78 1   
@<TRIPOS>SUBSTRUCTURE
     1 PCY         1 TEMP              0 ****  ****    0 ROOT
