@<TRIPOS>MOLECULE
PCZ
   40    41     1     0     0
SMALL
bcc


@<TRIPOS>ATOM
      1 O1          0.1800    4.1180   -1.4120 o         1 PCZ     -0.524100
      2 C1          1.0200    3.4610   -0.8010 c         1 PCZ      0.557900
      3 C2          0.8490    2.0230   -0.3130 c3        1 PCZ      0.000700
      4 C3          1.8170    1.1620   -1.1860 c3        1 PCZ      0.251600
      5 C5          3.8330   -0.7530   -0.1390 ce        1 PCZ     -0.234800
      6 C51         4.4040   -1.4510    0.8490 c2        1 PCZ     -0.159000
      7 C52         4.5020    0.3870   -0.8040 c3        1 PCZ      0.063900
      8 C6          2.4770   -1.0820   -0.6380 ce        1 PCZ      0.457600
      9 C61         2.1100   -2.5880   -0.6240 c         1 PCZ      0.836300
     10 O62         1.9930   -3.1750   -1.7290 o         1 PCZ     -0.813300
     11 O63         1.9300   -3.1280    0.5020 o         1 PCZ     -0.813300
     12 N7          1.6090   -0.2410   -1.0810 n2        1 PCZ     -0.600900
     13 N8         -0.5170    1.5560   -0.3300 n         1 PCZ     -0.510900
     14 C9         -1.2510    1.5070    0.8350 c         1 PCZ      0.573800
     15 O91        -0.9160    2.1070    1.8750 o         1 PCZ     -0.609100
     16 C10        -2.5360    0.7010    0.7970 ce        1 PCZ      0.315300
     17 N11        -3.7530    1.1650    0.7860 n2        1 PCZ     -0.409200
     18 O12        -3.8740    2.4830    0.7590 os        1 PCZ     -0.175300
     19 C13        -5.2440    2.9370    0.7390 c3        1 PCZ      0.133700
     20 C14        -2.2920   -0.7530    0.8450 cc        1 PCZ      0.325000
     21 C15        -2.6420   -1.5740    1.9030 cd        1 PCZ     -0.241400
     22 S16        -2.0490   -3.1230    1.6700 ss        1 PCZ     -0.184300
     23 C17        -1.3310   -2.6420    0.1250 cd        1 PCZ      0.696300
     24 N18        -1.5660   -1.3520   -0.1820 nc        1 PCZ     -0.701000
     25 N19        -0.6980   -3.5950   -0.6610 nh        1 PCZ     -0.884500
     26 S1          3.4760    1.8390   -0.8000 ss        1 PCZ     -0.462200
     27 H2          1.2210    2.0060    0.7600 h1        1 PCZ      0.109700
     28 H3          1.6420    1.4230   -2.2700 h2        1 PCZ      0.084700
     29 H511        5.4040   -1.2120    1.2320 ha        1 PCZ      0.130000
     30 H512        3.8850   -2.3040    1.3190 ha        1 PCZ      0.130000
     31 H521        5.4440    0.6840   -0.2810 h1        1 PCZ      0.068700
     32 H522        4.7540    0.1180   -1.8600 h1        1 PCZ      0.068700
     33 H8         -0.7730    0.9530   -1.0820 hn        1 PCZ      0.346500
     34 H131       -5.1220    4.0490    0.7080 h1        1 PCZ      0.041700
     35 H132       -5.7730    2.5670   -0.1710 h1        1 PCZ      0.041700
     36 H133       -5.7810    2.6190    1.6630 h1        1 PCZ      0.041700
     37 H15        -3.1990   -1.2650    2.7830 h4        1 PCZ      0.174000
     38 H191        0.0150   -4.0890   -0.1430 hn        1 PCZ      0.432300
     39 H192       -0.2870   -3.2200   -1.5040 hn        1 PCZ      0.432300
     40 H1          2.0230    3.8810   -0.5490 h4        1 PCZ      0.008200
@<TRIPOS>BOND
     1    1    2 2   
     2    2    3 1   
     3    2   40 1   
     4    3    4 1   
     5    3   13 1   
     6    3   27 1   
     7    4   12 1   
     8    4   26 1   
     9    4   28 1   
    10    5    6 2   
    11    5    7 1   
    12    5    8 1   
    13    6   29 1   
    14    6   30 1   
    15    7   26 1   
    16    7   31 1   
    17    7   32 1   
    18    8    9 1   
    19    8   12 2   
    20    9   10 1   
    21    9   11 1   
    22   13   14 1   
    23   13   33 1   
    24   14   15 2   
    25   14   16 1   
    26   16   17 2   
    27   16   20 1   
    28   17   18 1   
    29   18   19 1   
    30   19   34 1   
    31   19   35 1   
    32   19   36 1   
    33   20   21 2   
    34   20   24 1   
    35   21   22 1   
    36   21   37 1   
    37   22   23 1   
    38   23   24 2   
    39   23   25 1   
    40   25   38 1   
    41   25   39 1   
@<TRIPOS>SUBSTRUCTURE
     1 PCZ         1 TEMP              0 ****  ****    0 ROOT
