@<TRIPOS>MOLECULE
PCZ
   40    35     1     0     0
SMALL
bcc


@<TRIPOS>ATOM
      1 O1         -3.0310    0.0280   -1.4350 o         1 PCZ     -0.302000
      2 C1         -1.8200    0.1070   -1.3560 c1        1 PCZ      0.184000
      3 C2         -1.1680    0.1390   -0.0340 c2        1 PCZ     -0.035000
      4 C3         -0.9650    1.6800    0.4330 c3        1 PCZ     -0.091000
      5 C5         -2.6710    3.4500   -1.5050 c1        1 PCZ     -0.148000
      6 C51        -3.4060    4.2130   -2.3360 c1        1 PCZ     -0.166000
      7 C52        -1.4020    2.8520   -1.9570 c2        1 PCZ     -0.191000
      8 C6         -3.1820    3.1570    0.0730 c2        1 PCZ     -0.007000
      9 C61        -4.2720    4.0100    0.6850 c2        1 PCZ      0.392000
     10 O62        -4.0490    5.2210    0.9500 o         1 PCZ     -0.530000
     11 O63        -5.4130    3.5220    0.8880 o         1 PCZ     -0.530000
     12 N7         -2.2490    2.2300    1.0210 n2        1 PCZ     -0.197000
     13 N8          0.0630   -0.4850   -0.1110 n         1 PCZ     -0.341000
     14 C9          0.4400   -1.4360    0.8750 c2        1 PCZ      0.350000
     15 O91        -0.1730   -1.5010    1.9210 o         1 PCZ     -0.353000
     16 C10         1.5860   -2.3930    0.6070 c2        1 PCZ     -0.032000
     17 N11         1.3430   -3.5840    0.1360 n1        1 PCZ     -0.024000
     18 O12         0.0610   -3.9690   -0.1160 o         1 PCZ     -0.187000
     19 C13         0.0130   -5.3620   -0.3300 c3        1 PCZ     -0.059000
     20 C14         3.0100   -1.9660    0.8870 c2        1 PCZ     -0.032000
     21 C15         4.0910   -1.9520   -0.0680 c1        1 PCZ     -0.435000
     22 S16         5.3580   -1.5260    0.6650 ss        1 PCZ      0.462000
     23 C17         4.9790   -1.2780    2.1400 c1        1 PCZ     -0.163000
     24 N18         3.5820   -1.5370    2.2850 n2        1 PCZ     -0.126000
     25 N19         5.8770   -0.9490    3.1860 n2        1 PCZ     -0.276000
     26 S1         -0.4270    2.5480   -0.7570 ss        1 PCZ     -0.131000
     27 H2         -1.7290   -0.3270    0.6160 h4        1 PCZ      0.161000
     28 H3         -0.2830    1.5790    1.1240 h2        1 PCZ      0.136000
     29 H511       -3.1000    4.3770   -3.2500 DU        1 PCZ      0.140000
     30 H512       -4.2470    4.6050   -2.0250 ha        1 PCZ      0.164000
     31 H521       -1.6140    2.1280   -2.5810 h4        1 PCZ      0.107000
     32 H522       -0.9100    3.4560   -2.5510 h4        1 PCZ      0.107000
     33 H8          0.6270   -0.2980   -0.8020 hn        1 PCZ      0.245000
     34 H131       -0.8060   -5.5890   -0.8210 h1        1 PCZ      0.085000
     35 H132        0.7960   -5.6400   -0.8530 h1        1 PCZ      0.085000
     36 H133        0.0150   -5.8260    0.5350 h1        1 PCZ      0.085000
     37 H15         4.0230   -2.1770   -1.0160 DU        1 PCZ      0.140000
     38 H191        5.5590   -0.7790    4.0250 hn        1 PCZ      0.188500
     39 H192        6.7770   -0.9110    3.0220 hn        1 PCZ      0.188500
     40 H1         -1.2810    0.1810   -2.1680 ha        1 PCZ      0.134000
@<TRIPOS>BOND
     1    1    2 1   
     2    2   40 1   
     3    3    4 1   
     4    3   13 1   
     5    3   27 1   
     6    4   12 1   
     7    4   26 1   
     8    4   28 1   
     9    5    6 1   
    10    5    8 1   
    11    6   30 1   
    12    7   26 1   
    13    7   31 1   
    14    7   32 1   
    15    8    9 1   
    16    8   12 1   
    17    9   10 1   
    18    9   11 1   
    19   13   14 1   
    20   13   33 1   
    21   14   15 1   
    22   14   16 1   
    23   16   17 1   
    24   16   20 1   
    25   18   19 1   
    26   19   34 1   
    27   19   35 1   
    28   19   36 1   
    29   20   21 1   
    30   20   24 1   
    31   21   22 1   
    32   22   23 1   
    33   23   24 1   
    34   25   38 1   
    35   25   39 1   
@<TRIPOS>SUBSTRUCTURE
     1 PCZ         1 TEMP              0 ****  ****    0 ROOT
