@<TRIPOS>MOLECULE
PCZ
   41    42     1     0     0
SMALL
bcc


@<TRIPOS>ATOM
      1 O1          0.2990    1.2160    0.2650 o         1 PCZ     -0.500100
      2 C1          1.4710    0.8750    0.1360 c         1 PCZ      0.563900
      3 C2          2.2520    0.1400    1.2180 c3        1 PCZ     -0.007500
      4 C3          2.6950   -1.2420    0.5850 c3        1 PCZ      0.233600
      5 C5          4.8910   -2.3820    2.1820 ce        1 PCZ     -0.258800
      6 C51         5.7380   -2.4340    3.2190 c2        1 PCZ     -0.113000
      7 C52         5.3480   -2.1350    0.7950 c3        1 PCZ      0.054900
      8 C6          3.4470   -2.6310    2.3520 ce        1 PCZ      0.471600
      9 C61         2.9680   -3.0220    3.7730 c         1 PCZ      0.842300
     10 O62         2.7170   -1.9590    4.4310 o         1 PCZ     -0.791800
     11 O63         2.8260   -4.1880    4.1760 o         1 PCZ     -0.791800
     12 N7          2.5110   -2.3030    1.5160 n2        1 PCZ     -0.660900
     13 N8          1.5000    0.0060    2.5090 ny        1 PCZ     -0.656800
     14 C9          1.1870    1.3030    3.1800 c         1 PCZ      0.468800
     15 O91         1.8910    2.2750    2.9360 o         1 PCZ     -0.445100
     16 C10         0.0320    1.2820    4.1450 ce        1 PCZ      0.283300
     17 N11        -0.9140    2.1810    4.2000 n2        1 PCZ     -0.322200
     18 O12        -0.8680    3.1530    3.3250 os        1 PCZ     -0.175300
     19 C13        -1.9640    4.1030    3.4270 c3        1 PCZ      0.132700
     20 C14         0.0780    0.1720    5.1110 cc        1 PCZ      0.283000
     21 C15         0.3560    0.3160    6.4620 cd        1 PCZ     -0.229400
     22 S16         0.5480   -1.1740    7.1820 ss        1 PCZ     -0.058300
     23 C17         0.2690   -1.9880    5.6500 cd        1 PCZ      0.695300
     24 N18        -0.0310   -1.1350    4.6490 nc        1 PCZ     -0.740000
     25 N19         0.3270   -3.3790    5.5830 nv        1 PCZ     -0.876500
     26 S1          4.3530   -0.9340   -0.0630 ss        1 PCZ     -0.380200
     27 H2          3.1890    0.7400    1.4450 hx        1 PCZ      0.144700
     28 H3          2.0420   -1.4560   -0.3070 h2        1 PCZ      0.106700
     29 H511        5.3880   -2.6400    4.2430 ha        1 PCZ      0.136000
     30 H512        6.8180   -2.2730    3.1010 ha        1 PCZ      0.136000
     31 H521        6.3900   -1.7270    0.7650 h1        1 PCZ      0.087700
     32 H522        5.3300   -3.0930    0.2150 h1        1 PCZ      0.087700
     33 H8          0.6190   -0.4960    2.3270 hn        1 PCZ      0.510300
     34 H131       -1.9480    4.6100    4.4190 h1        1 PCZ      0.062700
     35 H132       -1.7180    4.8140    2.5990 h1        1 PCZ      0.062700
     36 H133       -2.9390    3.5920    3.2500 h1        1 PCZ      0.062700
     37 H15         0.4580    1.2640    6.9870 h4        1 PCZ      0.184000
     38 H191        1.2570   -3.7100    5.8040 hn        1 PCZ      0.418800
     39 H192        0.0470   -3.7450    4.6910 hn        1 PCZ      0.418800
     40 H1          2.0690    1.0610   -0.7810 h4        1 PCZ      0.050200
     41 H82         2.0580   -0.5870    3.1950 hn        1 PCZ      0.510300
@<TRIPOS>BOND
     1    1    2 2   
     2    2    3 1   
     3    2   40 1   
     4    3    4 1   
     5    3   13 1   
     6    3   27 1   
     7    4   12 1   
     8    4   26 1   
     9    4   28 1   
    10    5    6 2   
    11    5    7 1   
    12    5    8 1   
    13    6   29 1   
    14    6   30 1   
    15    7   26 1   
    16    7   31 1   
    17    7   32 1   
    18    8    9 1   
    19    8   12 2   
    20    9   10 1   
    21    9   11 1   
    22   13   14 1   
    23   13   33 1   
    24   13   41 1   
    25   14   15 2   
    26   14   16 1   
    27   16   17 2   
    28   16   20 1   
    29   17   18 1   
    30   18   19 1   
    31   19   34 1   
    32   19   35 1   
    33   19   36 1   
    34   20   21 2   
    35   20   24 1   
    36   21   22 1   
    37   21   37 1   
    38   22   23 1   
    39   23   24 2   
    40   23   25 1   
    41   25   38 1   
    42   25   39 1   
@<TRIPOS>SUBSTRUCTURE
     1 PCZ         1 TEMP              0 ****  ****    0 ROOT
