@<TRIPOS>MOLECULE
PCZ
   42    43     1     0     0
SMALL
bcc


@<TRIPOS>ATOM
      1 O1          0.8350    1.4140   -0.1890 o         1 PCZ     -0.483100
      2 C1          1.9660    1.1230    0.1850 c         1 PCZ      0.564900
      3 C2          2.2130    0.4240    1.5290 c3        1 PCZ      0.003500
      4 C3          2.8210   -0.9750    1.2230 c3        1 PCZ      0.188600
      5 C5          5.1930   -2.6900    1.8550 ce        1 PCZ     -0.262800
      6 C51         6.3130   -3.2480    2.3380 c2        1 PCZ     -0.086000
      7 C52         5.1190   -2.2150    0.4500 c3        1 PCZ      0.028900
      8 C6          3.9770   -2.5080    2.6680 ce        1 PCZ      0.546600
      9 C61         3.8760   -3.2940    3.9500 c         1 PCZ      0.561800
     10 O62         3.0180   -4.1260    4.2440 o         1 PCZ     -0.524000
     11 O63         4.8370   -3.0030    4.8590 oh        1 PCZ     -0.581100
     12 N7          2.9550   -1.7600    2.4120 n2        1 PCZ     -0.620900
     13 N8          0.9760    0.3290    2.3650 n4        1 PCZ     -0.667800
     14 C9          0.8030    1.4250    3.3870 c         1 PCZ      0.476800
     15 O91         1.6870    2.2530    3.5180 o         1 PCZ     -0.403100
     16 C10        -0.4840    1.3410    4.1550 ce        1 PCZ      0.255300
     17 N11        -1.4160    2.2630    4.1300 n2        1 PCZ     -0.312200
     18 O12        -1.2170    3.2770    3.3340 os        1 PCZ     -0.184300
     19 C13        -2.2530    4.3040    3.3810 c3        1 PCZ      0.133700
     20 C14        -0.6140    0.1620    5.0200 cc        1 PCZ      0.303000
     21 C15        -1.3830    0.1050    6.1720 cd        1 PCZ     -0.206400
     22 S16        -1.2500   -1.3870    6.9060 ss        1 PCZ     -0.043300
     23 C17        -0.1580   -1.9450    5.6470 cd        1 PCZ      0.689300
     24 N18         0.0760   -1.0080    4.6980 nc        1 PCZ     -0.809000
     25 N19         0.4510   -3.1700    5.7220 nh        1 PCZ     -0.922500
     26 S1          4.3270   -0.6390    0.2970 ss        1 PCZ     -0.284200
     27 H2          2.9780    1.0380    2.1050 hx        1 PCZ      0.158700
     28 H3          2.1120   -1.5360    0.5420 h2        1 PCZ      0.111700
     29 H511        7.2170   -3.3560    1.7200 ha        1 PCZ      0.148000
     30 H512        6.4040   -3.6200    3.3710 ha        1 PCZ      0.148000
     31 H521        6.1420   -2.0690    0.0140 h1        1 PCZ      0.105200
     32 H522        4.5840   -2.9720   -0.1790 h1        1 PCZ      0.105200
     33 H8          0.9620   -0.5730    2.8960 hn        1 PCZ      0.494800
     34 H131       -3.2370    3.8750    3.0790 h1        1 PCZ      0.074033
     35 H132       -1.8690    5.0330    2.6240 h1        1 PCZ      0.074033
     36 H133       -2.2990    4.7560    4.3990 h1        1 PCZ      0.074033
     37 H15        -1.9980    0.9160    6.5640 h4        1 PCZ      0.207000
     38 H191        4.6940   -3.5280    5.6690 ho        1 PCZ      0.468000
     39 H192        1.0180   -3.4750    4.9590 hn        1 PCZ      0.446300
     40 H1          2.8970    1.3260   -0.3920 h4        1 PCZ      0.084200
     41 H82         0.1530    0.3480    1.7440 hn        1 PCZ      0.494800
     42 H193       -0.0310   -3.8790    6.2250 hn        1 PCZ      0.446300
@<TRIPOS>BOND
     1    1    2 2   
     2    2    3 1   
     3    2   40 1   
     4    3    4 1   
     5    3   13 1   
     6    3   27 1   
     7    4   12 1   
     8    4   26 1   
     9    4   28 1   
    10    5    6 2   
    11    5    7 1   
    12    5    8 1   
    13    6   29 1   
    14    6   30 1   
    15    7   26 1   
    16    7   31 1   
    17    7   32 1   
    18    8    9 1   
    19    8   12 2   
    20    9   10 2   
    21    9   11 1   
    22   11   38 1   
    23   13   14 1   
    24   13   33 1   
    25   13   41 1   
    26   14   15 2   
    27   14   16 1   
    28   16   17 2   
    29   16   20 1   
    30   17   18 1   
    31   18   19 1   
    32   19   34 1   
    33   19   35 1   
    34   19   36 1   
    35   20   21 2   
    36   20   24 1   
    37   21   22 1   
    38   21   37 1   
    39   22   23 1   
    40   23   24 2   
    41   23   25 1   
    42   25   39 1   
    43   25   42 1   
@<TRIPOS>SUBSTRUCTURE
     1 PCZ         1 TEMP              0 ****  ****    0 ROOT
