@<TRIPOS>MOLECULE
PCZ
   41    42     1     0     0
SMALL
bcc


@<TRIPOS>ATOM
      1 O1          0.2950    1.1810    0.2470 o         1 PCZ     -0.500100
      2 C1          1.4740    0.8620    0.1300 c         1 PCZ      0.563900
      3 C2          2.2580    0.1450    1.2220 c3        1 PCZ     -0.007500
      4 C3          2.7340   -1.2310    0.5970 c3        1 PCZ      0.233600
      5 C5          4.9350   -2.3240    2.2180 ce        1 PCZ     -0.258800
      6 C51         5.7740   -2.3560    3.2630 c2        1 PCZ     -0.113000
      7 C52         5.4020   -2.0720    0.8350 c3        1 PCZ      0.054900
      8 C6          3.4950   -2.6000    2.3750 ce        1 PCZ      0.471600
      9 C61         3.0100   -2.9960    3.7920 c         1 PCZ      0.842300
     10 O62         2.7320   -1.9360    4.4450 o         1 PCZ     -0.791800
     11 O63         2.8860   -4.1630    4.1970 o         1 PCZ     -0.791800
     12 N7          2.5610   -2.2920    1.5290 n2        1 PCZ     -0.660900
     13 N8          1.4980   -0.0000    2.5060 n4        1 PCZ     -0.656800
     14 C9          1.1520    1.2920    3.1700 c         1 PCZ      0.468800
     15 O91         1.8400    2.2770    2.9290 o         1 PCZ     -0.445100
     16 C10        -0.0100    1.2520    4.1240 ce        1 PCZ      0.283300
     17 N11        -0.9740    2.1330    4.1670 n2        1 PCZ     -0.322200
     18 O12        -0.9390    3.1030    3.2900 os        1 PCZ     -0.175300
     19 C13        -2.0530    4.0320    3.3780 c3        1 PCZ      0.132700
     20 C14         0.0470    0.1460    5.0930 cc        1 PCZ      0.283000
     21 C15         0.3100    0.2990    6.4470 cd        1 PCZ     -0.229400
     22 S16         0.5240   -1.1850    7.1730 ss        1 PCZ     -0.057300
     23 C17         0.2750   -2.0090    5.6400 cd        1 PCZ      0.695300
     24 N18        -0.0320   -1.1650    4.6340 nc        1 PCZ     -0.740000
     25 N19         0.3590   -3.3980    5.5780 nh        1 PCZ     -0.876500
     26 S1          4.3910   -0.8920   -0.0370 ss        1 PCZ     -0.380200
     27 H2          3.1820    0.7630    1.4560 hx        1 PCZ      0.144700
     28 H3          2.0940   -1.4590   -0.3010 h2        1 PCZ      0.106700
     29 H511        5.4180   -2.5660    4.2850 ha        1 PCZ      0.136000
     30 H512        6.8510   -2.1750    3.1550 ha        1 PCZ      0.136000
     31 H521        5.4070   -3.0320    0.2580 h1        1 PCZ      0.087700
     32 H522        6.4350   -1.6440    0.8140 h1        1 PCZ      0.087700
     33 H8          2.0590   -0.5800    3.1990 hn        1 PCZ      0.510300
     34 H131       -2.0560    4.5430    4.3690 h1        1 PCZ      0.062700
     35 H132       -3.0170    3.5030    3.1940 h1        1 PCZ      0.062700
     36 H133       -1.8130    4.7460    2.5510 h1        1 PCZ      0.062700
     37 H15         0.3890    1.2500    6.9690 h4        1 PCZ      0.184000
     38 H191        0.0940   -3.7730    4.6850 hn        1 PCZ      0.418800
     39 H192        1.2930   -3.7110    5.8080 hn        1 PCZ      0.418800
     40 H1          2.0780    1.0570   -0.7820 h4        1 PCZ      0.050200
     41 H82         0.6270   -0.5200    2.3170 hn        1 PCZ      0.510300
@<TRIPOS>BOND
     1    1    2 2   
     2    2    3 1   
     3    2   40 1   
     4    3    4 1   
     5    3   13 1   
     6    3   27 1   
     7    4   12 1   
     8    4   26 1   
     9    4   28 1   
    10    5    6 2   
    11    5    7 1   
    12    5    8 1   
    13    6   29 1   
    14    6   30 1   
    15    7   26 1   
    16    7   31 1   
    17    7   32 1   
    18    8    9 1   
    19    8   12 2   
    20    9   10 1   
    21    9   11 1   
    22   13   14 1   
    23   13   33 1   
    24   13   41 1   
    25   14   15 2   
    26   14   16 1   
    27   16   17 2   
    28   16   20 1   
    29   17   18 1   
    30   18   19 1   
    31   19   34 1   
    32   19   35 1   
    33   19   36 1   
    34   20   21 2   
    35   20   24 1   
    36   21   22 1   
    37   21   37 1   
    38   22   23 1   
    39   23   24 2   
    40   23   25 1   
    41   25   38 1   
    42   25   39 1   
@<TRIPOS>SUBSTRUCTURE
     1 PCZ         1 TEMP              0 ****  ****    0 ROOT
