@<TRIPOS>MOLECULE
PD1
   83    85     1     0     0
SMALL
bcc


@<TRIPOS>ATOM
      1 C1         -0.1600    0.9880    1.2050 c3        1 PD1     -0.140100
      2 C2          1.0480    0.4000    0.5070 c3        1 PD1      0.112300
      3 C3          2.4620   -1.6820    3.3670 c3        1 PD1     -0.140100
      4 C4          1.7650   -1.3980    2.0550 c3        1 PD1      0.112300
      5 C5          3.4580   -0.1190    0.7860 c3        1 PD1      0.103800
      6 C6          4.1540    1.2360    0.6380 c3        1 PD1     -0.100400
      7 C7          5.4990    1.0340   -0.0420 c3        1 PD1     -0.110400
      8 C8          6.1980    2.3830   -0.2150 c3        1 PD1      0.114800
      9 C9          8.2330    3.5380   -1.1340 ca        1 PD1      0.749900
     10 C10         8.1490    5.7530   -1.7740 ca        1 PD1      0.537200
     11 C11         9.5700    5.8560   -1.5690 ca        1 PD1     -0.293600
     12 C12        10.2560    4.6810   -1.1040 ca        1 PD1      0.439300
     13 C13        10.3160    7.0320   -1.8090 cc        1 PD1     -0.003000
     14 C14        11.6870    7.0420   -1.6090 cc        1 PD1     -0.168600
     15 C15        12.3040    5.8130   -1.1450 cc        1 PD1      0.461900
     16 C16        12.4470    8.2710   -1.8660 cf        1 PD1      0.011800
     17 C17        13.0090    8.9860   -0.8650 cf        1 PD1     -0.161000
     18 C18        13.6720   10.2570   -1.1430 ce        1 PD1      0.341100
     19 C19        13.7380   10.7600   -2.4450 ce        1 PD1     -0.386000
     20 C20        13.1760   10.0330   -3.4940 c2        1 PD1      0.314900
     21 C21        12.5070    8.7110   -3.2850 c3        1 PD1     -0.083000
     22 C22        14.7980   12.1430   -0.1780 c3        1 PD1      0.097700
     23 C23        13.7660   11.6640   -5.1580 c3        1 PD1      0.097700
     24 C24        14.4460    4.7200   -1.5110 c         1 PD1      0.636100
     25 C25        16.0210    3.6290    0.2040 c3        1 PD1      0.167200
     26 C26        17.5210    3.4830    0.4820 c3        1 PD1     -0.140100
     27 C27        15.3440    4.3090    1.3880 c3        1 PD1     -0.140100
     28 C28        15.4090    2.2530   -0.0430 c3        1 PD1     -0.140100
     29 N1          2.1230   -0.0570    1.4600 n4        1 PD1     -0.694400
     30 N2          7.4830    2.2460   -0.9810 n4        1 PD1     -0.746700
     31 N3          7.4750    4.6340   -1.5720 nb        1 PD1     -0.668000
     32 N4          9.5500    3.4940   -0.8730 nb        1 PD1     -0.617000
     33 N5         11.6210    4.6870   -0.8860 nc        1 PD1     -0.326300
     34 N6         13.7320    5.7990   -0.9650 n         1 PD1     -0.439500
     35 N7         15.8720    4.4950   -1.0670 n4        1 PD1     -0.669800
     36 O1         14.1690   10.8460   -0.0560 os        1 PD1     -0.253900
     37 O2         13.1660   10.4040   -4.7710 os        1 PD1     -0.252900
     38 O3         14.0530    4.0040   -2.4330 o         1 PD1     -0.434100
     39 H11        -0.8820    1.3270    0.4150 hc        1 PD1      0.086200
     40 H12         0.1090    1.8730    1.8320 hc        1 PD1      0.086200
     41 H13A       -0.6870    0.2380    1.8450 hc        1 PD1      0.086200
     42 H21A        1.5020    1.1750   -0.1730 hx        1 PD1      0.107950
     43 H22         0.7440   -0.4900   -0.1170 hx        1 PD1      0.107950
     44 H31         2.2290   -0.9100    4.1410 hc        1 PD1      0.086200
     45 H32         3.5690   -1.7620    3.2510 hc        1 PD1      0.086200
     46 H33         2.0840   -2.6700    3.7460 hc        1 PD1      0.086200
     47 H41         0.6460   -1.3990    2.2200 hx        1 PD1      0.107950
     48 H42         2.0120   -2.1890    1.2910 hx        1 PD1      0.107950
     49 H51         3.3070   -0.5880   -0.2290 hx        1 PD1      0.110200
     50 H52         4.1170   -0.8030    1.3970 hx        1 PD1      0.110200
     51 H61         3.5240    1.9370    0.0270 hc        1 PD1      0.079700
     52 H62         4.3080    1.7050    1.6470 hc        1 PD1      0.079700
     53 H71         5.3370    0.5450   -1.0420 hc        1 PD1      0.082700
     54 H72         6.1330    0.3440    0.5780 hc        1 PD1      0.082700
     55 H81         6.4430    2.8320    0.7900 hx        1 PD1      0.127200
     56 H82         5.5220    3.0940   -0.7760 hx        1 PD1      0.127200
     57 H10         7.5580    6.6300   -2.1220 h4        1 PD1      0.093100
     58 H13         9.7890    7.9400   -2.1580 ha        1 PD1      0.189000
     59 H17        12.9610    8.6780    0.1940 ha        1 PD1      0.187000
     60 H19        14.2240   11.7330   -2.6400 ha        1 PD1      0.206000
     61 H21        11.4620    8.7690   -3.7180 hc        1 PD1      0.148200
     62 H221       15.7010   12.0640   -0.8300 h1        1 PD1      0.099700
     63 H222       14.0610   12.8860   -0.5690 h1        1 PD1      0.099700
     64 H223       15.0780   12.3680    0.8870 h1        1 PD1      0.099700
     65 H231       13.2340   12.5050   -4.6520 h1        1 PD1      0.101367
     66 H232       13.5870   11.6730   -6.2680 h1        1 PD1      0.101367
     67 H233       14.8570   11.6490   -4.9210 h1        1 PD1      0.101367
     68 H261       17.9940    4.4660    0.7250 hc        1 PD1      0.086700
     69 H262       18.0590    3.0090   -0.3760 hc        1 PD1      0.086700
     70 H263       17.6480    2.8100    1.3710 hc        1 PD1      0.086700
     71 H271       15.6420    3.7580    2.3210 hc        1 PD1      0.086700
     72 H272       14.2320    4.2570    1.3100 hc        1 PD1      0.086700
     73 H273       15.6740    5.3700    1.5110 hc        1 PD1      0.086700
     74 H281       15.4900    1.6590    0.9030 hc        1 PD1      0.086700
     75 H282       14.3290    2.3260   -0.3220 hc        1 PD1      0.086700
     76 H283       15.9590    1.6990   -0.8440 hc        1 PD1      0.086700
     77 HN2         8.0900    1.5560   -0.5090 hn        1 PD1      0.483300
     78 HN6        14.0320    6.1720   -0.0820 hn        1 PD1      0.348500
     79 HN7        16.3610    5.3810   -0.9120 hn        1 PD1      0.474800
     80 H111        2.1750    0.6230    2.2320 hn        1 PD1      0.446800
     81 H224        7.2770    1.9030   -1.9330 hn        1 PD1      0.483300
     82 H621       13.0520    7.9360   -3.9060 hc        1 PD1      0.148200
     83 H721       16.3420    3.9850   -1.8350 hn        1 PD1      0.474800
@<TRIPOS>BOND
     1    1    2 1   
     2    1   39 1   
     3    1   40 1   
     4    1   41 1   
     5    2   29 1   
     6    2   42 1   
     7    2   43 1   
     8    3    4 1   
     9    3   44 1   
    10    3   45 1   
    11    3   46 1   
    12    4   29 1   
    13    4   47 1   
    14    4   48 1   
    15    5    6 1   
    16    5   29 1   
    17    5   49 1   
    18    5   50 1   
    19    6    7 1   
    20    6   51 1   
    21    6   52 1   
    22    7    8 1   
    23    7   53 1   
    24    7   54 1   
    25    8   30 1   
    26    8   55 1   
    27    8   56 1   
    28    9   30 1   
    29    9   31 ar  
    30    9   32 ar  
    31   10   11 ar  
    32   10   31 ar  
    33   10   57 1   
    34   11   12 ar  
    35   11   13 2   
    36   12   32 ar  
    37   12   33 2   
    38   13   14 1   
    39   13   58 1   
    40   14   15 1   
    41   14   16 2   
    42   15   33 1   
    43   15   34 2   
    44   16   17 1   
    45   16   21 1   
    46   17   18 2   
    47   17   59 1   
    48   18   19 1   
    49   18   36 1   
    50   19   20 2   
    51   19   60 1   
    52   20   21 1   
    53   20   37 1   
    54   21   61 1   
    55   21   82 1   
    56   22   36 1   
    57   22   62 1   
    58   22   63 1   
    59   22   64 1   
    60   23   37 1   
    61   23   65 1   
    62   23   66 1   
    63   23   67 1   
    64   24   34 1   
    65   24   35 1   
    66   24   38 2   
    67   25   26 1   
    68   25   27 1   
    69   25   28 1   
    70   25   35 1   
    71   26   68 1   
    72   26   69 1   
    73   26   70 1   
    74   27   71 1   
    75   27   72 1   
    76   27   73 1   
    77   28   74 1   
    78   28   75 1   
    79   28   76 1   
    80   29   80 1   
    81   30   77 1   
    82   30   81 1   
    83   34   78 1   
    84   35   79 1   
    85   35   83 1   
@<TRIPOS>SUBSTRUCTURE
     1 PD1         1 TEMP              0 ****  ****    0 ROOT
