@<TRIPOS>MOLECULE
PD1
   81    83     1     0     0
SMALL
bcc


@<TRIPOS>ATOM
      1 C1         -0.1290   -0.1450   -0.2530 c3        1 PD1     -0.136100
      2 C2          1.3010   -0.5670    0.0130 c3        1 PD1      0.110300
      3 C3          1.2880   -0.4670    3.8180 c3        1 PD1     -0.136100
      4 C4          1.2920   -1.0810    2.4340 c3        1 PD1      0.110300
      5 C5          3.3040   -0.0950    1.3880 c3        1 PD1      0.103800
      6 C6          3.8740    1.1750    0.7640 c3        1 PD1     -0.103400
      7 C7          5.3840    1.1640    0.9030 c3        1 PD1     -0.097400
      8 C8          5.9550    2.4480    0.2910 c3        1 PD1      0.222800
      9 C9          8.0910    3.6590    0.0100 ca        1 PD1      0.908900
     10 C10         8.0450    5.8680   -0.7190 ca        1 PD1      0.517200
     11 C11         9.4790    5.9100   -0.7180 ca        1 PD1     -0.374600
     12 C12        10.1590    4.7020   -0.3260 ca        1 PD1      0.734300
     13 C13        10.2280    7.0460   -1.0820 ca        1 PD1      0.014000
     14 C14        11.6080    7.0010   -1.0560 cp        1 PD1     -0.188300
     15 C15        12.2190    5.7580   -0.6240 ca        1 PD1      0.572200
     16 C16        12.4070    8.1630   -1.4460 cp        1 PD1     -0.002000
     17 C17        12.2910    9.3510   -0.7270 ca        1 PD1     -0.211000
     18 C18        13.0440   10.4750   -1.1250 ca        1 PD1      0.177600
     19 C19        13.9150   10.4150   -2.2190 ca        1 PD1     -0.270000
     20 C20        14.0150    9.2080   -2.9230 ca        1 PD1      0.177600
     21 C21        13.2640    8.0800   -2.5510 ca        1 PD1     -0.211000
     22 C22        13.5270   12.7820   -0.7520 c3        1 PD1      0.108700
     23 C23        15.4450   10.1740   -4.5700 c3        1 PD1      0.108700
     24 C24        14.3610    4.8650    0.2150 c         1 PD1      0.663100
     25 C25        16.3650    4.1230   -1.2270 c3        1 PD1      0.156200
     26 C26        17.8840    3.9350   -1.1150 c3        1 PD1     -0.131767
     27 C27        15.6920    2.7520   -1.3110 c3        1 PD1     -0.131767
     28 C28        16.0550    4.9320   -2.4860 c3        1 PD1     -0.131767
     29 N1          1.8060   -0.1540    1.3670 nx        1 PD1     -0.691400
     30 N2          7.3820    2.5460    0.4570 nu        1 PD1     -0.848900
     31 N3          7.3480    4.8060   -0.3790 nb        1 PD1     -0.728000
     32 N4          9.4580    3.5650    0.0230 nb        1 PD1     -0.738000
     33 N5         11.5470    4.6500   -0.2930 nb        1 PD1     -0.672000
     34 N6         13.6470    5.7330   -0.5730 ns        1 PD1     -0.528400
     35 N7         15.8880    4.8620    0.0230 ny        1 PD1     -0.681800
     36 O1         12.8530   11.5910   -0.3470 os        1 PD1     -0.324900
     37 O2         14.8600    9.0070   -3.9920 os        1 PD1     -0.324900
     38 O3         13.9910    4.1110    1.1140 o         1 PD1     -0.445100
     39 H11        -0.8500   -0.6310    0.4480 hc        1 PD1      0.080033
     40 H12        -0.2530    0.9640   -0.1860 hc        1 PD1      0.080033
     41 H13A       -0.3930   -0.4620   -1.2950 hc        1 PD1      0.080033
     42 H21A        1.3990   -1.6880   -0.0620 hx        1 PD1      0.103700
     43 H22         1.9770   -0.0990   -0.7600 hx        1 PD1      0.103700
     44 H31         0.8500   -1.2180    4.5260 hc        1 PD1      0.080033
     45 H32         0.6570    0.4550    3.8600 hc        1 PD1      0.080033
     46 H33         2.3170   -0.2180    4.1730 hc        1 PD1      0.080033
     47 H41         0.2380   -1.3700    2.1520 hx        1 PD1      0.103700
     48 H42         1.9310   -2.0100    2.4180 hx        1 PD1      0.103700
     49 H51         3.6950   -1.0030    0.8470 hx        1 PD1      0.104200
     50 H52         3.6350   -0.1550    2.4660 hx        1 PD1      0.104200
     51 H61         3.4580    2.0840    1.2770 hc        1 PD1      0.069700
     52 H62         3.5990    1.2430   -0.3220 hc        1 PD1      0.069700
     53 H71         5.6670    1.0960    1.9870 hc        1 PD1      0.064700
     54 H72         5.8080    0.2650    0.3830 hc        1 PD1      0.064700
     55 H81         5.6820    2.4820   -0.8050 h1        1 PD1      0.061200
     56 H82         5.4700    3.3360    0.7920 h1        1 PD1      0.061200
     57 H10         7.4690    6.7650   -1.0240 h4        1 PD1      0.046100
     58 H13         9.7090    7.9710   -1.3880 ha        1 PD1      0.169000
     59 H17        11.6200    9.4330    0.1410 ha        1 PD1      0.155000
     60 H19        14.4980   11.2950   -2.5250 ha        1 PD1      0.161000
     61 H21        13.3150    7.1740   -3.1710 ha        1 PD1      0.155000
     62 H221       13.2170   13.0780   -1.7830 h1        1 PD1      0.057033
     63 H222       14.6330   12.6440   -0.6920 h1        1 PD1      0.057033
     64 H223       13.1800   13.5370   -0.0000 h1        1 PD1      0.057033
     65 H231       15.9640    9.7770   -5.4800 h1        1 PD1      0.057033
     66 H232       14.6580   10.9140   -4.8530 h1        1 PD1      0.057033
     67 H233       16.1800   10.6280   -3.8620 h1        1 PD1      0.057033
     68 H261       18.4160    4.9170   -1.1070 hc        1 PD1      0.078811
     69 H262       18.1600    3.3540   -0.2010 hc        1 PD1      0.078811
     70 H263       18.2330    3.3560   -2.0060 hc        1 PD1      0.078811
     71 H271       16.0400    2.2480   -2.2470 hc        1 PD1      0.078811
     72 H272       14.5790    2.8430   -1.3520 hc        1 PD1      0.078811
     73 H273       15.9720    2.1110   -0.4400 hc        1 PD1      0.078811
     74 H281       16.6400    4.4940   -3.3360 hc        1 PD1      0.078811
     75 H282       16.3570    6.0030   -2.3840 hc        1 PD1      0.078811
     76 H283       14.9740    4.8700   -2.7590 hc        1 PD1      0.078811
     77 HN2         7.8940    1.7010    0.5840 hn        1 PD1      0.454800
     78 HN6        14.1110    6.3760   -1.1870 hn        1 PD1      0.370500
     79 HN7        16.2720    4.3710    0.8430 hn        1 PD1      0.459300
     80 H111        1.4440    0.7890    1.5670 hn        1 PD1      0.445800
     81 H721       16.2610    5.8130    0.0030 hn        1 PD1      0.459300
@<TRIPOS>BOND
     1    1    2 1   
     2    1   39 1   
     3    1   40 1   
     4    1   41 1   
     5    2   29 1   
     6    2   42 1   
     7    2   43 1   
     8    3    4 1   
     9    3   44 1   
    10    3   45 1   
    11    3   46 1   
    12    4   29 1   
    13    4   47 1   
    14    4   48 1   
    15    5    6 1   
    16    5   29 1   
    17    5   49 1   
    18    5   50 1   
    19    6    7 1   
    20    6   51 1   
    21    6   52 1   
    22    7    8 1   
    23    7   53 1   
    24    7   54 1   
    25    8   30 1   
    26    8   55 1   
    27    8   56 1   
    28    9   30 1   
    29    9   31 ar  
    30    9   32 ar  
    31   10   11 ar  
    32   10   31 ar  
    33   10   57 1   
    34   11   12 ar  
    35   11   13 ar  
    36   12   32 ar  
    37   12   33 ar  
    38   13   14 ar  
    39   13   58 1   
    40   14   15 ar  
    41   14   16 1   
    42   15   33 ar  
    43   15   34 1   
    44   16   17 ar  
    45   16   21 ar  
    46   17   18 ar  
    47   17   59 1   
    48   18   19 ar  
    49   18   36 1   
    50   19   20 ar  
    51   19   60 1   
    52   20   21 ar  
    53   20   37 1   
    54   21   61 1   
    55   22   36 1   
    56   22   62 1   
    57   22   63 1   
    58   22   64 1   
    59   23   37 1   
    60   23   65 1   
    61   23   66 1   
    62   23   67 1   
    63   24   34 1   
    64   24   35 1   
    65   24   38 2   
    66   25   26 1   
    67   25   27 1   
    68   25   28 1   
    69   25   35 1   
    70   26   68 1   
    71   26   69 1   
    72   26   70 1   
    73   27   71 1   
    74   27   72 1   
    75   27   73 1   
    76   28   74 1   
    77   28   75 1   
    78   28   76 1   
    79   29   80 1   
    80   30   77 1   
    81   34   78 1   
    82   35   79 1   
    83   35   81 1   
@<TRIPOS>SUBSTRUCTURE
     1 PD1         1 TEMP              0 ****  ****    0 ROOT
