@<TRIPOS>MOLECULE
PD1
   79    81     1     0     0
SMALL
bcc


@<TRIPOS>ATOM
      1 C1         -1.6240   -2.2080   10.7080 c3        1 PD1     -0.093600
      2 C2         -0.4100   -2.0160    9.8130 c3        1 PD1      0.174300
      3 C3          0.4690    1.4990   10.8070 c3        1 PD1     -0.093600
      4 C4          0.5990   -0.0150   10.7480 c3        1 PD1      0.174300
      5 C5          0.6850   -0.4160    8.3550 c3        1 PD1      0.175800
      6 C6         -0.2100   -0.4000    7.1150 c3        1 PD1     -0.079400
      7 C7          0.6240   -0.1010    5.8870 c3        1 PD1     -0.097400
      8 C8         -0.2730   -0.0950    4.6480 c3        1 PD1      0.213800
      9 C9         -0.1540    0.1250    2.1890 ca        1 PD1      0.901900
     10 C10        -2.1190    0.1110    0.9490 ca        1 PD1      0.510200
     11 C11        -1.3700    0.1470   -0.2650 ca        1 PD1     -0.410600
     12 C12         0.0670    0.1570   -0.1440 ca        1 PD1      0.755300
     13 C13        -1.9480    0.1630   -1.5510 ca        1 PD1      0.009000
     14 C14        -1.1500    0.1790   -2.6710 cp        1 PD1     -0.226300
     15 C15         0.3030    0.2020   -2.4830 ca        1 PD1      0.628200
     16 C16        -1.7560    0.1800   -4.0030 cp        1 PD1      0.016000
     17 C17        -2.6210    1.2190   -4.3590 ca        1 PD1     -0.186500
     18 C18        -3.2210    1.2100   -5.6300 ca        1 PD1      0.161600
     19 C19        -2.9740    0.1810   -6.5460 ca        1 PD1     -0.273000
     20 C20        -2.1080   -0.8510   -6.1630 ca        1 PD1      0.161600
     21 C21        -1.4950   -0.8620   -4.8980 ca        1 PD1     -0.186500
     22 C22        -4.6520    2.3350   -7.1680 c3        1 PD1      0.112700
     23 C23        -2.3330   -1.9270   -8.2780 c3        1 PD1      0.112700
     24 C24         2.5150    0.3260   -3.7460 c         1 PD1      0.784100
     25 C25         4.8030    0.3080   -2.7890 c3        1 PD1      0.128400
     26 C26         5.4650    0.0050   -1.4320 c3        1 PD1     -0.109767
     27 C27         5.4710   -0.5840   -3.8480 c3        1 PD1     -0.109767
     28 C28         5.1060    1.7740   -3.1410 c3        1 PD1     -0.109767
     29 N1         -0.0540   -0.6190    9.5940 n3        1 PD1     -0.744600
     30 N2          0.4560    0.2040    3.4400 nh        1 PD1     -0.841900
     31 N3         -1.5730    0.0950    2.1470 nb        1 PD1     -0.741000
     32 N4          0.6740    0.1320    1.0970 nb        1 PD1     -0.765000
     33 N5          0.8760    0.1900   -1.2630 nb        1 PD1     -0.766000
     34 N6          1.0980    0.2540   -3.6220 n         1 PD1     -0.558400
     35 N7          3.3640    0.0430   -2.6930 n         1 PD1     -0.535900
     36 O1         -4.0590    2.2790   -5.8760 os        1 PD1     -0.322400
     37 O2         -1.7900   -1.9300   -6.9630 os        1 PD1     -0.322400
     38 O3          2.9150    0.5870   -4.9090 o         1 PD1     -0.645100
     39 H11        -2.5010   -1.6350   10.3230 hc        1 PD1      0.038200
     40 H12        -1.8860   -3.2940   10.7260 hc        1 PD1      0.038200
     41 H13A       -1.4210   -1.8770   11.7540 hc        1 PD1      0.038200
     42 H21A        0.4560   -2.5950   10.2530 h1        1 PD1      0.028200
     43 H22        -0.6420   -2.4790    8.8120 h1        1 PD1      0.028200
     44 H31         0.9030    1.8570   11.7710 hc        1 PD1      0.038200
     45 H32         1.0180    1.9920    9.9690 hc        1 PD1      0.038200
     46 H33        -0.6020    1.8120   10.7580 hc        1 PD1      0.038200
     47 H41         0.1220   -0.4390   11.6780 h1        1 PD1      0.028200
     48 H42         1.6960   -0.2840   10.7860 h1        1 PD1      0.028200
     49 H51         1.2150    0.5770    8.4120 h1        1 PD1      0.030700
     50 H52         1.4800   -1.2080    8.2130 h1        1 PD1      0.030700
     51 H61        -0.7240   -1.3890    6.9890 hc        1 PD1      0.052700
     52 H62        -1.0090    0.3780    7.2310 hc        1 PD1      0.052700
     53 H71         1.1270    0.8950    6.0040 hc        1 PD1      0.047200
     54 H72         1.4300   -0.8740    5.7800 hc        1 PD1      0.047200
     55 H81        -0.7830   -1.0990    4.5650 h1        1 PD1      0.055200
     56 H82        -1.0770    0.6850    4.7800 h1        1 PD1      0.055200
     57 H10        -3.2260    0.0890    0.9120 h4        1 PD1      0.027100
     58 H13        -3.0460    0.1580   -1.6500 ha        1 PD1      0.147000
     59 H17        -2.8330    2.0430   -3.6650 ha        1 PD1      0.158500
     60 H19        -3.4450    0.1820   -7.5370 ha        1 PD1      0.146000
     61 H21        -0.8320   -1.6960   -4.6270 ha        1 PD1      0.158500
     62 H221       -5.2520    3.2800   -7.1370 h1        1 PD1      0.046033
     63 H222       -3.8680    2.3930   -7.9620 h1        1 PD1      0.046033
     64 H223       -5.3160    1.4530   -7.3350 h1        1 PD1      0.046033
     65 H231       -1.9130   -2.8600   -8.7320 h1        1 PD1      0.046033
     66 H232       -3.4480   -1.9720   -8.2430 h1        1 PD1      0.046033
     67 H233       -1.9930   -1.0260   -8.8440 h1        1 PD1      0.046033
     68 H261        6.5610    0.1960   -1.5200 hc        1 PD1      0.047033
     69 H262        5.0530    0.6620   -0.6290 hc        1 PD1      0.047033
     70 H263        5.3110   -1.0620   -1.1430 hc        1 PD1      0.047033
     71 H271        5.3230   -1.6630   -3.6040 hc        1 PD1      0.047033
     72 H272        5.0420   -0.3770   -4.8580 hc        1 PD1      0.047033
     73 H273        6.5650   -0.3670   -3.8670 hc        1 PD1      0.047033
     74 H281        4.6890    2.4620   -2.3670 hc        1 PD1      0.047033
     75 H282        6.2120    1.9180   -3.1880 hc        1 PD1      0.047033
     76 H283        4.6670    2.0330   -4.1350 hc        1 PD1      0.047033
     77 HN2         1.4440    0.0720    3.4640 hn        1 PD1      0.442800
     78 HN6         0.6210    0.3430   -4.4990 hn        1 PD1      0.355500
     79 HN7         3.0030   -0.0260   -1.7650 hn        1 PD1      0.348500
@<TRIPOS>BOND
     1    1    2 1   
     2    1   39 1   
     3    1   40 1   
     4    1   41 1   
     5    2   29 1   
     6    2   42 1   
     7    2   43 1   
     8    3    4 1   
     9    3   44 1   
    10    3   45 1   
    11    3   46 1   
    12    4   29 1   
    13    4   47 1   
    14    4   48 1   
    15    5    6 1   
    16    5   29 1   
    17    5   49 1   
    18    5   50 1   
    19    6    7 1   
    20    6   51 1   
    21    6   52 1   
    22    7    8 1   
    23    7   53 1   
    24    7   54 1   
    25    8   30 1   
    26    8   55 1   
    27    8   56 1   
    28    9   30 1   
    29    9   31 ar  
    30    9   32 ar  
    31   10   11 ar  
    32   10   31 ar  
    33   10   57 1   
    34   11   12 ar  
    35   11   13 ar  
    36   12   32 ar  
    37   12   33 ar  
    38   13   14 ar  
    39   13   58 1   
    40   14   15 ar  
    41   14   16 1   
    42   15   33 ar  
    43   15   34 1   
    44   16   17 ar  
    45   16   21 ar  
    46   17   18 ar  
    47   17   59 1   
    48   18   19 ar  
    49   18   36 1   
    50   19   20 ar  
    51   19   60 1   
    52   20   21 ar  
    53   20   37 1   
    54   21   61 1   
    55   22   36 1   
    56   22   62 1   
    57   22   63 1   
    58   22   64 1   
    59   23   37 1   
    60   23   65 1   
    61   23   66 1   
    62   23   67 1   
    63   24   34 1   
    64   24   35 1   
    65   24   38 2   
    66   25   26 1   
    67   25   27 1   
    68   25   28 1   
    69   25   35 1   
    70   26   68 1   
    71   26   69 1   
    72   26   70 1   
    73   27   71 1   
    74   27   72 1   
    75   27   73 1   
    76   28   74 1   
    77   28   75 1   
    78   28   76 1   
    79   30   77 1   
    80   34   78 1   
    81   35   79 1   
@<TRIPOS>SUBSTRUCTURE
     1 PD1         1 TEMP              0 ****  ****    0 ROOT
