@<TRIPOS>MOLECULE
PD1
   81    83     1     0     0
SMALL
bcc


@<TRIPOS>ATOM
      1 C1         -0.4250    0.4090    0.1140 c3        1 PD1     -0.136100
      2 C2          0.9830   -0.1370    0.0070 c3        1 PD1      0.110300
      3 C3          1.5710   -1.0710    3.6500 c3        1 PD1     -0.136100
      4 C4          1.3040   -1.2880    2.1760 c3        1 PD1      0.110300
      5 C5          3.2110   -0.1500    1.0860 c3        1 PD1      0.103800
      6 C6          3.7910    1.2130    0.7250 c3        1 PD1     -0.103400
      7 C7          5.2960    1.0910    0.5800 c3        1 PD1     -0.097400
      8 C8          5.8810    2.4640    0.2310 c3        1 PD1      0.219800
      9 C9          8.0370    3.5920   -0.1830 ca        1 PD1      0.904900
     10 C10         8.0860    5.9140   -0.3220 ca        1 PD1      0.516200
     11 C11         9.4830    5.8760   -0.6460 ca        1 PD1     -0.374600
     12 C12        10.0890    4.5720   -0.7360 ca        1 PD1      0.733300
     13 C13        10.2630    7.0250   -0.8800 ca        1 PD1      0.013000
     14 C14        11.5980    6.9000   -1.2120 cp        1 PD1     -0.189300
     15 C15        12.1340    5.5520   -1.2910 ca        1 PD1      0.572200
     16 C16        12.4250    8.0820   -1.4550 cp        1 PD1     -0.008000
     17 C17        12.4960    9.0770   -0.4800 ca        1 PD1     -0.207500
     18 C18        13.2700   10.2300   -0.7230 ca        1 PD1      0.174600
     19 C19        13.9820   10.3860   -1.9180 ca        1 PD1     -0.267000
     20 C20        13.8960    9.3720   -2.8800 ca        1 PD1      0.174600
     21 C21        13.1170    8.2230   -2.6640 ca        1 PD1     -0.207500
     22 C22        13.9620   12.3690    0.0750 c3        1 PD1      0.108700
     23 C23        15.1510   10.6320   -4.4690 c3        1 PD1      0.108700
     24 C24        14.1080    4.3010   -2.1030 c         1 PD1      0.662100
     25 C25        16.4800    4.2410   -1.0910 c3        1 PD1      0.156200
     26 C26        17.9410    4.0620   -1.5250 c3        1 PD1     -0.131433
     27 C27        16.3650    5.4980   -0.2290 c3        1 PD1     -0.131433
     28 C28        16.0400    3.0180   -0.2850 c3        1 PD1     -0.131433
     29 N1          1.7280   -0.1310    1.3130 n4        1 PD1     -0.691400
     30 N2          7.3180    2.4400    0.1390 nh        1 PD1     -0.842900
     31 N3          7.3620    4.8390   -0.0990 nb        1 PD1     -0.726000
     32 N4          9.3560    3.4240   -0.5100 nb        1 PD1     -0.734000
     33 N5         11.4340    4.4370   -1.0560 nb        1 PD1     -0.669000
     34 N6         13.5230    5.4390   -1.6060 n         1 PD1     -0.525400
     35 N7         15.6260    4.3680   -2.3520 n4        1 PD1     -0.682800
     36 O1         13.2690   11.1420    0.3040 os        1 PD1     -0.325900
     37 O2         14.5780    9.3850   -4.0770 os        1 PD1     -0.325900
     38 O3         13.6180    3.2230   -2.4340 o         1 PD1     -0.443100
     39 H11        -0.4340    1.4630    0.4860 hc        1 PD1      0.080033
     40 H12        -1.0710   -0.2140    0.7800 hc        1 PD1      0.080033
     41 H13A       -0.8770    0.3990   -0.9120 hc        1 PD1      0.080033
     42 H21A        1.5710    0.4900   -0.7230 hx        1 PD1      0.103700
     43 H22         0.9640   -1.1990   -0.3710 hx        1 PD1      0.103700
     44 H31         1.1810   -1.9650    4.2040 hc        1 PD1      0.080033
     45 H32         2.6620   -0.9770    3.8720 hc        1 PD1      0.080033
     46 H33         1.0420   -0.1670    4.0390 hc        1 PD1      0.080033
     47 H41         1.8440   -2.2060    1.8080 hx        1 PD1      0.103700
     48 H42         0.1960   -1.4390    2.0170 hx        1 PD1      0.103700
     49 H51         3.4260   -0.8940    0.2670 hx        1 PD1      0.104200
     50 H52         3.6980   -0.5170    2.0370 hx        1 PD1      0.104200
     51 H61         3.3520    1.5910   -0.2360 hc        1 PD1      0.069700
     52 H62         3.5530    1.9640    1.5260 hc        1 PD1      0.069700
     53 H71         5.7430    0.7150    1.5380 hc        1 PD1      0.064700
     54 H72         5.5410    0.3490   -0.2250 hc        1 PD1      0.064700
     55 H81         5.4250    2.8160   -0.7420 h1        1 PD1      0.061700
     56 H82         5.5840    3.2010    1.0330 h1        1 PD1      0.061700
     57 H10         7.5630    6.8890   -0.2560 h4        1 PD1      0.046100
     58 H13         9.8040    8.0260   -0.8030 ha        1 PD1      0.169000
     59 H17        11.9530    8.9850    0.4720 ha        1 PD1      0.155500
     60 H19        14.5830   11.2870   -2.1030 ha        1 PD1      0.161000
     61 H21        13.0140    7.4860   -3.4720 ha        1 PD1      0.155500
     62 H221       13.7740   12.9450    1.0180 h1        1 PD1      0.057367
     63 H222       15.0540   12.1800   -0.0610 h1        1 PD1      0.057367
     64 H223       13.5360   12.9030   -0.8080 h1        1 PD1      0.057367
     65 H231       16.0060   10.8910   -3.7990 h1        1 PD1      0.057367
     66 H232       15.5100   10.4330   -5.5110 h1        1 PD1      0.057367
     67 H233       14.3830   11.4420   -4.4630 h1        1 PD1      0.057367
     68 H261       18.5650    3.9210   -0.6070 hc        1 PD1      0.078478
     69 H262       18.3170    4.9640   -2.0670 hc        1 PD1      0.078478
     70 H263       18.0710    3.1590   -2.1690 hc        1 PD1      0.078478
     71 H271       15.3990    5.5230    0.3310 hc        1 PD1      0.078478
     72 H272       17.1900    5.4790    0.5280 hc        1 PD1      0.078478
     73 H273       16.4780    6.4320   -0.8310 hc        1 PD1      0.078478
     74 H281       16.6560    2.9720    0.6470 hc        1 PD1      0.078478
     75 H282       16.2020    2.0740   -0.8620 hc        1 PD1      0.078478
     76 H283       14.9630    3.0840    0.0070 hc        1 PD1      0.078478
     77 HN2         7.7480    1.5670   -0.0810 hn        1 PD1      0.451800
     78 HN6        14.0570    6.2780   -1.4770 hn        1 PD1      0.368500
     79 HN7        15.8450    3.5650   -2.9590 hn        1 PD1      0.460300
     80 H111        1.4910    0.7380    1.8100 hn        1 PD1      0.445800
     81 H721       15.8850    5.2300   -2.8370 hn        1 PD1      0.460300
@<TRIPOS>BOND
     1    1    2 1   
     2    1   39 1   
     3    1   40 1   
     4    1   41 1   
     5    2   29 1   
     6    2   42 1   
     7    2   43 1   
     8    3    4 1   
     9    3   44 1   
    10    3   45 1   
    11    3   46 1   
    12    4   29 1   
    13    4   47 1   
    14    4   48 1   
    15    5    6 1   
    16    5   29 1   
    17    5   49 1   
    18    5   50 1   
    19    6    7 1   
    20    6   51 1   
    21    6   52 1   
    22    7    8 1   
    23    7   53 1   
    24    7   54 1   
    25    8   30 1   
    26    8   55 1   
    27    8   56 1   
    28    9   30 1   
    29    9   31 ar  
    30    9   32 ar  
    31   10   11 ar  
    32   10   31 ar  
    33   10   57 1   
    34   11   12 ar  
    35   11   13 ar  
    36   12   32 ar  
    37   12   33 ar  
    38   13   14 ar  
    39   13   58 1   
    40   14   15 ar  
    41   14   16 1   
    42   15   33 ar  
    43   15   34 1   
    44   16   17 ar  
    45   16   21 ar  
    46   17   18 ar  
    47   17   59 1   
    48   18   19 ar  
    49   18   36 1   
    50   19   20 ar  
    51   19   60 1   
    52   20   21 ar  
    53   20   37 1   
    54   21   61 1   
    55   22   36 1   
    56   22   62 1   
    57   22   63 1   
    58   22   64 1   
    59   23   37 1   
    60   23   65 1   
    61   23   66 1   
    62   23   67 1   
    63   24   34 1   
    64   24   35 1   
    65   24   38 2   
    66   25   26 1   
    67   25   27 1   
    68   25   28 1   
    69   25   35 1   
    70   26   68 1   
    71   26   69 1   
    72   26   70 1   
    73   27   71 1   
    74   27   72 1   
    75   27   73 1   
    76   28   74 1   
    77   28   75 1   
    78   28   76 1   
    79   29   80 1   
    80   30   77 1   
    81   34   78 1   
    82   35   79 1   
    83   35   81 1   
@<TRIPOS>SUBSTRUCTURE
     1 PD1         1 TEMP              0 ****  ****    0 ROOT
