@<TRIPOS>MOLECULE
PD2
   15    15     1     0     0
SMALL
bcc


@<TRIPOS>ATOM
      1 O42         2.5760    1.7970    0.4000 o         1 PD2     -0.856300
      2 C41         2.5490    0.5420    0.2350 c         1 PD2      0.904200
      3 O41         3.6090   -0.1580    0.2000 o         1 PD2     -0.856300
      4 C4          1.2170   -0.1600    0.0740 ca        1 PD2     -0.109600
      5 C5          1.1850   -1.5520   -0.1090 ca        1 PD2     -0.254300
      6 C6         -0.0560   -2.1790   -0.2550 ca        1 PD2      0.329200
      7 C3         -0.0010    0.5210    0.0990 ca        1 PD2     -0.206300
      8 C2         -1.2150   -0.1950   -0.0580 ca        1 PD2      0.361800
      9 N1         -1.2430   -1.5350   -0.2340 nb        1 PD2     -0.693000
     10 C21        -2.5430    0.5750   -0.0270 c         1 PD2      0.824100
     11 O21        -2.9960    1.0230   -1.1180 o         1 PD2     -0.845300
     12 O22        -3.1110    0.7350    1.0900 o         1 PD2     -0.845300
     13 H5          2.1280   -2.1130   -0.1330 ha        1 PD2      0.131000
     14 H6         -0.1180   -3.2710   -0.4010 h4        1 PD2     -0.037900
     15 H3         -0.0160    1.6110    0.2400 ha        1 PD2      0.152000
@<TRIPOS>BOND
     1    1    2 1   
     2    2    3 1   
     3    2    4 1   
     4    4    5 ar  
     5    4    7 ar  
     6    5    6 ar  
     7    5   13 1   
     8    6    9 ar  
     9    6   14 1   
    10    7    8 ar  
    11    7   15 1   
    12    8    9 ar  
    13    8   10 1   
    14   10   11 1   
    15   10   12 1   
@<TRIPOS>SUBSTRUCTURE
     1 PD2         1 TEMP              0 ****  ****    0 ROOT
