@<TRIPOS>MOLECULE
PD2
   15    15     1     0     0
SMALL
bcc


@<TRIPOS>ATOM
      1 O42         0.0530   -0.8780   -0.0160 o         1 PD2     -0.856300
      2 C41         1.2710   -0.5340    0.0090 c         1 PD2      0.904200
      3 O41         1.9360   -0.4780    1.0890 o         1 PD2     -0.856300
      4 C4          1.9700   -0.1760   -1.2860 ca        1 PD2     -0.109600
      5 C5          3.3200    0.2080   -1.2610 ca        1 PD2     -0.254300
      6 C6          3.9460    0.5350   -2.4690 ca        1 PD2      0.329200
      7 C3          1.3260   -0.2090   -2.5240 ca        1 PD2     -0.206300
      8 C2          2.0370    0.1380   -3.7010 ca        1 PD2      0.361800
      9 N1          3.3370    0.5080   -3.6740 nb        1 PD2     -0.693000
     10 C21         1.3080    0.0940   -5.0520 c         1 PD2      0.824100
     11 O21         0.7160    1.1390   -5.4410 o         1 PD2     -0.845300
     12 O22         1.3260   -0.9890   -5.7010 o         1 PD2     -0.845300
     13 H5          3.8520    0.2440   -0.3020 ha        1 PD2      0.131000
     14 H6          5.0060    0.8410   -2.4850 h4        1 PD2     -0.037900
     15 H3          0.2700   -0.5050   -2.5840 ha        1 PD2      0.152000
@<TRIPOS>BOND
     1    1    2 1   
     2    2    3 1   
     3    2    4 1   
     4    4    5 ar  
     5    4    7 ar  
     6    5    6 ar  
     7    5   13 1   
     8    6    9 ar  
     9    6   14 1   
    10    7    8 ar  
    11    7   15 1   
    12    8    9 ar  
    13    8   10 1   
    14   10   11 1   
    15   10   12 1   
@<TRIPOS>SUBSTRUCTURE
     1 PD2         1 TEMP              0 ****  ****    0 ROOT
