@<TRIPOS>MOLECULE
PD2
   15    12     1     0     0
SMALL
bcc


@<TRIPOS>ATOM
      1 O42        -0.8990    0.8330    3.0770 o         1 PD2     -0.604000
      2 C41        -1.4330    0.3580    2.0400 c1        1 PD2      0.353000
      3 O41        -2.5970   -0.1170    2.0920 os        1 PD2     -0.578000
      4 C4         -0.6780    0.3690    0.7290 c2        1 PD2     -0.089000
      5 C5         -0.7360    1.4650   -0.0830 c2        1 PD2     -0.189000
      6 C6         -0.0070    1.4930   -1.2610 c1        1 PD2     -0.136000
      7 C3          0.0980   -0.6980    0.3790 c1        1 PD2     -0.141000
      8 C2          0.8260   -0.6670   -0.8000 c1        1 PD2     -0.056000
      9 N1          0.7670    0.4270   -1.6090 n1        1 PD2     -0.167000
     10 C21         1.6950   -1.8450   -1.1820 c2        1 PD2      0.383000
     11 O21         1.2450   -2.7360   -1.9500 o         1 PD2     -0.580000
     12 O22         2.8720   -1.9280   -0.7440 o         1 PD2     -0.580000
     13 H5         -1.2670    2.2400    0.1810 ha        1 PD2      0.131000
     14 H6         -0.0490    2.2760   -1.8420 ha        1 PD2      0.099000
     15 H3          0.1630   -1.4700    0.9730 ha        1 PD2      0.152000
@<TRIPOS>BOND
     1    1    2 1   
     2    2    4 1   
     3    4    5 1   
     4    4    7 1   
     5    5    6 1   
     6    5   13 1   
     7    6   14 1   
     8    7   15 1   
     9    8    9 1   
    10    8   10 1   
    11   10   11 1   
    12   10   12 1   
@<TRIPOS>SUBSTRUCTURE
     1 PD2         1 TEMP              0 ****  ****    0 ROOT
