@<TRIPOS>MOLECULE
PD2
   15    15     1     0     0
SMALL
bcc


@<TRIPOS>ATOM
      1 O42        -0.0250   -0.3960    0.0430 o         1 PD2     -0.856300
      2 C41         1.2290   -0.2210    0.0420 c         1 PD2      0.904200
      3 O41         1.9050   -0.1670    1.1160 o         1 PD2     -0.856300
      4 C4          1.9580   -0.0680   -1.2760 ca        1 PD2     -0.109600
      5 C5          3.3490    0.1270   -1.2800 ca        1 PD2     -0.254300
      6 C6          4.0020    0.2660   -2.5090 ca        1 PD2      0.329200
      7 C3          1.3040   -0.1110   -2.5080 ca        1 PD2     -0.206300
      8 C2          2.0450    0.0390   -3.7080 ca        1 PD2      0.361800
      9 N1          3.3830    0.2260   -3.7090 nb        1 PD2     -0.693000
     10 C21         1.3040   -0.0130   -5.0520 c         1 PD2      0.824100
     11 O21         0.8570    1.0700   -5.5260 o         1 PD2     -0.845300
     12 O22         1.1660   -1.1370   -5.6120 o         1 PD2     -0.845300
     13 H5          3.8890    0.1660   -0.3260 ha        1 PD2      0.131000
     14 H6          5.0930    0.4200   -2.5490 h4        1 PD2     -0.037900
     15 H3          0.2160   -0.2620   -2.5460 ha        1 PD2      0.152000
@<TRIPOS>BOND
     1    1    2 1   
     2    2    3 1   
     3    2    4 1   
     4    4    5 ar  
     5    4    7 ar  
     6    5    6 ar  
     7    5   13 1   
     8    6    9 ar  
     9    6   14 1   
    10    7    8 ar  
    11    7   15 1   
    12    8    9 ar  
    13    8   10 1   
    14   10   11 1   
    15   10   12 1   
@<TRIPOS>SUBSTRUCTURE
     1 PD2         1 TEMP              0 ****  ****    0 ROOT
