@<TRIPOS>MOLECULE
PD3
   60    64     1     0     0
SMALL
bcc


@<TRIPOS>ATOM
      1 C4         -4.4920    1.1030   -0.9150 ca        1 PD3      0.473800
      2 C5         -4.3070   -0.2760   -0.4890 ca        1 PD3     -0.494500
      3 C6         -4.4970   -1.2930   -1.4740 ca        1 PD3      0.750200
      4 N1         -4.8400   -0.9310   -2.7550 nb        1 PD3     -0.795000
      5 N3         -4.8410    1.4610   -2.1900 nb        1 PD3     -0.740000
      6 CAQ        -3.1860    4.1120    0.8390 c3        1 PD3     -0.092400
      7 CAO        -3.7500    5.4010    1.4180 c3        1 PD3     -0.079900
      8 CAP        -5.2490    5.2060    1.6110 c3        1 PD3     -0.079900
      9 CAR        -5.5990    3.8050    1.1310 c3        1 PD3     -0.092400
     10 CBH        -4.3990    3.3420    0.2770 c3        1 PD3      0.074000
     11 NBI        -4.2180    1.8970    0.2170 na        1 PD3      0.004200
     12 NAV        -3.9300    1.1270    1.2860 nc        1 PD3     -0.519100
     13 C2         -4.9920    0.3970   -3.0090 ca        1 PD3      0.693900
     14 NAA        -4.3890   -2.6270   -1.1320 nh        1 PD3     -0.941500
     15 CBE        -3.9590   -0.1770    0.9160 cd        1 PD3      0.378900
     16 CAS        -3.7210   -1.3080    1.8480 c3        1 PD3     -0.053400
     17 CAZ        -2.4410   -2.0290    1.5900 ca        1 PD3     -0.065300
     18 CAM        -1.2640   -1.3170    1.3600 ca        1 PD3     -0.165000
     19 CAH        -2.4160   -3.4280    1.6180 ca        1 PD3     -0.167000
     20 CAF        -1.2140   -4.1030    1.4190 ca        1 PD3     -0.107000
     21 CAI        -0.0300   -3.4080    1.1900 ca        1 PD3     -0.134000
     22 CBB        -0.0410   -1.9980    1.1570 ca        1 PD3      0.064600
     23 NAW         1.1350   -1.2350    0.9980 n         1 PD3     -0.461100
     24 CAY         2.2170   -1.6530    0.1930 c         1 PD3      0.772100
     25 OAB         2.2950   -2.8160   -0.2590 o         1 PD3     -0.608100
     26 NAX         3.2150   -0.6860   -0.0740 n         1 PD3     -0.465100
     27 CBC         4.4560   -1.0080   -0.6550 ca        1 PD3      0.063600
     28 CAN         5.5890   -0.2380   -0.3000 ca        1 PD3     -0.137000
     29 CAJ         4.6010   -2.0230   -1.6260 ca        1 PD3     -0.109000
     30 CAG         5.8400   -2.2520   -2.2180 ca        1 PD3     -0.113000
     31 CAK         6.9530   -1.4880   -1.8730 ca        1 PD3     -0.104000
     32 CBD         6.8140   -0.4840   -0.9150 ca        1 PD3     -0.143300
     33 CBJ         8.0250    0.3500   -0.5120 c3        1 PD3      0.687200
     34 FAD         8.7230   -0.1530    0.5600 f         1 PD3     -0.236633
     35 FAE         8.9760    0.4910   -1.4940 f         1 PD3     -0.236633
     36 FAC         7.7330    1.6410   -0.1410 f         1 PD3     -0.236633
     37 HAQA       -2.6620    3.5300    1.6370 hc        1 PD3      0.058200
     38 HAO        -3.2520    5.6420    2.3910 hc        1 PD3      0.045700
     39 HAOA       -3.5570    6.2580    0.7250 hc        1 PD3      0.045700
     40 HAP        -5.5310    5.3300    2.6860 hc        1 PD3      0.045700
     41 HAPA       -5.8190    5.9720    1.0270 hc        1 PD3      0.045700
     42 HAR        -5.7630    3.1270    2.0060 hc        1 PD3      0.058200
     43 HARA       -6.5340    3.8030    0.5180 hc        1 PD3      0.058200
     44 HBH        -4.5690    3.6760   -0.7900 h1        1 PD3      0.090700
     45 H2         -5.2790    0.6390   -4.0560 h5        1 PD3      0.053100
     46 HNAA       -3.8610   -2.8340   -0.3150 hn        1 PD3      0.432800
     47 HNAB       -4.3750   -3.3010   -1.8620 hn        1 PD3      0.432800
     48 HAS        -3.7060   -0.9410    2.9140 hc        1 PD3      0.074700
     49 HASA       -4.5910   -2.0180    1.7590 hc        1 PD3      0.074700
     50 HAM        -1.3060   -0.2160    1.3420 ha        1 PD3      0.145000
     51 HAH        -3.3400   -3.9940    1.8110 ha        1 PD3      0.135000
     52 HAF        -1.1930   -5.2030    1.4450 ha        1 PD3      0.139000
     53 HAI         0.9070   -3.9660    1.0280 ha        1 PD3      0.171000
     54 HNAW        1.0110   -0.2550    1.1380 hn        1 PD3      0.312500
     55 HNAX        3.2200    0.1430    0.4810 hn        1 PD3      0.312500
     56 HAN         5.5190    0.5650    0.4510 ha        1 PD3      0.148000
     57 HAJ         3.7380   -2.6460   -1.9150 ha        1 PD3      0.177000
     58 HAG         5.9380   -3.0480   -2.9720 ha        1 PD3      0.147000
     59 HAK         7.9290   -1.6670   -2.3490 ha        1 PD3      0.154000
     60 HAQ        -2.4480    4.3170    0.0250 hc        1 PD3      0.058200
@<TRIPOS>BOND
     1    1    2 ar  
     2    1    5 ar  
     3    1   11 1   
     4    2    3 ar  
     5    2   15 1   
     6    3    4 ar  
     7    3   14 1   
     8    4   13 ar  
     9    5   13 ar  
    10    6    7 1   
    11    6   10 1   
    12    6   37 1   
    13    6   60 1   
    14    7    8 1   
    15    7   38 1   
    16    7   39 1   
    17    8    9 1   
    18    8   40 1   
    19    8   41 1   
    20    9   10 1   
    21    9   42 1   
    22    9   43 1   
    23   10   11 1   
    24   10   44 1   
    25   11   12 1   
    26   12   15 2   
    27   13   45 1   
    28   14   46 1   
    29   14   47 1   
    30   15   16 1   
    31   16   17 1   
    32   16   48 1   
    33   16   49 1   
    34   17   18 ar  
    35   17   19 ar  
    36   18   22 ar  
    37   18   50 1   
    38   19   20 ar  
    39   19   51 1   
    40   20   21 ar  
    41   20   52 1   
    42   21   22 ar  
    43   21   53 1   
    44   22   23 1   
    45   23   24 1   
    46   23   54 1   
    47   24   25 2   
    48   24   26 1   
    49   26   27 1   
    50   26   55 1   
    51   27   28 ar  
    52   27   29 ar  
    53   28   32 ar  
    54   28   56 1   
    55   29   30 ar  
    56   29   57 1   
    57   30   31 ar  
    58   30   58 1   
    59   31   32 ar  
    60   31   59 1   
    61   32   33 1   
    62   33   34 1   
    63   33   35 1   
    64   33   36 1   
@<TRIPOS>SUBSTRUCTURE
     1 PD3         1 TEMP              0 ****  ****    0 ROOT
