@<TRIPOS>MOLECULE
PD3
   60    64     1     0     0
SMALL
bcc


@<TRIPOS>ATOM
      1 C4         -0.2000   -0.4950   -0.3100 ca        1 PD3      0.473800
      2 C5          1.2480   -0.6340   -0.3040 ca        1 PD3     -0.494500
      3 C6          1.8340   -1.2990    0.8160 ca        1 PD3      0.750200
      4 N1          1.0190   -1.7660    1.8200 nb        1 PD3     -0.795000
      5 N3         -1.0100   -0.9540    0.6940 nb        1 PD3     -0.740000
      6 CAQ        -2.3070    0.1670   -3.2990 c3        1 PD3     -0.092400
      7 CAO        -3.3350    1.1990   -3.7400 c3        1 PD3     -0.079900
      8 CAP        -3.1700    2.4270   -2.8530 c3        1 PD3     -0.079900
      9 CAR        -2.0540    2.1350   -1.8610 c3        1 PD3     -0.092400
     10 CBH        -1.8580    0.6040   -1.8890 c3        1 PD3      0.074000
     11 NBI        -0.5210    0.1560   -1.5190 na        1 PD3      0.003200
     12 NAV         0.5950    0.4540   -2.2150 nc        1 PD3     -0.519100
     13 C2         -0.3190   -1.5540    1.6890 ca        1 PD3      0.693900
     14 NAA         3.2050   -1.4250    0.9170 nh        1 PD3     -0.941500
     15 CBE         1.6780   -0.0040   -1.5390 cd        1 PD3      0.378900
     16 CAS         3.0790    0.1780   -1.9960 c3        1 PD3     -0.053400
     17 CAZ         3.7300   -1.0920   -2.4290 ca        1 PD3     -0.065300
     18 CAM         3.0520   -1.9870   -3.2560 ca        1 PD3     -0.165000
     19 CAH         5.0450   -1.3660   -2.0340 ca        1 PD3     -0.167000
     20 CAF         5.6700   -2.5300   -2.4720 ca        1 PD3     -0.107000
     21 CAI         5.0090   -3.4330   -3.3000 ca        1 PD3     -0.134000
     22 CBB         3.6830   -3.1710   -3.7040 ca        1 PD3      0.064600
     23 NAW         2.9830   -4.0110   -4.5950 n         1 PD3     -0.461100
     24 CAY         3.1460   -5.4130   -4.6160 c         1 PD3      0.772100
     25 OAB         4.0720   -5.9810   -3.9980 o         1 PD3     -0.608100
     26 NAX         2.2070   -6.1450   -5.3800 n         1 PD3     -0.465100
     27 CBC         2.3710   -7.5080   -5.6930 ca        1 PD3      0.063600
     28 CAN         1.8460   -7.9900   -6.9150 ca        1 PD3     -0.137000
     29 CAJ         2.9780   -8.4240   -4.8060 ca        1 PD3     -0.108000
     30 CAG         3.0520   -9.7740   -5.1370 ca        1 PD3     -0.113000
     31 CAK         2.5270  -10.2480   -6.3380 ca        1 PD3     -0.104000
     32 CBD         1.9260   -9.3470   -7.2160 ca        1 PD3     -0.143300
     33 CBJ         1.3630   -9.8460   -8.5430 c3        1 PD3      0.687200
     34 FAD         2.2550   -9.7960   -9.5870 f         1 PD3     -0.236633
     35 FAE         0.9370  -11.1520   -8.5290 f         1 PD3     -0.236633
     36 FAC         0.2750   -9.1430   -9.0020 f         1 PD3     -0.236633
     37 HAQA       -1.4490    0.1490   -4.0170 hc        1 PD3      0.058200
     38 HAO        -4.3700    0.7850   -3.6410 hc        1 PD3      0.045700
     39 HAOA       -3.1840    1.4630   -4.8170 hc        1 PD3      0.045700
     40 HAP        -4.1250    2.6470   -2.3130 hc        1 PD3      0.045700
     41 HAPA       -2.9190    3.3290   -3.4650 hc        1 PD3      0.045700
     42 HAR        -2.3240    2.4720   -0.8300 hc        1 PD3      0.058200
     43 HARA       -1.1200    2.6710   -2.1620 hc        1 PD3      0.058200
     44 HBH        -2.5590    0.1390   -1.1330 h1        1 PD3      0.090700
     45 H2         -0.9340   -1.9420    2.5300 h5        1 PD3      0.053100
     46 HNAA        3.7200   -1.3580    0.0680 hn        1 PD3      0.432800
     47 HNAB        3.5730   -2.0200    1.6220 hn        1 PD3      0.432800
     48 HAS         3.6590    0.6430   -1.1500 hc        1 PD3      0.074700
     49 HASA        3.1180    0.9020   -2.8590 hc        1 PD3      0.074700
     50 HAM         2.0180   -1.7520   -3.5550 ha        1 PD3      0.145000
     51 HAH         5.5880   -0.6570   -1.3920 ha        1 PD3      0.135000
     52 HAF         6.7060   -2.7440   -2.1650 ha        1 PD3      0.139000
     53 HAI         5.5230   -4.3520   -3.6260 ha        1 PD3      0.171000
     54 HNAW        2.1130   -3.6390   -4.9110 hn        1 PD3      0.312500
     55 HNAX        1.6330   -5.6410   -6.0220 hn        1 PD3      0.312500
     56 HAN         1.3620   -7.3100   -7.6340 ha        1 PD3      0.148000
     57 HAJ         3.4060   -8.0750   -3.8500 ha        1 PD3      0.177000
     58 HAG         3.5300  -10.4760   -4.4360 ha        1 PD3      0.147000
     59 HAK         2.5810  -11.3180   -6.5930 ha        1 PD3      0.154000
     60 HAQ        -2.7450   -0.8600   -3.2650 hc        1 PD3      0.058200
@<TRIPOS>BOND
     1    1    2 ar  
     2    1    5 ar  
     3    1   11 1   
     4    2    3 ar  
     5    2   15 1   
     6    3    4 ar  
     7    3   14 1   
     8    4   13 ar  
     9    5   13 ar  
    10    6    7 1   
    11    6   10 1   
    12    6   37 1   
    13    6   60 1   
    14    7    8 1   
    15    7   38 1   
    16    7   39 1   
    17    8    9 1   
    18    8   40 1   
    19    8   41 1   
    20    9   10 1   
    21    9   42 1   
    22    9   43 1   
    23   10   11 1   
    24   10   44 1   
    25   11   12 1   
    26   12   15 2   
    27   13   45 1   
    28   14   46 1   
    29   14   47 1   
    30   15   16 1   
    31   16   17 1   
    32   16   48 1   
    33   16   49 1   
    34   17   18 ar  
    35   17   19 ar  
    36   18   22 ar  
    37   18   50 1   
    38   19   20 ar  
    39   19   51 1   
    40   20   21 ar  
    41   20   52 1   
    42   21   22 ar  
    43   21   53 1   
    44   22   23 1   
    45   23   24 1   
    46   23   54 1   
    47   24   25 2   
    48   24   26 1   
    49   26   27 1   
    50   26   55 1   
    51   27   28 ar  
    52   27   29 ar  
    53   28   32 ar  
    54   28   56 1   
    55   29   30 ar  
    56   29   57 1   
    57   30   31 ar  
    58   30   58 1   
    59   31   32 ar  
    60   31   59 1   
    61   32   33 1   
    62   33   34 1   
    63   33   35 1   
    64   33   36 1   
@<TRIPOS>SUBSTRUCTURE
     1 PD3         1 TEMP              0 ****  ****    0 ROOT
