@<TRIPOS>MOLECULE
PD3
   63    67     1     0     0
SMALL
bcc


@<TRIPOS>ATOM
      1 C4          0.7260    0.3000    0.4960 ca        1 PD3      0.462800
      2 C5          1.9650    0.6190   -0.2430 ca        1 PD3     -0.427500
      3 C6          2.6480    1.7530    0.2450 ca        1 PD3      0.557200
      4 N1          2.2080    2.4790    1.2900 nb        1 PD3     -0.670000
      5 N3          0.2660    1.0250    1.5580 nb        1 PD3     -0.605000
      6 CAQ        -0.8590   -2.9730    0.7640 c3        1 PD3     -0.089400
      7 CAO        -2.2020   -3.6500    0.5280 c3        1 PD3     -0.084900
      8 CAP        -3.0050   -2.7750   -0.4270 c3        1 PD3     -0.084900
      9 CAR        -2.1560   -1.5580   -0.7700 c3        1 PD3     -0.089400
     10 CBH        -1.0560   -1.5140    0.3080 c3        1 PD3      0.051000
     11 NBI         0.1860   -0.8430   -0.1240 na        1 PD3      0.063200
     12 NAV         0.9530   -1.2370   -1.1380 nc        1 PD3     -0.462100
     13 C2          1.0380    2.0740    1.8920 ca        1 PD3      0.706900
     14 NAA         3.9130    2.2040   -0.3800 n4        1 PD3     -0.830300
     15 CBE         2.0300   -0.4100   -1.2610 cd        1 PD3      0.305900
     16 CAS         3.0620   -0.5680   -2.3170 c3        1 PD3     -0.043400
     17 CAZ         3.0750   -1.9220   -2.9560 ca        1 PD3     -0.037300
     18 CAM         2.8910   -2.0570   -4.3350 ca        1 PD3     -0.085000
     19 CAH         3.3170   -3.0620   -2.1730 ca        1 PD3     -0.025000
     20 CAF         3.3900   -4.3260   -2.7600 ca        1 PD3     -0.082000
     21 CAI         3.2290   -4.4820   -4.1350 ca        1 PD3     -0.094000
     22 CBB         2.9770   -3.3380   -4.9170 ca        1 PD3     -0.107400
     23 NAW         2.9000   -3.4780   -6.3820 n4        1 PD3     -0.490200
     24 CAY         1.5210   -3.2280   -6.9070 c         1 PD3      0.484100
     25 OAB         1.1110   -2.0910   -7.0770 o         1 PD3     -0.303100
     26 NAX         0.6400   -4.3990   -7.2300 n4        1 PD3     -0.490200
     27 CBC         1.3550   -5.5360   -7.8130 ca        1 PD3     -0.144400
     28 CAN         1.9020   -6.5090   -6.9530 ca        1 PD3     -0.104000
     29 CAJ         1.4030   -5.7020   -9.2130 ca        1 PD3     -0.056000
     30 CAG         2.0200   -6.8370   -9.7370 ca        1 PD3     -0.084000
     31 CAK         2.5940   -7.7960   -8.8950 ca        1 PD3      0.018000
     32 CBD         2.5390   -7.6150   -7.5070 ca        1 PD3     -0.141300
     33 CBJ         3.1770   -8.6360   -6.5450 c3        1 PD3      0.696200
     34 FAD         2.2830   -9.5370   -6.0410 f         1 PD3     -0.202633
     35 FAE         4.1890   -9.3610   -7.1030 f         1 PD3     -0.202633
     36 FAC         3.7260   -8.0170   -5.4450 f         1 PD3     -0.202633
     37 HAO        -2.0520   -4.6740    0.1040 hc        1 PD3      0.067200
     38 HAOA       -2.7520   -3.7720    1.4970 hc        1 PD3      0.067200
     39 HAP        -3.9650   -2.4560    0.0540 hc        1 PD3      0.067200
     40 HAPA       -3.2730   -3.3370   -1.3560 hc        1 PD3      0.067200
     41 HAR        -1.7270   -1.6620   -1.7980 hc        1 PD3      0.059700
     42 HARA       -2.7620   -0.6180   -0.7470 hc        1 PD3      0.059700
     43 HBH        -1.4350   -0.9080    1.1860 h1        1 PD3      0.118700
     44 H2          0.7050    2.7020    2.7580 h5        1 PD3      0.124100
     45 HNAA        4.7060    1.9200    0.2130 hn        1 PD3      0.479133
     46 HNAB        4.0020    1.7810   -1.3070 hn        1 PD3      0.479133
     47 HAS         2.8980    0.2250   -3.0990 hc        1 PD3      0.069200
     48 HASA        4.0790   -0.4000   -1.8600 hc        1 PD3      0.069200
     49 HAM         2.6850   -1.1630   -4.9500 ha        1 PD3      0.168000
     50 HAH         3.4520   -2.9590   -1.0800 ha        1 PD3      0.190000
     51 HAF         3.5930   -5.2160   -2.1340 ha        1 PD3      0.203000
     52 HAI         3.3360   -5.4910   -4.5750 ha        1 PD3      0.170000
     53 HNAW        3.2420   -4.4180   -6.6560 hn        1 PD3      0.506300
     54 HNAX       -0.0840   -4.0630   -7.9020 hn        1 PD3      0.514300
     55 HAN         1.8120   -6.4410   -5.8540 ha        1 PD3      0.168000
     56 HAJ         0.9510   -4.9680   -9.9050 ha        1 PD3      0.186000
     57 HAG         2.0470   -6.9840  -10.8360 ha        1 PD3      0.217000
     58 HAK         3.0860   -8.6970   -9.3190 ha        1 PD3      0.223000
     59 HAQ        -0.5690   -3.0070    1.8440 hc        1 PD3      0.059700
     60 HAA3        3.9230    3.2330   -0.4650 hn        1 PD3      0.479133
     61 HAW2        3.5190   -2.7590   -6.8090 hn        1 PD3      0.506300
     62 HAX2        0.1580   -4.7010   -6.3620 hn        1 PD3      0.514300
     63 HAQA       -0.0580   -3.4870    0.1780 hc        1 PD3      0.059700
@<TRIPOS>BOND
     1    1    2 ar  
     2    1    5 ar  
     3    1   11 1   
     4    2    3 ar  
     5    2   15 1   
     6    3    4 ar  
     7    3   14 1   
     8    4   13 ar  
     9    5   13 ar  
    10    6    7 1   
    11    6   10 1   
    12    6   59 1   
    13    6   63 1   
    14    7    8 1   
    15    7   37 1   
    16    7   38 1   
    17    8    9 1   
    18    8   39 1   
    19    8   40 1   
    20    9   10 1   
    21    9   41 1   
    22    9   42 1   
    23   10   11 1   
    24   10   43 1   
    25   11   12 1   
    26   12   15 2   
    27   13   44 1   
    28   14   45 1   
    29   14   46 1   
    30   14   60 1   
    31   15   16 1   
    32   16   17 1   
    33   16   47 1   
    34   16   48 1   
    35   17   18 ar  
    36   17   19 ar  
    37   18   22 ar  
    38   18   49 1   
    39   19   20 ar  
    40   19   50 1   
    41   20   21 ar  
    42   20   51 1   
    43   21   22 ar  
    44   21   52 1   
    45   22   23 1   
    46   23   24 1   
    47   23   53 1   
    48   23   61 1   
    49   24   25 2   
    50   24   26 1   
    51   26   27 1   
    52   26   54 1   
    53   26   62 1   
    54   27   28 ar  
    55   27   29 ar  
    56   28   32 ar  
    57   28   55 1   
    58   29   30 ar  
    59   29   56 1   
    60   30   31 ar  
    61   30   57 1   
    62   31   32 ar  
    63   31   58 1   
    64   32   33 1   
    65   33   34 1   
    66   33   35 1   
    67   33   36 1   
@<TRIPOS>SUBSTRUCTURE
     1 PD3         1 TEMP              0 ****  ****    0 ROOT
