@<TRIPOS>MOLECULE
PD3
   60    64     1     0     0
SMALL
bcc


@<TRIPOS>ATOM
      1 C4         -0.2060   -0.4990   -0.3220 ca        1 PD3      0.473800
      2 C5          1.2420   -0.6380   -0.3150 ca        1 PD3     -0.494500
      3 C6          1.8270   -1.3050    0.8050 ca        1 PD3      0.750200
      4 N1          1.0120   -1.7750    1.8070 nb        1 PD3     -0.795000
      5 N3         -1.0170   -0.9630    0.6800 nb        1 PD3     -0.740000
      6 CAQ        -2.3090    0.1840   -3.3130 c3        1 PD3     -0.092400
      7 CAO        -3.3370    1.2210   -3.7440 c3        1 PD3     -0.079900
      8 CAP        -3.1730    2.4390   -2.8430 c3        1 PD3     -0.079900
      9 CAR        -2.0590    2.1350   -1.8520 c3        1 PD3     -0.092400
     10 CBH        -1.8630    0.6050   -1.8970 c3        1 PD3      0.074000
     11 NBI        -0.5260    0.1530   -1.5300 na        1 PD3      0.004200
     12 NAV         0.5900    0.4550   -2.2230 nc        1 PD3     -0.519100
     13 C2         -0.3260   -1.5640    1.6750 ca        1 PD3      0.693900
     14 NAA         3.1980   -1.4290    0.9070 nv        1 PD3     -0.941500
     15 CBE         1.6720   -0.0040   -1.5470 cd        1 PD3      0.378900
     16 CAS         3.0740    0.1800   -2.0020 c3        1 PD3     -0.053400
     17 CAZ         3.7280   -1.0890   -2.4350 ca        1 PD3     -0.065300
     18 CAM         3.0500   -1.9860   -3.2600 ca        1 PD3     -0.165000
     19 CAH         5.0430   -1.3590   -2.0410 ca        1 PD3     -0.167000
     20 CAF         5.6710   -2.5220   -2.4780 ca        1 PD3     -0.107000
     21 CAI         5.0110   -3.4280   -3.3040 ca        1 PD3     -0.134000
     22 CBB         3.6840   -3.1690   -3.7070 ca        1 PD3      0.064600
     23 NAW         2.9850   -4.0120   -4.5960 ns        1 PD3     -0.461100
     24 CAY         3.1510   -5.4140   -4.6140 c         1 PD3      0.772100
     25 OAB         4.0770   -5.9790   -3.9950 o         1 PD3     -0.608100
     26 NAX         2.2120   -6.1490   -5.3750 ns        1 PD3     -0.465100
     27 CBC         2.3770   -7.5140   -5.6830 ca        1 PD3      0.063600
     28 CAN         1.8530   -8.0010   -6.9030 ca        1 PD3     -0.137000
     29 CAJ         2.9860   -8.4260   -4.7930 ca        1 PD3     -0.109000
     30 CAG         3.0610   -9.7760   -5.1200 ca        1 PD3     -0.113000
     31 CAK         2.5370  -10.2560   -6.3190 ca        1 PD3     -0.104000
     32 CBD         1.9340   -9.3590   -7.2000 ca        1 PD3     -0.143300
     33 CBJ         1.3710   -9.8630   -8.5250 c3        1 PD3      0.687200
     34 FAD         2.2640   -9.8160   -9.5690 f         1 PD3     -0.236633
     35 FAE         0.9450  -11.1680   -8.5060 f         1 PD3     -0.236633
     36 FAC         0.2830   -9.1620   -8.9870 f         1 PD3     -0.236633
     37 HAQA       -2.7480   -0.8430   -3.2910 hc        1 PD3      0.058200
     38 HAO        -4.3720    0.8050   -3.6510 hc        1 PD3      0.045700
     39 HAOA       -3.1850    1.4970   -4.8170 hc        1 PD3      0.045700
     40 HAP        -4.1290    2.6520   -2.3020 hc        1 PD3      0.045700
     41 HAPA       -2.9220    3.3470   -3.4450 hc        1 PD3      0.045700
     42 HAR        -1.1250    2.6760   -2.1450 hc        1 PD3      0.058200
     43 HARA       -2.3310    2.4610   -0.8180 hc        1 PD3      0.058200
     44 HBH        -2.5650    0.1320   -1.1470 h1        1 PD3      0.090700
     45 H2         -0.9420   -1.9550    2.5140 h5        1 PD3      0.053100
     46 HNAA        3.5670   -2.0250    1.6110 hn        1 PD3      0.432800
     47 HNAB        3.7140   -1.3580    0.0590 hn        1 PD3      0.432800
     48 HAS         3.1130    0.9050   -2.8650 hc        1 PD3      0.074700
     49 HASA        3.6520    0.6460   -1.1560 hc        1 PD3      0.074700
     50 HAM         2.0150   -1.7540   -3.5590 ha        1 PD3      0.145000
     51 HAH         5.5850   -0.6480   -1.4000 ha        1 PD3      0.135000
     52 HAF         6.7070   -2.7330   -2.1720 ha        1 PD3      0.139000
     53 HAI         5.5270   -4.3460   -3.6300 ha        1 PD3      0.171000
     54 HNAW        2.1140   -3.6420   -4.9130 hn        1 PD3      0.312500
     55 HNAX        1.6380   -5.6480   -6.0180 hn        1 PD3      0.312500
     56 HAN         1.3680   -7.3230   -7.6250 ha        1 PD3      0.148000
     57 HAJ         3.4140   -8.0730   -3.8390 ha        1 PD3      0.177000
     58 HAG         3.5400  -10.4750   -4.4170 ha        1 PD3      0.147000
     59 HAK         2.5910  -11.3260   -6.5690 ha        1 PD3      0.154000
     60 HAQ        -1.4500    0.1740   -4.0290 hc        1 PD3      0.058200
@<TRIPOS>BOND
     1    1    2 ar  
     2    1    5 ar  
     3    1   11 1   
     4    2    3 ar  
     5    2   15 1   
     6    3    4 ar  
     7    3   14 1   
     8    4   13 ar  
     9    5   13 ar  
    10    6    7 1   
    11    6   10 1   
    12    6   37 1   
    13    6   60 1   
    14    7    8 1   
    15    7   38 1   
    16    7   39 1   
    17    8    9 1   
    18    8   40 1   
    19    8   41 1   
    20    9   10 1   
    21    9   42 1   
    22    9   43 1   
    23   10   11 1   
    24   10   44 1   
    25   11   12 1   
    26   12   15 2   
    27   13   45 1   
    28   14   46 1   
    29   14   47 1   
    30   15   16 1   
    31   16   17 1   
    32   16   48 1   
    33   16   49 1   
    34   17   18 ar  
    35   17   19 ar  
    36   18   22 ar  
    37   18   50 1   
    38   19   20 ar  
    39   19   51 1   
    40   20   21 ar  
    41   20   52 1   
    42   21   22 ar  
    43   21   53 1   
    44   22   23 1   
    45   23   24 1   
    46   23   54 1   
    47   24   25 2   
    48   24   26 1   
    49   26   27 1   
    50   26   55 1   
    51   27   28 ar  
    52   27   29 ar  
    53   28   32 ar  
    54   28   56 1   
    55   29   30 ar  
    56   29   57 1   
    57   30   31 ar  
    58   30   58 1   
    59   31   32 ar  
    60   31   59 1   
    61   32   33 1   
    62   33   34 1   
    63   33   35 1   
    64   33   36 1   
@<TRIPOS>SUBSTRUCTURE
     1 PD3         1 TEMP              0 ****  ****    0 ROOT
