@<TRIPOS>MOLECULE
PD4
   66    63     1     0     0
SMALL
bcc


@<TRIPOS>ATOM
      1 C           0.5750   -1.2640   -3.7970 c1        1 PD4      0.072000
      2 C1          1.9990   -1.2820   -3.7540 c1        1 PD4     -0.121000
      3 C2          2.6570   -1.2290   -2.5360 c1        1 PD4     -0.121000
      4 C3          1.9300   -1.1590   -1.3630 c1        1 PD4     -0.069000
      5 C4          0.5100   -1.1410   -1.4080 c1        1 PD4      0.084000
      6 N          -0.1460   -1.1940   -2.6320 n1        1 PD4     -0.169000
      7 N1          2.6180   -1.2170   -0.0880 n2        1 PD4     -0.180000
      8 C5          1.8900   -1.1670    1.1050 c1        1 PD4      0.085000
      9 C6          0.3990   -1.2110    1.0670 c1        1 PD4      0.297000
     10 N2         -0.2620   -1.1670   -0.1690 n3        1 PD4     -0.227000
     11 O          -0.2620   -1.4590    2.1400 o         1 PD4     -0.353000
     12 N3          2.5730   -1.2250    2.3550 n3        1 PD4     -0.288000
     13 C7          3.5410   -0.2370    2.6800 c3        1 PD4     -0.033000
     14 C8          3.5500   -0.0070    4.1890 c3        1 PD4     -0.081000
     15 N4          3.6700    1.4150    4.4640 n3        1 PD4     -0.257000
     16 C9          2.4300    1.9080    4.9870 c3        1 PD4     -0.107000
     17 C10         2.5220    3.3460    5.4310 c3        1 PD4     -0.024500
     18 O1          3.6180    3.5680    6.3200 os        1 PD4     -0.269000
     19 C11         4.8620    3.0720    5.7980 c3        1 PD4     -0.024500
     20 C12         4.7630    1.6330    5.3450 c3        1 PD4     -0.107000
     21 C13        -0.2030   -1.2400   -5.1090 c2        1 PD4     -0.138000
     22 C14        -0.5430   -2.4280   -5.7250 c2        1 PD4     -0.049000
     23 C15        -1.1240   -2.4140   -6.9430 c1        1 PD4     -0.203000
     24 C16        -1.3850   -1.1870   -7.5880 c1        1 PD4      0.139000
     25 N5         -1.0510   -0.0180   -6.9830 n1        1 PD4     -0.206000
     26 C17        -0.4590   -0.0310   -5.7420 c1        1 PD4      0.009000
     27 C18        -1.7000   -1.2010   -0.2230 c3        1 PD4     -0.062000
     28 O2         -1.9600   -1.1760   -8.8680 os        1 PD4     -0.203000
     29 C19        -2.2810   -0.0510    0.6580 c3        1 PD4     -0.033000
     30 O3         -3.4840    0.3080    0.1970 os        1 PD4     -0.275000
     31 C20        -4.3650    0.8010    1.2140 c3        1 PD4     -0.027000
     32 C21        -5.8030    0.4280    0.8670 c3        1 PD4     -0.163000
     33 C22        -6.6390    0.3040    2.1730 c3        1 PD4     -0.211000
     34 C23        -3.2430   -0.5740   -8.9210 c3        1 PD4     -0.065000
     35 H1          2.5020   -1.3310   -4.5650 ha        1 PD4      0.154500
     36 H2          3.6430   -1.2410   -2.5060 ha        1 PD4      0.154500
     37 HN3         2.3770   -1.9300    2.9770 hn        1 PD4      0.238000
     38 H7          3.3070    0.6350    2.2040 h1        1 PD4      0.103500
     39 H7A         4.3960   -0.5310    2.4010 h1        1 PD4      0.103500
     40 H8          2.7220   -0.3420    4.5740 h1        1 PD4      0.086500
     41 H8A         4.2740   -0.4610    4.5690 h1        1 PD4      0.086500
     42 H9          1.7830    1.8350    4.3380 h1        1 PD4      0.080500
     43 H9A         2.1670    1.3380    5.7830 h1        1 PD4      0.080500
     44 H10         1.6580    3.5980    5.9050 h1        1 PD4      0.095000
     45 H10A        2.6290    3.9310    4.6230 h1        1 PD4      0.095000
     46 H11         5.1380    3.6240    5.0500 h1        1 PD4      0.095000
     47 H11A        5.5460    3.1300    6.5080 h1        1 PD4      0.095000
     48 H12         4.6500    1.0270    6.1720 h1        1 PD4      0.080500
     49 H12A        5.5330    1.4040    4.9170 h1        1 PD4      0.080500
     50 H14        -0.3600   -3.2950   -5.2710 ha        1 PD4      0.144000
     51 H15        -1.3740   -3.2970   -7.4000 ha        1 PD4      0.161000
     52 H17        -0.2020    0.8590   -5.2820 ha        1 PD4      0.178000
     53 H18        -2.0360   -2.1100    0.1300 h1        1 PD4      0.123500
     54 H18A       -1.9950   -1.0820   -1.1540 h1        1 PD4      0.123500
     55 H19        -2.3690   -0.3720    1.6200 h1        1 PD4      0.097000
     56 H19A       -1.6850    0.7110    0.6230 h1        1 PD4      0.097000
     57 H20        -4.2830    1.8130    1.2730 h1        1 PD4      0.070500
     58 H20A       -4.1330    0.4190    2.0410 h1        1 PD4      0.070500
     59 H21        -5.8130   -0.4380    0.3870 hc        1 PD4      0.093000
     60 H21A       -6.1790    1.1000    0.3130 hc        1 PD4      0.093000
     61 H22        -6.0970   -0.2490    2.8910 hc        1 PD4      0.074667
     62 H22A       -7.4850   -0.1590    1.9740 hc        1 PD4      0.074667
     63 H22B       -6.8440    1.2610    2.5500 hc        1 PD4      0.074667
     64 H23        -3.8960   -1.0810   -8.2770 h1        1 PD4      0.091000
     65 H23A       -3.1760    0.3500   -8.6490 h1        1 PD4      0.091000
     66 H23B       -3.5940   -0.6200   -9.8590 h1        1 PD4      0.091000
@<TRIPOS>BOND
     1    1    6 1   
     2    1   21 1   
     3    2    3 1   
     4    2   35 1   
     5    3   36 1   
     6    4    5 1   
     7    4    7 1   
     8    5   10 1   
     9    7    8 1   
    10    8   12 1   
    11    9   10 1   
    12    9   11 1   
    13   10   27 1   
    14   12   13 1   
    15   12   37 1   
    16   13   14 1   
    17   13   38 1   
    18   13   39 1   
    19   14   15 1   
    20   14   40 1   
    21   14   41 1   
    22   15   16 1   
    23   15   20 1   
    24   16   17 1   
    25   16   42 1   
    26   16   43 1   
    27   17   18 1   
    28   17   44 1   
    29   17   45 1   
    30   18   19 1   
    31   19   20 1   
    32   19   46 1   
    33   19   47 1   
    34   20   48 1   
    35   20   49 1   
    36   21   22 1   
    37   21   26 1   
    38   22   23 1   
    39   22   50 1   
    40   23   51 1   
    41   24   25 1   
    42   24   28 1   
    43   26   52 1   
    44   27   29 1   
    45   27   53 1   
    46   27   54 1   
    47   28   34 1   
    48   29   30 1   
    49   29   55 1   
    50   29   56 1   
    51   30   31 1   
    52   31   32 1   
    53   31   57 1   
    54   31   58 1   
    55   32   33 1   
    56   32   59 1   
    57   32   60 1   
    58   33   61 1   
    59   33   62 1   
    60   33   63 1   
    61   34   64 1   
    62   34   65 1   
    63   34   66 1   
@<TRIPOS>SUBSTRUCTURE
     1 PD4         1 TEMP              0 ****  ****    0 ROOT
