@<TRIPOS>MOLECULE
PD4
   66    69     1     0     0
SMALL
bcc


@<TRIPOS>ATOM
      1 C          -2.9250   -1.0780    0.0990 cp        1 PD4      0.501800
      2 C1         -2.1750   -2.1580    0.6310 ca        1 PD4     -0.263300
      3 C2         -0.7960   -2.1460    0.5210 ca        1 PD4     -0.046000
      4 C3         -0.1510   -1.0610   -0.1180 ca        1 PD4      0.008100
      5 C4         -0.9890    0.0030   -0.6250 ca        1 PD4      0.495200
      6 N          -2.3520   -0.0210   -0.5110 nb        1 PD4     -0.700000
      7 N1          1.2350   -1.0600   -0.2300 nc        1 PD4     -0.610100
      8 C5          1.8060   -0.0570   -0.8760 cd        1 PD4      0.598200
      9 C6          1.0150    1.1220   -1.4400 c         1 PD4      0.578200
     10 N2         -0.3710    1.0960   -1.2740 n         1 PD4     -0.411300
     11 O           1.5780    2.0620   -2.0300 o         1 PD4     -0.612500
     12 N3          3.1690   -0.0220   -1.1480 nh        1 PD4     -0.800200
     13 C7          4.0790   -0.8910   -0.4410 c3        1 PD4      0.204800
     14 C8          5.5490   -0.5880   -0.8140 c3        1 PD4      0.157800
     15 N4          6.4680   -1.5680   -0.2560 n3        1 PD4     -0.723600
     16 C9          7.7690   -1.5180   -0.9150 c3        1 PD4      0.130800
     17 C10         8.7790   -2.4900   -0.2950 c3        1 PD4      0.126400
     18 O1          8.8860   -2.3090    1.1120 os        1 PD4     -0.414600
     19 C11         7.6300   -2.4430    1.7650 c3        1 PD4      0.126400
     20 C12         6.5870   -1.4750    1.1940 c3        1 PD4      0.130800
     21 C13        -4.3890   -1.1060    0.2200 cp        1 PD4     -0.303800
     22 C14        -5.1340    0.0590    0.4730 ca        1 PD4     -0.031000
     23 C15        -6.5150   -0.0250    0.5920 ca        1 PD4     -0.269300
     24 C16        -7.1190   -1.3020    0.4430 ca        1 PD4      0.634600
     25 N5         -6.4230   -2.4420    0.1870 nb        1 PD4     -0.731000
     26 C17        -5.0890   -2.3230    0.0800 ca        1 PD4      0.450200
     27 C18        -1.1590    2.2320   -1.7180 c3        1 PD4      0.089000
     28 O2         -8.4910   -1.3060    0.5780 os        1 PD4     -0.445100
     29 C19        -1.7070    3.1290   -0.6020 c3        1 PD4      0.114400
     30 O3         -0.6030    3.8410   -0.0530 os        1 PD4     -0.421600
     31 C20        -0.9970    4.7210    0.9990 c3        1 PD4      0.130400
     32 C21         0.2630    5.4200    1.4760 c3        1 PD4     -0.084400
     33 C22        -0.0530    6.3850    2.5880 c3        1 PD4     -0.093100
     34 C23        -9.1670   -2.5550    0.4310 c3        1 PD4      0.124700
     35 H1         -2.6900   -2.9870    1.1360 ha        1 PD4      0.150000
     36 H2         -0.1940   -2.9740    0.9270 ha        1 PD4      0.159000
     37 HN3         3.5160    0.8730   -1.4250 hn        1 PD4      0.442800
     38 H7          3.9430   -0.7810    0.6740 h1        1 PD4      0.061200
     39 H7A         3.8300   -1.9570   -0.7130 h1        1 PD4      0.061200
     40 H8          5.6520   -0.6220   -1.9360 h1        1 PD4      0.040200
     41 H8A         5.8020    0.4620   -0.4790 h1        1 PD4      0.040200
     42 H9          7.6200   -1.8010   -1.9940 h1        1 PD4      0.042450
     43 H9A         8.2100   -0.4780   -0.8840 h1        1 PD4      0.042450
     44 H10         8.4940   -3.5520   -0.5160 h1        1 PD4      0.055200
     45 H10A        9.8080   -2.2760   -0.6840 h1        1 PD4      0.055200
     46 H11         7.2740   -3.5040    1.6790 h1        1 PD4      0.055200
     47 H11A        7.8420   -2.1920    2.8370 h1        1 PD4      0.055200
     48 H12         6.8540   -0.4280    1.5230 h1        1 PD4      0.042450
     49 H12A        5.5860   -1.7350    1.6380 h1        1 PD4      0.042450
     50 H14        -4.6280    1.0310    0.5770 ha        1 PD4      0.153000
     51 H15        -7.1400    0.8530    0.7930 ha        1 PD4      0.161000
     52 H17        -4.5520   -3.2650   -0.1410 h4        1 PD4      0.028100
     53 H18        -0.5070    2.8660   -2.3890 h1        1 PD4      0.087200
     54 H18A       -2.0360    1.8530   -2.3160 h1        1 PD4      0.087200
     55 H19        -2.4350    3.8540   -1.0580 h1        1 PD4      0.039700
     56 H19A       -2.2250    2.5480    0.2040 h1        1 PD4      0.039700
     57 H20        -1.7450    5.4620    0.6090 h1        1 PD4      0.024700
     58 H20A       -1.4690    4.1290    1.8280 h1        1 PD4      0.024700
     59 H21         1.0000    4.6500    1.8260 hc        1 PD4      0.055200
     60 H21A        0.7340    5.9590    0.6140 hc        1 PD4      0.055200
     61 H22        -0.7710    7.1670    2.2420 hc        1 PD4      0.035033
     62 H22A       -0.5070    5.8520    3.4590 hc        1 PD4      0.035033
     63 H22B        0.8800    6.8920    2.9330 hc        1 PD4      0.035033
     64 H23       -10.2410   -2.2760    0.5810 h1        1 PD4      0.051367
     65 H23A       -9.0030   -2.9740   -0.5910 h1        1 PD4      0.051367
     66 H23B       -8.8310   -3.2790    1.2110 h1        1 PD4      0.051367
@<TRIPOS>BOND
     1    1    2 ar  
     2    1    6 ar  
     3    1   21 1   
     4    2    3 ar  
     5    2   35 1   
     6    3    4 ar  
     7    3   36 1   
     8    4    5 ar  
     9    4    7 1   
    10    5    6 ar  
    11    5   10 1   
    12    7    8 2   
    13    8    9 1   
    14    8   12 1   
    15    9   10 1   
    16    9   11 2   
    17   10   27 1   
    18   12   13 1   
    19   12   37 1   
    20   13   14 1   
    21   13   38 1   
    22   13   39 1   
    23   14   15 1   
    24   14   40 1   
    25   14   41 1   
    26   15   16 1   
    27   15   20 1   
    28   16   17 1   
    29   16   42 1   
    30   16   43 1   
    31   17   18 1   
    32   17   44 1   
    33   17   45 1   
    34   18   19 1   
    35   19   20 1   
    36   19   46 1   
    37   19   47 1   
    38   20   48 1   
    39   20   49 1   
    40   21   22 ar  
    41   21   26 ar  
    42   22   23 ar  
    43   22   50 1   
    44   23   24 ar  
    45   23   51 1   
    46   24   25 ar  
    47   24   28 1   
    48   25   26 ar  
    49   26   52 1   
    50   27   29 1   
    51   27   53 1   
    52   27   54 1   
    53   28   34 1   
    54   29   30 1   
    55   29   55 1   
    56   29   56 1   
    57   30   31 1   
    58   31   32 1   
    59   31   57 1   
    60   31   58 1   
    61   32   33 1   
    62   32   59 1   
    63   32   60 1   
    64   33   61 1   
    65   33   62 1   
    66   33   63 1   
    67   34   64 1   
    68   34   65 1   
    69   34   66 1   
@<TRIPOS>SUBSTRUCTURE
     1 PD4         1 TEMP              0 ****  ****    0 ROOT
