@<TRIPOS>MOLECULE
PD4
   67    70     1     0     0
SMALL
bcc


@<TRIPOS>ATOM
      1 C          -0.3230    0.5940   -0.0350 cp        1 PD4      0.617800
      2 C1          1.0350    1.0360   -0.1720 ca        1 PD4     -0.277300
      3 C2          1.7900    1.2760    0.9470 ca        1 PD4      0.010000
      4 C3          1.2140    1.0850    2.2420 ca        1 PD4     -0.096900
      5 C4         -0.1730    0.6490    2.3000 ca        1 PD4      0.583200
      6 N          -0.9040    0.4090    1.1660 nb        1 PD4     -0.726000
      7 N1          1.9690    1.3030    3.3670 nc        1 PD4     -0.419100
      8 C5          1.3770    1.1450    4.5350 cd        1 PD4      0.316200
      9 C6         -0.0570    0.7410    4.7230 c         1 PD4      0.610200
     10 N2         -0.7800    0.4830    3.5530 n         1 PD4     -0.370300
     11 O          -0.5580    0.6830    5.8610 o         1 PD4     -0.606500
     12 N3          2.1330    1.3510    5.7840 n4        1 PD4     -0.689000
     13 C7          3.1890    0.3120    5.9840 c3        1 PD4      0.095800
     14 C8          3.8780    0.4740    7.3630 c3        1 PD4      0.163800
     15 N4          4.9150   -0.5270    7.5010 n3        1 PD4     -0.742600
     16 C9          6.1440   -0.0090    8.0920 c3        1 PD4      0.134800
     17 C10         7.2130   -1.0990    8.2560 c3        1 PD4      0.125900
     18 O1          6.7010   -2.2260    8.9550 os        1 PD4     -0.397600
     19 C11         5.5690   -2.7870    8.3060 c3        1 PD4      0.125900
     20 C12         4.4490   -1.7500    8.1450 c3        1 PD4      0.134800
     21 C13        -1.1050    0.3410   -1.2420 cp        1 PD4     -0.371800
     22 C14        -2.5030    0.5300   -1.2770 ca        1 PD4     -0.008000
     23 C15        -3.1970    0.2870   -2.4500 ca        1 PD4     -0.272300
     24 C16        -2.4610   -0.1620   -3.5850 ca        1 PD4      0.674600
     25 N5         -1.1120   -0.3680   -3.5700 nb        1 PD4     -0.730000
     26 C17        -0.4720   -0.1170   -2.4210 ca        1 PD4      0.483200
     27 C18        -2.1230   -0.0760    3.6780 c3        1 PD4      0.078000
     28 O2         -3.2120   -0.3800   -4.7070 os        1 PD4     -0.428100
     29 C19        -2.2260   -1.5780    3.3910 c3        1 PD4      0.112400
     30 O3         -1.4180   -2.2530    4.3480 os        1 PD4     -0.441600
     31 C20        -1.6210   -3.6690    4.3230 c3        1 PD4      0.129400
     32 C21        -0.7100   -4.2580    5.3850 c3        1 PD4     -0.081400
     33 C22        -0.8720   -5.7540    5.4500 c3        1 PD4     -0.097100
     34 C23        -2.5450   -0.8280   -5.8920 c3        1 PD4      0.120700
     35 H1          1.4530    1.1990   -1.1770 ha        1 PD4      0.175000
     36 H2          2.8360    1.6210    0.8660 ha        1 PD4      0.174000
     37 HN3         1.4490    1.3050    6.5610 hn        1 PD4      0.469300
     38 H7          3.9450    0.4100    5.1540 hx        1 PD4      0.118200
     39 H7A         2.6970   -0.7000    5.9080 hx        1 PD4      0.118200
     40 H8          3.0940    0.3920    8.1720 h1        1 PD4      0.052200
     41 H8A         4.3280    1.5060    7.4230 h1        1 PD4      0.052200
     42 H9          6.5510    0.7870    7.4090 h1        1 PD4      0.046700
     43 H9A         5.9500    0.4550    9.1020 h1        1 PD4      0.046700
     44 H10         8.0470   -0.7210    8.9040 h1        1 PD4      0.067200
     45 H10A        7.6100   -1.4180    7.2570 h1        1 PD4      0.067200
     46 H11         5.8690   -3.2050    7.3090 h1        1 PD4      0.067200
     47 H11A        5.2320   -3.6120    8.9880 h1        1 PD4      0.067200
     48 H12         4.0110   -1.5380    9.1640 h1        1 PD4      0.046700
     49 H12A        3.6390   -2.1930    7.5010 h1        1 PD4      0.046700
     50 H14        -3.0430    0.8790   -0.3830 ha        1 PD4      0.157000
     51 H15        -4.2840    0.4290   -2.5310 ha        1 PD4      0.176000
     52 H17         0.6170   -0.3150   -2.4480 h4        1 PD4      0.030100
     53 H18        -2.8050    0.4680    2.9640 h1        1 PD4      0.100200
     54 H18A       -2.4730    0.1130    4.7350 h1        1 PD4      0.100200
     55 H19        -1.8790   -1.8390    2.3570 h1        1 PD4      0.055200
     56 H19A       -3.3040   -1.8760    3.5070 h1        1 PD4      0.055200
     57 H20        -1.3650   -4.0640    3.3050 h1        1 PD4      0.036700
     58 H20A       -2.6980   -3.8960    4.5470 h1        1 PD4      0.036700
     59 H21        -0.9540   -3.7970    6.3780 hc        1 PD4      0.048200
     60 H21A        0.3530   -3.9930    5.1470 hc        1 PD4      0.048200
     61 H22        -0.6170   -6.2240    4.4700 hc        1 PD4      0.042700
     62 H22A       -1.9240   -6.0270    5.7080 hc        1 PD4      0.042700
     63 H22B       -0.1970   -6.1790    6.2310 hc        1 PD4      0.042700
     64 H23        -3.3860   -0.9160   -6.6270 h1        1 PD4      0.062367
     65 H23A       -1.7960   -0.0720   -6.2280 h1        1 PD4      0.062367
     66 H23B       -2.0600   -1.8170   -5.7160 h1        1 PD4      0.062367
     67 H32         2.5630    2.2830    5.7770 hn        1 PD4      0.469300
@<TRIPOS>BOND
     1    1    2 ar  
     2    1    6 ar  
     3    1   21 1   
     4    2    3 ar  
     5    2   35 1   
     6    3    4 ar  
     7    3   36 1   
     8    4    5 ar  
     9    4    7 1   
    10    5    6 ar  
    11    5   10 1   
    12    7    8 2   
    13    8    9 1   
    14    8   12 1   
    15    9   10 1   
    16    9   11 2   
    17   10   27 1   
    18   12   13 1   
    19   12   37 1   
    20   12   67 1   
    21   13   14 1   
    22   13   38 1   
    23   13   39 1   
    24   14   15 1   
    25   14   40 1   
    26   14   41 1   
    27   15   16 1   
    28   15   20 1   
    29   16   17 1   
    30   16   42 1   
    31   16   43 1   
    32   17   18 1   
    33   17   44 1   
    34   17   45 1   
    35   18   19 1   
    36   19   20 1   
    37   19   46 1   
    38   19   47 1   
    39   20   48 1   
    40   20   49 1   
    41   21   22 ar  
    42   21   26 ar  
    43   22   23 ar  
    44   22   50 1   
    45   23   24 ar  
    46   23   51 1   
    47   24   25 ar  
    48   24   28 1   
    49   25   26 ar  
    50   26   52 1   
    51   27   29 1   
    52   27   53 1   
    53   27   54 1   
    54   28   34 1   
    55   29   30 1   
    56   29   55 1   
    57   29   56 1   
    58   30   31 1   
    59   31   32 1   
    60   31   57 1   
    61   31   58 1   
    62   32   33 1   
    63   32   59 1   
    64   32   60 1   
    65   33   61 1   
    66   33   62 1   
    67   33   63 1   
    68   34   64 1   
    69   34   65 1   
    70   34   66 1   
@<TRIPOS>SUBSTRUCTURE
     1 PD4         1 TEMP              0 ****  ****    0 ROOT
