@<TRIPOS>MOLECULE
PD4
   67    70     1     0     0
SMALL
bcc


@<TRIPOS>ATOM
      1 C          -0.2750    0.5930   -0.0540 cp        1 PD4      0.617800
      2 C1          1.0850    1.0360   -0.1720 ca        1 PD4     -0.277300
      3 C2          1.8230    1.2780    0.9570 ca        1 PD4      0.010000
      4 C3          1.2290    1.0860    2.2440 ca        1 PD4     -0.096900
      5 C4         -0.1580    0.6480    2.2830 ca        1 PD4      0.583200
      6 N          -0.8730    0.4070    1.1390 nb        1 PD4     -0.726000
      7 N1          1.9680    1.3050    3.3800 nc        1 PD4     -0.419100
      8 C5          1.3590    1.1470    4.5390 cd        1 PD4      0.316200
      9 C6         -0.0760    0.7420    4.7080 c         1 PD4      0.610200
     10 N2         -0.7820    0.4820    3.5270 n         1 PD4     -0.370300
     11 O          -0.5940    0.6840    5.8380 o         1 PD4     -0.605500
     12 N3          2.0970    1.3540    5.7990 ny        1 PD4     -0.689000
     13 C7          3.1500    0.3150    6.0150 c3        1 PD4      0.095800
     14 C8          3.8200    0.4780    7.4040 c3        1 PD4      0.163800
     15 N4          4.8540   -0.5230    7.5570 n3        1 PD4     -0.742600
     16 C9          6.0740   -0.0050    8.1670 c3        1 PD4      0.134800
     17 C10         7.1400   -1.0950    8.3470 c3        1 PD4      0.125900
     18 O1          6.6180   -2.2220    9.0380 os        1 PD4     -0.397600
     19 C11         5.4960   -2.7830    8.3710 c3        1 PD4      0.125900
     20 C12         4.3790   -1.7460    8.1930 c3        1 PD4      0.134800
     21 C13        -1.0390    0.3370   -1.2720 cp        1 PD4     -0.371800
     22 C14        -2.4370    0.5240   -1.3270 ca        1 PD4     -0.008000
     23 C15        -3.1140    0.2800   -2.5090 ca        1 PD4     -0.272300
     24 C16        -2.3610   -0.1680   -3.6340 ca        1 PD4      0.674600
     25 N5         -1.0120   -0.3720   -3.6000 nb        1 PD4     -0.730000
     26 C17        -0.3880   -0.1200   -2.4420 ca        1 PD4      0.483200
     27 C18        -2.1260   -0.0790    3.6330 c3        1 PD4      0.078000
     28 O2         -3.0960   -0.3880   -4.7660 os        1 PD4     -0.428100
     29 C19        -2.2230   -1.5810    3.3470 c3        1 PD4      0.112400
     30 O3         -1.4280   -2.2540    4.3170 os        1 PD4     -0.441600
     31 C20        -1.6300   -3.6700    4.2910 c3        1 PD4      0.129400
     32 C21        -0.7330   -4.2560    5.3670 c3        1 PD4     -0.081400
     33 C22        -0.8960   -5.7520    5.4330 c3        1 PD4     -0.097100
     34 C23        -2.4110   -0.8350   -5.9410 c3        1 PD4      0.120700
     35 H1          1.5160    1.1990   -1.1710 ha        1 PD4      0.175000
     36 H2          2.8700    1.6240    0.8910 ha        1 PD4      0.174000
     37 HN3         1.4020    1.3090    6.5660 hn        1 PD4      0.469300
     38 H7          3.9190    0.4140    5.1960 hx        1 PD4      0.118200
     39 H7A         2.6600   -0.6970    5.9320 hx        1 PD4      0.118200
     40 H8          4.2690    1.5100    7.4700 h1        1 PD4      0.052200
     41 H8A         3.0230    0.3960    8.2010 h1        1 PD4      0.052200
     42 H9          6.4910    0.7920    7.4900 h1        1 PD4      0.046700
     43 H9A         5.8640    0.4590    9.1740 h1        1 PD4      0.046700
     44 H10         7.5530   -1.4140    7.3540 h1        1 PD4      0.067200
     45 H10A        7.9650   -0.7170    9.0080 h1        1 PD4      0.067200
     46 H11         5.1490   -3.6080    9.0470 h1        1 PD4      0.067200
     47 H11A        5.8120   -3.2010    7.3790 h1        1 PD4      0.067200
     48 H12         3.5780   -2.1890    7.5370 h1        1 PD4      0.046700
     49 H12A        3.9260   -1.5340    9.2060 h1        1 PD4      0.046700
     50 H14        -2.9900    0.8730   -0.4400 ha        1 PD4      0.157000
     51 H15        -4.1990    0.4200   -2.6060 ha        1 PD4      0.176000
     52 H17         0.7010   -0.3160   -2.4530 h4        1 PD4      0.030100
     53 H18        -2.4910    0.1110    4.6860 h1        1 PD4      0.100200
     54 H18A       -2.7990    0.4630    2.9090 h1        1 PD4      0.100200
     55 H19        -1.8600   -1.8430    2.3180 h1        1 PD4      0.055200
     56 H19A       -3.3020   -1.8810    3.4470 h1        1 PD4      0.055200
     57 H20        -1.3590   -4.0670    3.2770 h1        1 PD4      0.036700
     58 H20A       -2.7090   -3.8980    4.5000 h1        1 PD4      0.036700
     59 H21        -0.9910   -3.7930    6.3550 hc        1 PD4      0.048200
     60 H21A        0.3330   -3.9920    5.1430 hc        1 PD4      0.048200
     61 H22        -0.2310   -6.1750    6.2240 hc        1 PD4      0.042700
     62 H22A       -0.6270   -6.2240    4.4570 hc        1 PD4      0.042700
     63 H22B       -1.9510   -6.0250    5.6770 hc        1 PD4      0.042700
     64 H23        -1.6590   -0.0780   -6.2660 h1        1 PD4      0.062367
     65 H23A       -3.2420   -0.9250   -6.6880 h1        1 PD4      0.062367
     66 H23B       -1.9270   -1.8240   -5.7580 h1        1 PD4      0.062367
     67 H32         2.5280    2.2870    5.7970 hn        1 PD4      0.469300
@<TRIPOS>BOND
     1    1    2 ar  
     2    1    6 ar  
     3    1   21 1   
     4    2    3 ar  
     5    2   35 1   
     6    3    4 ar  
     7    3   36 1   
     8    4    5 ar  
     9    4    7 1   
    10    5    6 ar  
    11    5   10 1   
    12    7    8 2   
    13    8    9 1   
    14    8   12 1   
    15    9   10 1   
    16    9   11 2   
    17   10   27 1   
    18   12   13 1   
    19   12   37 1   
    20   12   67 1   
    21   13   14 1   
    22   13   38 1   
    23   13   39 1   
    24   14   15 1   
    25   14   40 1   
    26   14   41 1   
    27   15   16 1   
    28   15   20 1   
    29   16   17 1   
    30   16   42 1   
    31   16   43 1   
    32   17   18 1   
    33   17   44 1   
    34   17   45 1   
    35   18   19 1   
    36   19   20 1   
    37   19   46 1   
    38   19   47 1   
    39   20   48 1   
    40   20   49 1   
    41   21   22 ar  
    42   21   26 ar  
    43   22   23 ar  
    44   22   50 1   
    45   23   24 ar  
    46   23   51 1   
    47   24   25 ar  
    48   24   28 1   
    49   25   26 ar  
    50   26   52 1   
    51   27   29 1   
    52   27   53 1   
    53   27   54 1   
    54   28   34 1   
    55   29   30 1   
    56   29   55 1   
    57   29   56 1   
    58   30   31 1   
    59   31   32 1   
    60   31   57 1   
    61   31   58 1   
    62   32   33 1   
    63   32   59 1   
    64   32   60 1   
    65   33   61 1   
    66   33   62 1   
    67   33   63 1   
    68   34   64 1   
    69   34   65 1   
    70   34   66 1   
@<TRIPOS>SUBSTRUCTURE
     1 PD4         1 TEMP              0 ****  ****    0 ROOT
