@<TRIPOS>MOLECULE
PD4
   67    70     1     0     0
SMALL
bcc


@<TRIPOS>ATOM
      1 C          -0.2940    0.5960   -0.0430 cp        1 PD4      0.617800
      2 C1          1.0660    1.0390   -0.1660 ca        1 PD4     -0.277300
      3 C2          1.8100    1.2780    0.9600 ca        1 PD4      0.010000
      4 C3          1.2210    1.0840    2.2490 ca        1 PD4     -0.096900
      5 C4         -0.1660    0.6470    2.2930 ca        1 PD4      0.583200
      6 N          -0.8860    0.4080    1.1520 nb        1 PD4     -0.726000
      7 N1          1.9640    1.3020    3.3820 nc        1 PD4     -0.419100
      8 C5          1.3610    1.1410    4.5440 cd        1 PD4      0.316200
      9 C6         -0.0730    0.7360    4.7180 c         1 PD4      0.610200
     10 N2         -0.7850    0.4790    3.5400 n         1 PD4     -0.370300
     11 O          -0.5860    0.6750    5.8500 o         1 PD4     -0.606500
     12 N3          2.1050    1.3470    5.8010 n4        1 PD4     -0.689000
     13 C7          3.1640    0.3120    6.0070 c3        1 PD4      0.095800
     14 C8          3.8400    0.4720    7.3930 c3        1 PD4      0.163800
     15 N4          4.8810   -0.5230    7.5370 n3        1 PD4     -0.742600
     16 C9          6.1010   -0.0000    8.1430 c3        1 PD4      0.134300
     17 C10         7.1740   -1.0840    8.3130 c3        1 PD4      0.125900
     18 O1          6.6620   -2.2180    9.0010 os        1 PD4     -0.397600
     19 C11         5.5400   -2.7830    8.3360 c3        1 PD4      0.125900
     20 C12         4.4150   -1.7520    8.1690 c3        1 PD4      0.134300
     21 C13        -1.0640    0.3430   -1.2580 cp        1 PD4     -0.371800
     22 C14        -2.4610    0.5310   -1.3070 ca        1 PD4     -0.008000
     23 C15        -3.1440    0.2880   -2.4860 ca        1 PD4     -0.272300
     24 C16        -2.3960   -0.1590   -3.6150 ca        1 PD4      0.674600
     25 N5         -1.0480   -0.3630   -3.5870 nb        1 PD4     -0.730000
     26 C17        -0.4180   -0.1120   -2.4320 ca        1 PD4      0.483200
     27 C18        -2.1280   -0.0820    3.6510 c3        1 PD4      0.078000
     28 O2         -3.1370   -0.3760   -4.7440 os        1 PD4     -0.428100
     29 C19        -2.2280   -1.5840    3.3610 c3        1 PD4      0.112400
     30 O3         -1.4290   -2.2590    4.3260 os        1 PD4     -0.441600
     31 C20        -1.6320   -3.6750    4.2970 c3        1 PD4      0.129400
     32 C21        -0.7310   -4.2650    5.3670 c3        1 PD4     -0.081400
     33 C22        -0.8930   -5.7610    5.4290 c3        1 PD4     -0.097100
     34 C23        -2.4570   -0.8220   -5.9230 c3        1 PD4      0.120700
     35 H1          1.4920    1.2040   -1.1680 ha        1 PD4      0.175000
     36 H2          2.8560    1.6240    0.8890 ha        1 PD4      0.174000
     37 HN3         1.4140    1.2960    6.5710 hn        1 PD4      0.469300
     38 H7          3.9270    0.4160    5.1840 hx        1 PD4      0.118700
     39 H7A         2.6780   -0.7020    5.9230 hx        1 PD4      0.118700
     40 H8          3.0480    0.3830    8.1940 h1        1 PD4      0.052200
     41 H8A         4.2830    1.5070    7.4610 h1        1 PD4      0.052200
     42 H9          6.5090    0.8020    7.4690 h1        1 PD4      0.046700
     43 H9A         5.8920    0.4580    9.1540 h1        1 PD4      0.046700
     44 H10         7.5840   -1.3960    7.3170 h1        1 PD4      0.067200
     45 H10A        7.9990   -0.7050    8.9720 h1        1 PD4      0.067200
     46 H11         5.8530   -3.1930    7.3410 h1        1 PD4      0.067200
     47 H11A        5.2010   -3.6130    9.0110 h1        1 PD4      0.067200
     48 H12         3.9660   -1.5470    9.1850 h1        1 PD4      0.046700
     49 H12A        3.6150   -2.1960    7.5150 h1        1 PD4      0.046700
     50 H14        -3.0100    0.8780   -0.4170 ha        1 PD4      0.157000
     51 H15        -4.2290    0.4280   -2.5780 ha        1 PD4      0.176000
     52 H17         0.6710   -0.3090   -2.4490 h4        1 PD4      0.030100
     53 H18        -2.8040    0.4630    2.9320 h1        1 PD4      0.100200
     54 H18A       -2.4890    0.1050    4.7050 h1        1 PD4      0.100200
     55 H19        -3.3060   -1.8830    3.4650 h1        1 PD4      0.055200
     56 H19A       -1.8700   -1.8430    2.3300 h1        1 PD4      0.055200
     57 H20        -1.3650   -4.0690    3.2800 h1        1 PD4      0.036700
     58 H20A       -2.7100   -3.9030    4.5090 h1        1 PD4      0.036700
     59 H21         0.3350   -4.0000    5.1400 hc        1 PD4      0.048200
     60 H21A       -0.9850   -3.8050    6.3570 hc        1 PD4      0.048200
     61 H22        -0.2250   -6.1870    6.2160 hc        1 PD4      0.042700
     62 H22A       -0.6290   -6.2300    4.4500 hc        1 PD4      0.042700
     63 H22B       -1.9480   -6.0350    5.6760 hc        1 PD4      0.042700
     64 H23        -1.7060   -0.0650   -6.2510 h1        1 PD4      0.062367
     65 H23A       -3.2910   -0.9110   -6.6660 h1        1 PD4      0.062367
     66 H23B       -1.9730   -1.8110   -5.7430 h1        1 PD4      0.062367
     67 H32         2.5320    2.2810    5.8000 hn        1 PD4      0.469300
@<TRIPOS>BOND
     1    1    2 ar  
     2    1    6 ar  
     3    1   21 1   
     4    2    3 ar  
     5    2   35 1   
     6    3    4 ar  
     7    3   36 1   
     8    4    5 ar  
     9    4    7 1   
    10    5    6 ar  
    11    5   10 1   
    12    7    8 2   
    13    8    9 1   
    14    8   12 1   
    15    9   10 1   
    16    9   11 2   
    17   10   27 1   
    18   12   13 1   
    19   12   37 1   
    20   12   67 1   
    21   13   14 1   
    22   13   38 1   
    23   13   39 1   
    24   14   15 1   
    25   14   40 1   
    26   14   41 1   
    27   15   16 1   
    28   15   20 1   
    29   16   17 1   
    30   16   42 1   
    31   16   43 1   
    32   17   18 1   
    33   17   44 1   
    34   17   45 1   
    35   18   19 1   
    36   19   20 1   
    37   19   46 1   
    38   19   47 1   
    39   20   48 1   
    40   20   49 1   
    41   21   22 ar  
    42   21   26 ar  
    43   22   23 ar  
    44   22   50 1   
    45   23   24 ar  
    46   23   51 1   
    47   24   25 ar  
    48   24   28 1   
    49   25   26 ar  
    50   26   52 1   
    51   27   29 1   
    52   27   53 1   
    53   27   54 1   
    54   28   34 1   
    55   29   30 1   
    56   29   55 1   
    57   29   56 1   
    58   30   31 1   
    59   31   32 1   
    60   31   57 1   
    61   31   58 1   
    62   32   33 1   
    63   32   59 1   
    64   32   60 1   
    65   33   61 1   
    66   33   62 1   
    67   33   63 1   
    68   34   64 1   
    69   34   65 1   
    70   34   66 1   
@<TRIPOS>SUBSTRUCTURE
     1 PD4         1 TEMP              0 ****  ****    0 ROOT
