@<TRIPOS>MOLECULE
PD5
   53    55     1     0     0
SMALL
bcc


@<TRIPOS>ATOM
      1 C4         -0.0640   -0.3200   -0.3070 c2        1 PD5      0.158000
      2 C5          1.3390   -0.1600   -0.0340 c2        1 PD5     -0.331000
      3 C6          1.7310    0.0220    1.3400 c2        1 PD5      0.276000
      4 N1          0.7540    0.0080    2.3160 n2        1 PD5     -0.303000
      5 N3         -0.9860   -0.3240    0.6910 nh        1 PD5     -0.182000
      6 CAA        -4.4440    1.2570   -2.3670 c3        1 PD5     -0.277000
      7 CAB        -1.6460   -0.7710   -3.7310 c3        1 PD5     -0.270000
      8 NBF        -0.1980   -0.4500   -1.7380 na        1 PD5     -0.090000
      9 NAS         1.0570   -0.3740   -2.3170 n2        1 PD5     -0.099000
     10 C2         -0.5310   -0.1580    2.0110 c1        1 PD5      0.003000
     11 NAC         3.0420    0.2020    1.6630 n3        1 PD5     -0.349000
     12 CBB         1.9770   -0.2110   -1.3530 c2        1 PD5      0.050000
     13 CAZ         3.4100   -0.0980   -1.6030 ca        1 PD5     -0.063000
     14 CAO         4.3030   -1.0140   -1.0360 ca        1 PD5     -0.084500
     15 CAM         5.6700   -0.9150   -1.2730 ca        1 PD5     -0.161000
     16 CAN         3.9000    0.9160   -2.4340 ca        1 PD5     -0.084500
     17 CAL         5.2640    1.0330   -2.6720 ca        1 PD5     -0.161000
     18 CAX         6.1740    0.1170   -2.0940 ca        1 PD5      0.082000
     19 NAT         7.5410    0.2290   -2.4110 n         1 PD5     -0.312000
     20 CAV         8.5700   -0.1420   -1.5270 c2        1 PD5      0.388000
     21 OAD         8.3550   -0.7660   -0.4620 o         1 PD5     -0.379000
     22 NAU         9.8910    0.2320   -1.8670 n         1 PD5     -0.355000
     23 CAY        10.9850   -0.3670   -1.1280 c3        1 PD5      0.024000
     24 CAP        11.4550   -1.6840   -1.6860 c2        1 PD5     -0.064000
     25 CAJ        12.1030    0.6140   -0.9000 c2        1 PD5     -0.090000
     26 CAH        13.3940    0.2880   -1.1260 c2        1 PD5     -0.201000
     27 CAK        13.7740   -0.9220   -1.7850 c1        1 PD5      0.003000
     28 CBA        12.7690   -1.9400   -1.8780 c2        1 PD5     -0.220000
     29 CBG        13.2430   -3.3180   -2.3400 c3        1 PD5      0.480000
     30 FAF        13.7310   -3.3480   -3.6210 f         1 PD5     -0.161333
     31 FAG        14.2360   -3.8610   -1.5670 f         1 PD5     -0.161333
     32 FAE        12.2590   -4.2820   -2.3400 f         1 PD5     -0.161333
     33 HAA        -4.4270    1.3950   -3.4700 hc        1 PD5      0.069250
     34 HAAA       -4.3390    2.2460   -1.8690 hc        1 PD5      0.069250
     35 HAAB       -5.4080    0.7930   -2.0670 hc        1 PD5      0.069250
     36 HBE        -3.6010    0.5950   -2.0630 hc        1 PD5      0.069250
     37 HAB        -0.7710   -0.6380   -4.4120 hc        1 PD5      0.113667
     38 HABA       -2.4410   -0.0290   -4.0100 hc        1 PD5      0.113667
     39 HABB       -2.0680   -1.8000   -3.8860 hc        1 PD5      0.113667
     40 H2         -1.9580   -0.4370    0.4950 hn        1 PD5      0.276000
     41 HNAC        3.3140    0.3420    2.6070 hn        1 PD5      0.246500
     42 HNAA        3.7240    0.2410    0.9460 hn        1 PD5      0.246500
     43 HAO         3.9230   -1.8360   -0.4070 ha        1 PD5      0.152000
     44 HAM         6.3530   -1.6470   -0.8100 ha        1 PD5      0.156500
     45 HAN         5.6220    1.8440   -3.3250 ha        1 PD5      0.156500
     46 HAL         3.2020    1.6270   -2.9020 ha        1 PD5      0.152000
     47 HNAT        7.7530    0.8980   -3.1200 hn        1 PD5      0.232000
     48 HNAU       10.0970    0.4580   -2.8130 hn        1 PD5      0.223000
     49 HAP        10.6690   -2.4300   -1.9040 ha        1 PD5      0.164000
     50 HAJ        10.5950   -0.6260   -0.0770 h1        1 PD5      0.192000
     51 HAH        11.8010    1.6020   -0.5150 ha        1 PD5      0.152000
     52 HAK        14.2100    0.9880   -0.8720 ha        1 PD5      0.166000
     53 CBE        -1.4070   -0.6200   -2.2890 c1        1 PD5     -0.035000
@<TRIPOS>BOND
     1    1    2 1   
     2    1    5 1   
     3    1    8 1   
     4    2    3 1   
     5    2   12 1   
     6    3    4 1   
     7    3   11 1   
     8    4   10 1   
     9    5   10 1   
    10    5   40 1   
    11    6   33 1   
    12    6   34 1   
    13    6   35 1   
    14    6   36 1   
    15    7   37 1   
    16    7   38 1   
    17    7   39 1   
    18    7   53 1   
    19    8    9 1   
    20    8   53 1   
    21    9   12 1   
    22   11   41 1   
    23   11   42 1   
    24   12   13 1   
    25   13   14 1   
    26   13   16 1   
    27   14   15 1   
    28   14   43 1   
    29   15   18 1   
    30   15   44 1   
    31   16   17 1   
    32   16   46 1   
    33   17   18 1   
    34   17   45 1   
    35   18   19 1   
    36   19   20 1   
    37   19   47 1   
    38   20   21 1   
    39   20   22 1   
    40   22   23 1   
    41   22   48 1   
    42   23   24 1   
    43   23   25 1   
    44   23   50 1   
    45   24   28 1   
    46   24   49 1   
    47   25   26 1   
    48   25   51 1   
    49   26   27 1   
    50   26   52 1   
    51   27   28 1   
    52   28   29 1   
    53   29   30 1   
    54   29   31 1   
    55   29   32 1   
@<TRIPOS>SUBSTRUCTURE
     1 PD5         1 TEMP              0 ****  ****    0 ROOT
