@<TRIPOS>MOLECULE
PD5
   53    46     1     0     0
SMALL
bcc


@<TRIPOS>ATOM
      1 C4         -4.9350   -1.4140    1.3250 c1        1 PD5      0.080000
      2 C5         -3.9540   -1.7580    0.4630 c1        1 PD5     -0.278000
      3 C6         -4.1610   -2.7870   -0.4440 c1        1 PD5      0.231000
      4 N1         -5.3320   -3.4370   -0.4620 n1        1 PD5     -0.272000
      5 N3         -6.1260   -2.0780    1.3020 n1        1 PD5     -0.213000
      6 CAA        -4.6130    0.1460    4.5010 c3        1 PD5     -0.227500
      7 CBE        -5.3020    0.2340    3.1390 c3        1 PD5      0.058000
      8 CAB        -5.5360    1.6970    2.7810 c3        1 PD5     -0.227500
      9 NBF        -4.4590   -0.3850    2.1270 n2        1 PD5     -0.133000
     10 NAS        -3.1710   -0.1050    1.7410 n2        1 PD5     -0.033000
     11 C2         -6.3270   -3.0860    0.4140 c1        1 PD5      0.030000
     12 NAC        -3.6100   -3.7630   -1.3360 n3        1 PD5     -0.350000
     13 CBB        -2.8470   -0.9400    0.7200 c1        1 PD5     -0.036000
     14 CAZ        -1.5010   -0.9920    0.2720 c1        1 PD5     -0.041000
     15 CAO        -0.6580   -1.9930    0.7270 c1        1 PD5     -0.124750
     16 CAM         0.6530   -2.0790    0.2410 c1        1 PD5     -0.124750
     17 CAN        -1.0440   -0.0710   -0.6690 c1        1 PD5     -0.080000
     18 CAL         0.2640   -0.1570   -1.1530 c1        1 PD5     -0.143000
     19 CAX         1.1090   -1.1590   -0.6980 c1        1 PD5      0.075000
     20 NAT         2.4550   -1.2300   -1.1740 n         1 PD5     -0.315000
     21 CAV         3.2380   -0.0270   -1.2880 c2        1 PD5      0.399000
     22 OAD         2.7540    1.0380   -0.9810 o         1 PD5     -0.364000
     23 NAU         4.6360   -0.1170   -1.5720 n         1 PD5     -0.319000
     24 CAY         5.4530    1.0390   -1.4930 c2        1 PD5      0.070000
     25 CAP         5.6130    1.8510   -2.6050 c2        1 PD5     -0.137000
     26 CAJ         6.1760    1.2990   -0.3320 c1        1 PD5     -0.108000
     27 CAH         7.0560    2.3710   -0.2880 c1        1 PD5     -0.124750
     28 CAK         7.2170    3.1830   -1.4010 c1        1 PD5     -0.124750
     29 CBA         6.4940    2.9240   -2.5620 c1        1 PD5     -0.136000
     30 CBG         6.7460    3.7440   -3.8080 c3        1 PD5      0.466000
     31 FAF         5.5950    3.9060   -4.4750 f         1 PD5     -0.165667
     32 FAG         7.2330    4.9370   -3.4650 f         1 PD5     -0.165667
     33 FAE         7.6260    3.1120   -4.5870 f         1 PD5     -0.165667
     34 HAA        -5.1940    0.5450    5.1890 hc        1 PD5      0.089500
     35 HAAA       -3.7610    0.6330    4.4680 hc        1 PD5      0.089500
     36 HAAB       -4.4450   -0.7950    4.7210 hc        1 PD5      0.089500
     37 HBE        -6.1540   -0.2290    3.1770 h1        1 PD5      0.126000
     38 HAB        -5.9690    1.7540    1.9010 hc        1 PD5      0.089500
     39 HABA       -6.1190    2.1140    3.4630 hc        1 PD5      0.089500
     40 HABB       -4.6780    2.1680    2.7550 hc        1 PD5      0.089500
     41 H2         -7.1810   -3.5600    0.3990 ha        1 PD5      0.189000
     42 HNAC       -4.1050   -4.0620   -2.0540 hn        1 PD5      0.231500
     43 HNAA       -2.7780   -4.1080   -1.1790 hn        1 PD5      0.231500
     44 HAO        -0.9770   -2.6380    1.3860 ha        1 PD5      0.145750
     45 HAM         1.2510   -2.7870    0.5630 ha        1 PD5      0.145750
     46 HAN        -1.6330    0.6290   -0.9870 ha        1 PD5      0.151000
     47 HAL         0.5830    0.4870   -1.8110 ha        1 PD5      0.175000
     48 HNAT        2.8530   -2.0390   -1.2830 hn        1 PD5      0.224000
     49 HNAU        4.9940   -0.9090   -1.8540 hn        1 PD5      0.225000
     50 HAP         5.1040    1.6680   -3.4230 ha        1 PD5      0.147000
     51 HAJ         6.0630    0.7310    0.4460 ha        1 PD5      0.177000
     52 HAH         7.5670    2.5540    0.5330 ha        1 PD5      0.145750
     53 HAK         7.8350    3.9360   -1.3690 ha        1 PD5      0.145750
@<TRIPOS>BOND
     1    1    5 1   
     2    2    3 1   
     3    3   12 1   
     4    4   11 1   
     5    6    7 1   
     6    6   34 1   
     7    6   35 1   
     8    6   36 1   
     9    7    8 1   
    10    7    9 1   
    11    7   37 1   
    12    8   38 1   
    13    8   39 1   
    14    8   40 1   
    15    9   10 1   
    16   10   13 1   
    17   11   41 1   
    18   12   42 1   
    19   12   43 1   
    20   13   14 1   
    21   14   17 1   
    22   15   16 1   
    23   15   44 1   
    24   16   45 1   
    25   17   46 1   
    26   18   19 1   
    27   18   47 1   
    28   19   20 1   
    29   20   21 1   
    30   20   48 1   
    31   21   22 1   
    32   21   23 1   
    33   23   24 1   
    34   23   49 1   
    35   24   25 1   
    36   24   26 1   
    37   25   29 1   
    38   25   50 1   
    39   26   51 1   
    40   27   28 1   
    41   27   52 1   
    42   28   53 1   
    43   29   30 1   
    44   30   31 1   
    45   30   32 1   
    46   30   33 1   
@<TRIPOS>SUBSTRUCTURE
     1 PD5         1 TEMP              0 ****  ****    0 ROOT
