@<TRIPOS>MOLECULE
PD5
   53    55     1     0     0
SMALL
bcc


@<TRIPOS>ATOM
      1 C4         -0.0340   -0.5990    0.1540 c2        1 PD5      0.158000
      2 C5          1.3780   -0.4330    0.3740 c2        1 PD5     -0.331000
      3 C6          1.8330   -0.3590    1.7380 c2        1 PD5      0.276000
      4 N1          0.9050   -0.4750    2.7550 n2        1 PD5     -0.303000
      5 N3         -0.9060   -0.7060    1.1910 nu        1 PD5     -0.182000
      6 CAA        -4.2060    1.8960   -4.0490 c3        1 PD5     -0.271000
      7 CAB        -1.7750   -0.7880   -3.2150 c3        1 PD5     -0.273000
      8 NBF        -0.2340   -0.6110   -1.2750 na        1 PD5     -0.090000
      9 NAS         0.9890   -0.4610   -1.9030 n2        1 PD5     -0.100000
     10 C2         -0.3910   -0.6410    2.4970 c1        1 PD5      0.003000
     11 NAC         3.1550   -0.1800    2.0140 n8        1 PD5     -0.349000
     12 CBB         1.9520   -0.3600   -0.9730 c2        1 PD5      0.049000
     13 CAZ         3.3690   -0.1970   -1.2790 ca        1 PD5     -0.063000
     14 CAO         4.3040   -1.1390   -0.8350 ca        1 PD5     -0.084500
     15 CAM         5.6560   -0.9910   -1.1270 ca        1 PD5     -0.161000
     16 CAN         3.8020    0.8930   -2.0440 ca        1 PD5     -0.084500
     17 CAL         5.1500    1.0590   -2.3350 ca        1 PD5     -0.161000
     18 CAX         6.1020    0.1160   -1.8790 ca        1 PD5      0.082000
     19 NAT         7.4510    0.2830   -2.2510 ns        1 PD5     -0.312000
     20 CAV         8.5270   -0.1400   -1.4490 c2        1 PD5      0.388000
     21 OAD         8.3740   -0.8540   -0.4320 o         1 PD5     -0.379000
     22 NAU         9.8240    0.2900   -1.8180 ns        1 PD5     -0.355000
     23 CAY        10.9620   -0.3450   -1.1840 c3        1 PD5      0.024000
     24 CAP        11.4270   -1.6000   -1.8730 c2        1 PD5     -0.064000
     25 CAJ        12.0720    0.6370   -0.9260 c2        1 PD5     -0.090000
     26 CAH        13.3570    0.3590   -1.2380 c2        1 PD5     -0.201000
     27 CAK        13.7250   -0.7840   -2.0140 c1        1 PD5      0.003000
     28 CBA        12.7350   -1.8110   -2.1470 c2        1 PD5     -0.220000
     29 CBG        13.2100   -3.1350   -2.7450 c3        1 PD5      0.480000
     30 FAF        13.6370   -3.0470   -4.0450 f         1 PD5     -0.161333
     31 FAG        14.2490   -3.7200   -2.0680 f         1 PD5     -0.161333
     32 FAE        12.2450   -4.1170   -2.7820 f         1 PD5     -0.161333
     33 HAA        -4.3120    1.0480   -4.7600 hc        1 PD5      0.068000
     34 HAAA       -3.1760    2.3100   -4.1150 hc        1 PD5      0.068000
     35 HAAB       -4.9400    2.6890   -4.3090 hc        1 PD5      0.068000
     36 HBE        -4.3980    1.5390   -3.0130 hc        1 PD5      0.068000
     37 HAB        -0.9190   -0.6860   -3.9260 hc        1 PD5      0.114000
     38 HABA       -2.5080    0.0420   -3.4120 hc        1 PD5      0.114000
     39 HABB       -2.2970   -1.7600   -3.4180 hc        1 PD5      0.114000
     40 H2         -1.8840   -0.8230    1.0320 hn        1 PD5      0.276000
     41 HNAC        3.4700   -0.1140    2.9520 hn        1 PD5      0.246000
     42 HNAA        3.8010   -0.0670    1.2720 hn        1 PD5      0.246000
     43 HAO         3.9690   -2.0180   -0.2610 ha        1 PD5      0.152000
     44 HAM         6.3720   -1.7450   -0.7600 ha        1 PD5      0.156500
     45 HAN         5.4620    1.9290   -2.9330 ha        1 PD5      0.156500
     46 HAL         3.0690    1.6270   -2.4170 ha        1 PD5      0.152000
     47 HNAT        7.6160    1.0130   -2.9100 hn        1 PD5      0.232000
     48 HNAU        9.9790    0.5990   -2.7500 hn        1 PD5      0.223000
     49 HAP        10.6450   -2.3420   -2.1180 ha        1 PD5      0.164000
     50 HAJ        10.6270   -0.7000   -0.1420 h1        1 PD5      0.192000
     51 HAH        11.7720    1.5820   -0.4450 ha        1 PD5      0.152000
     52 HAK        14.1710    1.0520   -0.9640 ha        1 PD5      0.166000
     53 CBE        -1.4670   -0.7580   -1.7800 c1        1 PD5     -0.033000
@<TRIPOS>BOND
     1    1    2 1   
     2    1    5 1   
     3    1    8 1   
     4    2    3 1   
     5    2   12 1   
     6    3    4 1   
     7    3   11 1   
     8    4   10 1   
     9    5   10 1   
    10    5   40 1   
    11    6   33 1   
    12    6   34 1   
    13    6   35 1   
    14    6   36 1   
    15    7   37 1   
    16    7   38 1   
    17    7   39 1   
    18    7   53 1   
    19    8    9 1   
    20    8   53 1   
    21    9   12 1   
    22   11   41 1   
    23   11   42 1   
    24   12   13 1   
    25   13   14 1   
    26   13   16 1   
    27   14   15 1   
    28   14   43 1   
    29   15   18 1   
    30   15   44 1   
    31   16   17 1   
    32   16   46 1   
    33   17   18 1   
    34   17   45 1   
    35   18   19 1   
    36   19   20 1   
    37   19   47 1   
    38   20   21 1   
    39   20   22 1   
    40   22   23 1   
    41   22   48 1   
    42   23   24 1   
    43   23   25 1   
    44   23   50 1   
    45   24   28 1   
    46   24   49 1   
    47   25   26 1   
    48   25   51 1   
    49   26   27 1   
    50   26   52 1   
    51   27   28 1   
    52   28   29 1   
    53   29   30 1   
    54   29   31 1   
    55   29   32 1   
@<TRIPOS>SUBSTRUCTURE
     1 PD5         1 TEMP              0 ****  ****    0 ROOT
