@<TRIPOS>MOLECULE
PD5
   53    56     1     0     0
SMALL
bcc


@<TRIPOS>ATOM
      1 C4          6.3800    0.7080    0.0030 ca        1 PD5      0.473800
      2 C5          4.9740    0.9950    0.2470 ca        1 PD5     -0.496500
      3 C6          4.6360    2.3370    0.6060 ca        1 PD5      0.762200
      4 N1          5.6340    3.2810    0.6910 nb        1 PD5     -0.802000
      5 N3          7.3710    1.6510    0.0800 nb        1 PD5     -0.743000
      6 CAA         7.9020   -2.6480    0.1310 c3        1 PD5     -0.109600
      7 CAB         7.6520   -1.7390   -2.1760 c3        1 PD5     -0.109600
      8 NBF         6.4490   -0.6700   -0.2750 na        1 PD5      0.001200
      9 NAS         5.2270   -1.2330   -0.2540 nc        1 PD5     -0.504100
     10 C2          6.9030    2.8730    0.4190 ca        1 PD5      0.695900
     11 NAC         3.3290    2.6910    0.8310 nh        1 PD5     -0.960500
     12 CBB         4.3090   -0.2810    0.0620 cd        1 PD5      0.419500
     13 CAZ         2.8830   -0.5480    0.1900 ca        1 PD5     -0.120900
     14 CAO         1.9540    0.1720   -0.5700 ca        1 PD5     -0.092000
     15 CAM         0.5900   -0.0750   -0.4490 ca        1 PD5     -0.160000
     16 CAN         2.4280   -1.5430    1.0640 ca        1 PD5     -0.092000
     17 CAL         1.0690   -1.7960    1.2000 ca        1 PD5     -0.160000
     18 CAX         0.1250   -1.0630    0.4430 ca        1 PD5      0.066600
     19 NAT        -1.2410   -1.3920    0.5570 n         1 PD5     -0.465100
     20 CAV        -2.2710   -0.4350    0.4420 c         1 PD5      0.772100
     21 OAD        -2.0450    0.7360    0.0700 o         1 PD5     -0.608100
     22 NAU        -3.5760   -0.8700    0.7760 n         1 PD5     -0.464100
     23 CAY        -4.7290   -0.1130    0.4920 ca        1 PD5      0.062600
     24 CAP        -5.9360   -0.7980    0.2190 ca        1 PD5     -0.137000
     25 CAJ        -4.7440    1.2980    0.5360 ca        1 PD5     -0.109000
     26 CAH        -5.9290    1.9920    0.3110 ca        1 PD5     -0.113000
     27 CAK        -7.1190    1.3160    0.0490 ca        1 PD5     -0.103000
     28 CBA        -7.1100   -0.0780    0.0090 ca        1 PD5     -0.143300
     29 CBG        -8.4070   -0.8350   -0.2570 c3        1 PD5      0.687200
     30 FAF        -9.0980   -1.1810    0.8800 f         1 PD5     -0.236967
     31 FAG        -9.3260   -0.1490   -1.0120 f         1 PD5     -0.236967
     32 FAE        -8.2470   -2.0270   -0.9230 f         1 PD5     -0.236967
     33 HAA         7.1040   -3.4060   -0.0580 hc        1 PD5      0.049867
     34 HAAA        8.8870   -3.0810   -0.1680 hc        1 PD5      0.049867
     35 HAAB        7.9280   -2.4200    1.2230 hc        1 PD5      0.049867
     36 HBE         8.5170   -0.6640   -0.4980 h1        1 PD5      0.087700
     37 HAB         6.8330   -2.4610   -2.4090 hc        1 PD5      0.049867
     38 HABA        7.5180   -0.8280   -2.8070 hc        1 PD5      0.049867
     39 HABB        8.6310   -2.2110   -2.4350 hc        1 PD5      0.049867
     40 H2          7.6720    3.6740    0.4930 h5        1 PD5      0.052100
     41 HNAC        2.6560    1.9680    0.9140 hn        1 PD5      0.443800
     42 HNAA        3.1110    3.5930    1.1780 hn        1 PD5      0.443800
     43 HAO         2.3030    0.9350   -1.2840 ha        1 PD5      0.150000
     44 HAM        -0.1220    0.5120   -1.0530 ha        1 PD5      0.152000
     45 HAN         3.1530   -2.1300    1.6500 ha        1 PD5      0.150000
     46 HAL         0.7410   -2.5810    1.8980 ha        1 PD5      0.152000
     47 HNAT       -1.4260   -2.2220    1.0790 hn        1 PD5      0.313500
     48 HNAU       -3.7340   -1.8520    0.8440 hn        1 PD5      0.312500
     49 HAP        -5.9680   -1.8980    0.1680 ha        1 PD5      0.148000
     50 HAJ        -3.8150    1.8600    0.7370 ha        1 PD5      0.176000
     51 HAH        -5.9230    3.0930    0.3430 ha        1 PD5      0.147000
     52 HAK        -8.0540    1.8690   -0.1300 ha        1 PD5      0.154000
     53 CBE         7.6630   -1.3820   -0.6910 c3        1 PD5      0.078000
@<TRIPOS>BOND
     1    1    2 ar  
     2    1    5 ar  
     3    1    8 1   
     4    2    3 ar  
     5    2   12 1   
     6    3    4 ar  
     7    3   11 1   
     8    4   10 ar  
     9    5   10 ar  
    10    6   33 1   
    11    6   34 1   
    12    6   35 1   
    13    6   53 1   
    14    7   37 1   
    15    7   38 1   
    16    7   39 1   
    17    7   53 1   
    18    8    9 1   
    19    8   53 1   
    20    9   12 2   
    21   10   40 1   
    22   11   41 1   
    23   11   42 1   
    24   12   13 1   
    25   13   14 ar  
    26   13   16 ar  
    27   14   15 ar  
    28   14   43 1   
    29   15   18 ar  
    30   15   44 1   
    31   16   17 ar  
    32   16   45 1   
    33   17   18 ar  
    34   17   46 1   
    35   18   19 1   
    36   19   20 1   
    37   19   47 1   
    38   20   21 2   
    39   20   22 1   
    40   22   23 1   
    41   22   48 1   
    42   23   24 ar  
    43   23   25 ar  
    44   24   28 ar  
    45   24   49 1   
    46   25   26 ar  
    47   25   50 1   
    48   26   27 ar  
    49   26   51 1   
    50   27   28 ar  
    51   27   52 1   
    52   28   29 1   
    53   29   30 1   
    54   29   31 1   
    55   29   32 1   
    56   36   53 1   
@<TRIPOS>SUBSTRUCTURE
     1 PD5         1 TEMP              0 ****  ****    0 ROOT
