@<TRIPOS>MOLECULE
PD5
   53    55     1     0     0
SMALL
bcc


@<TRIPOS>ATOM
      1 C4         -0.1700   -0.1900    0.4660 cc        1 PD5      0.088500
      2 C5          1.2650   -0.1010    0.4760 cd        1 PD5     -0.480200
      3 C6          1.9090    0.0880    1.7510 cf        1 PD5      0.633900
      4 N1          1.1260    0.1470    2.8870 nf        1 PD5     -0.743700
      5 N3         -0.8940   -0.1230    1.6140 nh        1 PD5     -0.187500
      6 CAA        -5.1050    2.6760   -3.7680 c3        1 PD5     -0.107800
      7 CAB        -2.3690   -0.6150   -2.6010 c3        1 PD5     -0.177000
      8 NBF        -0.5680   -0.3410   -0.9130 na        1 PD5      0.104100
      9 NAS         0.5630   -0.3460   -1.7110 nc        1 PD5     -0.534800
     10 C2         -0.1990    0.0450    2.8240 c1        1 PD5      0.220400
     11 NAC         3.2640    0.2040    1.8260 nh        1 PD5     -0.501100
     12 CBB         1.6500   -0.2140   -0.9340 cd        1 PD5      0.489800
     13 CAZ         3.0180   -0.1840   -1.4400 ca        1 PD5     -0.178500
     14 CAO         3.9530   -1.1350   -1.0130 ca        1 PD5     -0.083000
     15 CAM         5.2580   -1.1130   -1.4910 ca        1 PD5     -0.166000
     16 CAN         3.4010    0.7830   -2.3760 ca        1 PD5     -0.083000
     17 CAL         4.7040    0.8230   -2.8540 ca        1 PD5     -0.166000
     18 CAX         5.6590   -0.1270   -2.4180 ca        1 PD5      0.087600
     19 NAT         6.9510   -0.0900   -2.9700 n         1 PD5     -0.475100
     20 CAV         8.1070   -0.5180   -2.2770 c         1 PD5      0.774100
     21 OAD         8.0310   -1.0510   -1.1490 o         1 PD5     -0.607100
     22 NAU         9.3400   -0.3160   -2.9230 n         1 PD5     -0.478100
     23 CAY        10.5700   -0.7700   -2.4490 c2        1 PD5     -0.032400
     24 CAP        14.0330   -1.1140   -2.7340 cc        1 PD5     -0.029000
     25 CAJ        10.8440   -1.3740   -1.2710 cf        1 PD5     -0.159000
     26 CAH        12.1770   -1.7690   -0.8850 cf        1 PD5     -0.110000
     27 CAK        13.2780   -1.5790   -1.5910 cc        1 PD5     -0.085000
     28 CBA        14.7070   -1.7120   -1.7500 cd        1 PD5     -0.200200
     29 CBG        15.9830   -2.1950   -1.1710 c3        1 PD5      0.740100
     30 FAF        17.0880   -1.9490   -1.9530 f         1 PD5     -0.226633
     31 FAG        16.2990   -1.6380    0.0450 f         1 PD5     -0.226633
     32 FAE        16.0250   -3.5500   -0.9450 f         1 PD5     -0.226633
     33 HAA        -4.4930    3.0970   -4.5950 hc        1 PD5      0.027200
     34 HAAA       -5.3080    3.4690   -3.0160 hc        1 PD5      0.027200
     35 HAAB       -4.5510    1.8420   -3.2850 hc        1 PD5      0.027200
     36 HBE        -6.0670    2.2960   -4.1750 hc        1 PD5      0.027200
     37 HAB        -1.6170   -0.6340   -3.4270 hc        1 PD5      0.072700
     38 HABA       -2.9530   -1.5730   -2.6240 hc        1 PD5      0.072700
     39 HABB       -3.0870    0.2280   -2.7880 hc        1 PD5      0.072700
     40 H2         -1.8890   -0.1870    1.6000 hn        1 PD5      0.325700
     41 HNAC        3.7100    0.3470    2.7000 hn        1 PD5      0.296200
     42 HNAA        3.8060    0.1890    0.9970 hn        1 PD5      0.296200
     43 HAO         3.6510   -1.9220   -0.3030 ha        1 PD5      0.149500
     44 HAM         5.9760   -1.8710   -1.1340 ha        1 PD5      0.156000
     45 HAN         4.9790    1.6000   -3.5840 ha        1 PD5      0.156000
     46 HAL         2.6650    1.5210   -2.7340 ha        1 PD5      0.149500
     47 HNAT        7.0630    0.5430   -3.7310 hn        1 PD5      0.312500
     48 HNAU        9.3380   -0.0070   -3.8680 hn        1 PD5      0.315500
     49 HAP        14.0190   -0.6280   -3.6900 ha        1 PD5      0.201000
     50 HAJ        11.3860   -0.5560   -3.1720 h4        1 PD5      0.130000
     51 HAH        10.0530   -1.6010   -0.5340 ha        1 PD5      0.173000
     52 HAK        12.2540   -2.2740    0.0960 ha        1 PD5      0.151000
     53 CBE        -1.8640   -0.4540   -1.2310 c1        1 PD5     -0.009100
@<TRIPOS>BOND
     1    1    2 2   
     2    1    5 1   
     3    1    8 1   
     4    2    3 1   
     5    2   12 1   
     6    3    4 1   
     7    3   11 2   
     8    4   10 2   
     9    5   10 2   
    10    5   40 1   
    11    6   33 1   
    12    6   34 1   
    13    6   35 1   
    14    6   36 1   
    15    7   37 1   
    16    7   38 1   
    17    7   39 1   
    18    7   53 1   
    19    8    9 1   
    20    8   53 3   
    21    9   12 2   
    22   11   41 1   
    23   11   42 1   
    24   12   13 1   
    25   13   14 ar  
    26   13   16 ar  
    27   14   15 ar  
    28   14   43 1   
    29   15   18 ar  
    30   15   44 1   
    31   16   17 ar  
    32   16   46 1   
    33   17   18 ar  
    34   17   45 1   
    35   18   19 1   
    36   19   20 1   
    37   19   47 1   
    38   20   21 2   
    39   20   22 1   
    40   22   23 1   
    41   22   48 1   
    42   23   25 2   
    43   23   50 1   
    44   24   27 1   
    45   24   28 2   
    46   24   49 1   
    47   25   26 1   
    48   25   51 1   
    49   26   27 2   
    50   26   52 1   
    51   27   28 1   
    52   28   29 1   
    53   29   30 1   
    54   29   31 1   
    55   29   32 1   
@<TRIPOS>SUBSTRUCTURE
     1 PD5         1 TEMP              0 ****  ****    0 ROOT
