@<TRIPOS>MOLECULE
PD6
   41    43     1     0     0
SMALL
bcc


@<TRIPOS>ATOM
      1 N3         20.2210   -6.7390   12.0100 na        1 PD6     -0.524800
      2 C4         18.3150   -5.2070   11.9460 ca        1 PD6     -0.389300
      3 C5         18.1360   -5.1960   14.7160 ca        1 PD6      0.758200
      4 C6         20.2150   -6.6670   14.8810 c         1 PD6      0.601900
      5 C7         21.1990   -7.3880   12.7500 cc        1 PD6      0.102000
      6 C8         20.2880   -6.8420   10.5650 c3        1 PD6      0.210800
      7 C15        16.3930   -3.6560   11.8520 cp        1 PD6     -0.154500
      8 C17        15.0360   -3.6110   12.1930 ca        1 PD6     -0.100000
      9 C20        14.1510   -2.8530   11.4260 ca        1 PD6     -0.138500
     10 C21        15.9680   -2.1680    9.9900 ca        1 PD6     -0.138500
     11 C22        14.6140   -2.1320   10.3260 ca        1 PD6     -0.119000
     12 C1         19.2560   -5.9720   12.6720 ca        1 PD6      0.270600
     13 C2         19.2050   -5.9540   14.0990 ca        1 PD6     -0.392900
     14 C9         17.3450   -4.4670   12.6420 cp        1 PD6      0.568800
     15 N10        17.2360   -4.4550   13.9830 nb        1 PD6     -0.783000
     16 N11        17.9510   -5.1990   16.0730 nh        1 PD6     -0.956500
     17 C12        21.2260   -7.3790   14.1040 cd        1 PD6     -0.312200
     18 O13        20.2620   -6.6890   16.1290 o         1 PD6     -0.612100
     19 C14        21.2610   -5.8820    9.8800 c3        1 PD6     -0.101400
     20 C16        20.7360   -4.4670    9.8000 c3        1 PD6     -0.085400
     21 C18        16.8570   -2.9270   10.7480 ca        1 PD6     -0.100000
     22 C19        21.7370   -3.5480    9.1470 c3        1 PD6     -0.093100
     23 H4         18.3200   -5.1630   10.8500 ha        1 PD6      0.149000
     24 H7         21.9590   -7.9290   12.1540 h4        1 PD6      0.151000
     25 H8         20.6120   -7.8970   10.3220 h1        1 PD6      0.062700
     26 H8A        19.2570   -6.7090   10.1330 h1        1 PD6      0.062700
     27 H17        14.6670   -4.1710   13.0660 ha        1 PD6      0.142500
     28 H20        13.0850   -2.8220   11.6950 ha        1 PD6      0.133000
     29 H21        16.3360   -1.5940    9.1270 ha        1 PD6      0.133000
     30 H22        13.9140   -1.5330    9.7250 ha        1 PD6      0.132000
     31 HN11       18.6200   -5.6380   16.6630 hn        1 PD6      0.454800
     32 HN1A       17.2620   -4.6140   16.4790 hn        1 PD6      0.454800
     33 H12        22.0080   -7.9110   14.6630 ha        1 PD6      0.164000
     34 H14        22.2490   -5.8890   10.4110 hc        1 PD6      0.052200
     35 H14A       21.4370   -6.2720    8.8420 hc        1 PD6      0.052200
     36 H16        19.7780   -4.4540    9.2140 hc        1 PD6      0.046700
     37 H16A       20.4950   -4.0930   10.8310 hc        1 PD6      0.046700
     38 H18        17.9260   -2.9470   10.4870 ha        1 PD6      0.142500
     39 H19        21.9770   -3.8950    8.1130 hc        1 PD6      0.036033
     40 H19A       21.3270   -2.5110    9.0860 hc        1 PD6      0.036033
     41 H19B       22.6860   -3.5170    9.7350 hc        1 PD6      0.036033
@<TRIPOS>BOND
     1    1    5 1   
     2    1    6 1   
     3    1   12 1   
     4    2   12 ar  
     5    2   14 ar  
     6    2   23 1   
     7    3   13 ar  
     8    3   15 ar  
     9    3   16 1   
    10    4   13 1   
    11    4   17 1   
    12    4   18 2   
    13    5   17 2   
    14    5   24 1   
    15    6   19 1   
    16    6   25 1   
    17    6   26 1   
    18    7    8 ar  
    19    7   14 1   
    20    7   21 ar  
    21    8    9 ar  
    22    8   27 1   
    23    9   11 ar  
    24    9   28 1   
    25   10   11 ar  
    26   10   21 ar  
    27   10   29 1   
    28   11   30 1   
    29   12   13 ar  
    30   14   15 ar  
    31   16   31 1   
    32   16   32 1   
    33   17   33 1   
    34   19   20 1   
    35   19   34 1   
    36   19   35 1   
    37   20   22 1   
    38   20   36 1   
    39   20   37 1   
    40   21   38 1   
    41   22   39 1   
    42   22   40 1   
    43   22   41 1   
@<TRIPOS>SUBSTRUCTURE
     1 PD6         1 TEMP              0 ****  ****    0 ROOT
