@<TRIPOS>MOLECULE
PD6
   41    43     1     0     0
SMALL
bcc


@<TRIPOS>ATOM
      1 N3          0.0940    0.0060    0.0680 na        1 PD6     -0.524800
      2 C4         -2.0250    0.0070    1.2900 ca        1 PD6     -0.389300
      3 C5         -0.7040   -0.1630    3.7260 ca        1 PD6      0.758200
      4 C6          1.5520   -0.0110    2.5420 c         1 PD6      0.601900
      5 C7          1.4780    0.0940    0.0900 cc        1 PD6      0.102000
      6 C8         -0.5620    0.0020   -1.2250 c3        1 PD6      0.210800
      7 C15        -4.1790    0.0140    2.5020 cp        1 PD6     -0.154500
      8 C17        -4.9380   -0.8090    3.3420 ca        1 PD6     -0.100000
      9 C20        -6.3310   -0.7540    3.2980 ca        1 PD6     -0.138500
     10 C21        -6.2180    0.9520    1.5930 ca        1 PD6     -0.138500
     11 C22        -6.9720    0.1240    2.4250 ca        1 PD6     -0.119000
     12 C1         -0.6110   -0.0180    1.2760 ca        1 PD6      0.270600
     13 C2          0.0900   -0.0700    2.5180 ca        1 PD6     -0.392900
     14 C9         -2.7020   -0.0410    2.5210 cp        1 PD6      0.568800
     15 N10        -2.0800   -0.1320    3.7110 nb        1 PD6     -0.783000
     16 N11        -0.1180   -0.3140    4.9550 nv        1 PD6     -0.956500
     17 C12         2.1990    0.0860    1.2360 cd        1 PD6     -0.312200
     18 O13         2.2470   -0.0290    3.5790 o         1 PD6     -0.612100
     19 C14        -0.7690    1.3750   -1.8640 c3        1 PD6     -0.101400
     20 C16        -1.9060    2.1510   -1.2400 c3        1 PD6     -0.085400
     21 C18        -4.8270    0.8990    1.6280 ca        1 PD6     -0.100000
     22 C19        -2.0550    3.5100   -1.8760 c3        1 PD6     -0.093100
     23 H4         -2.6170    0.0710    0.3690 ha        1 PD6      0.149000
     24 H7          1.9610    0.1630   -0.9040 h4        1 PD6      0.151000
     25 H8          0.0820   -0.6120   -1.9230 h1        1 PD6      0.062700
     26 H8A        -1.5500   -0.5300   -1.1410 h1        1 PD6      0.062700
     27 H17        -4.4370   -1.4970    4.0400 ha        1 PD6      0.142500
     28 H20        -6.9240   -1.4040    3.9580 ha        1 PD6      0.133000
     29 H21        -6.7220    1.6510    0.9090 ha        1 PD6      0.133000
     30 H22        -8.0710    0.1670    2.3950 ha        1 PD6      0.132000
     31 HN11        0.8700   -0.2510    5.0430 hn        1 PD6      0.454800
     32 HN1A       -0.6760   -0.2990    5.7740 hn        1 PD6      0.454800
     33 H12         3.2960    0.1480    1.2220 ha        1 PD6      0.164000
     34 H14        -0.9880    1.2060   -2.9530 hc        1 PD6      0.052200
     35 H14A        0.1760    1.9760   -1.8040 hc        1 PD6      0.052200
     36 H16        -1.7260    2.2680   -0.1380 hc        1 PD6      0.046700
     37 H16A       -2.8630    1.5750   -1.3570 hc        1 PD6      0.046700
     38 H18        -4.2340    1.5590    0.9760 ha        1 PD6      0.142500
     39 H19        -2.2530    3.4140   -2.9720 hc        1 PD6      0.036033
     40 H19A       -2.9070    4.0620   -1.4110 hc        1 PD6      0.036033
     41 H19B       -1.1260    4.1140   -1.7390 hc        1 PD6      0.036033
@<TRIPOS>BOND
     1    1    5 1   
     2    1    6 1   
     3    1   12 1   
     4    2   12 ar  
     5    2   14 ar  
     6    2   23 1   
     7    3   13 ar  
     8    3   15 ar  
     9    3   16 1   
    10    4   13 1   
    11    4   17 1   
    12    4   18 2   
    13    5   17 2   
    14    5   24 1   
    15    6   19 1   
    16    6   25 1   
    17    6   26 1   
    18    7    8 ar  
    19    7   14 1   
    20    7   21 ar  
    21    8    9 ar  
    22    8   27 1   
    23    9   11 ar  
    24    9   28 1   
    25   10   11 ar  
    26   10   21 ar  
    27   10   29 1   
    28   11   30 1   
    29   12   13 ar  
    30   14   15 ar  
    31   16   31 1   
    32   16   32 1   
    33   17   33 1   
    34   19   20 1   
    35   19   34 1   
    36   19   35 1   
    37   20   22 1   
    38   20   36 1   
    39   20   37 1   
    40   21   38 1   
    41   22   39 1   
    42   22   40 1   
    43   22   41 1   
@<TRIPOS>SUBSTRUCTURE
     1 PD6         1 TEMP              0 ****  ****    0 ROOT
