@<TRIPOS>MOLECULE
PD6
   41    43     1     0     0
SMALL
bcc


@<TRIPOS>ATOM
      1 N3          0.0910    0.0040    0.0630 na        1 PD6     -0.524800
      2 C4         -2.0250    0.0060    1.2890 ca        1 PD6     -0.389300
      3 C5         -0.7000   -0.1690    3.7220 ca        1 PD6      0.758200
      4 C6          1.5540   -0.0180    2.5350 c         1 PD6      0.601900
      5 C7          1.4760    0.0900    0.0830 cc        1 PD6      0.102000
      6 C8         -0.5670    0.0030   -1.2290 c3        1 PD6      0.210800
      7 C15        -4.1780    0.0150    2.5040 cp        1 PD6     -0.154500
      8 C17        -4.9360   -0.8080    3.3460 ca        1 PD6     -0.100000
      9 C20        -6.3290   -0.7510    3.3040 ca        1 PD6     -0.138500
     10 C21        -6.2170    0.9570    1.6010 ca        1 PD6     -0.138500
     11 C22        -6.9710    0.1290    2.4340 ca        1 PD6     -0.119000
     12 C1         -0.6120   -0.0200    1.2720 ca        1 PD6      0.270600
     13 C2          0.0920   -0.0750    2.5130 ca        1 PD6     -0.392900
     14 C9         -2.7000   -0.0420    2.5210 cp        1 PD6      0.568800
     15 N10        -2.0770   -0.1350    3.7100 nb        1 PD6     -0.783000
     16 N11        -0.1120   -0.3220    4.9500 nh        1 PD6     -0.956500
     17 C12         2.1990    0.0790    1.2280 cd        1 PD6     -0.312200
     18 O13         2.2500   -0.0390    3.5700 o         1 PD6     -0.612100
     19 C14        -0.7730    1.3780   -1.8650 c3        1 PD6     -0.101400
     20 C16        -1.9080    2.1550   -1.2370 c3        1 PD6     -0.085400
     21 C18        -4.8250    0.9020    1.6330 ca        1 PD6     -0.100000
     22 C19        -2.0570    3.5150   -1.8700 c3        1 PD6     -0.093100
     23 H4         -2.6190    0.0730    0.3690 ha        1 PD6      0.149000
     24 H7          1.9570    0.1600   -0.9120 h4        1 PD6      0.151000
     25 H8          0.0750   -0.6100   -1.9290 h1        1 PD6      0.062700
     26 H8A        -1.5560   -0.5270   -1.1440 h1        1 PD6      0.062700
     27 H17        -4.4340   -1.4980    4.0410 ha        1 PD6      0.142500
     28 H20        -6.9210   -1.4020    3.9640 ha        1 PD6      0.133000
     29 H21        -6.7210    1.6570    0.9190 ha        1 PD6      0.133000
     30 H22        -8.0690    0.1730    2.4050 ha        1 PD6      0.132000
     31 HN11        0.8760   -0.2610    5.0370 hn        1 PD6      0.454800
     32 HN1A       -0.6690   -0.3070    5.7700 hn        1 PD6      0.454800
     33 H12         3.2950    0.1400    1.2110 ha        1 PD6      0.164000
     34 H14         0.1730    1.9780   -1.8050 hc        1 PD6      0.052200
     35 H14A       -0.9950    1.2120   -2.9530 hc        1 PD6      0.052200
     36 H16        -1.7250    2.2690   -0.1350 hc        1 PD6      0.046700
     37 H16A       -2.8660    1.5810   -1.3530 hc        1 PD6      0.046700
     38 H18        -4.2330    1.5620    0.9810 ha        1 PD6      0.142500
     39 H19        -2.9060    4.0680   -1.4020 hc        1 PD6      0.036033
     40 H19A       -1.1260    4.1180   -1.7330 hc        1 PD6      0.036033
     41 H19B       -2.2560    3.4220   -2.9650 hc        1 PD6      0.036033
@<TRIPOS>BOND
     1    1    5 1   
     2    1    6 1   
     3    1   12 1   
     4    2   12 ar  
     5    2   14 ar  
     6    2   23 1   
     7    3   13 ar  
     8    3   15 ar  
     9    3   16 1   
    10    4   13 1   
    11    4   17 1   
    12    4   18 2   
    13    5   17 2   
    14    5   24 1   
    15    6   19 1   
    16    6   25 1   
    17    6   26 1   
    18    7    8 ar  
    19    7   14 1   
    20    7   21 ar  
    21    8    9 ar  
    22    8   27 1   
    23    9   11 ar  
    24    9   28 1   
    25   10   11 ar  
    26   10   21 ar  
    27   10   29 1   
    28   11   30 1   
    29   12   13 ar  
    30   14   15 ar  
    31   16   31 1   
    32   16   32 1   
    33   17   33 1   
    34   19   20 1   
    35   19   34 1   
    36   19   35 1   
    37   20   22 1   
    38   20   36 1   
    39   20   37 1   
    40   21   38 1   
    41   22   39 1   
    42   22   40 1   
    43   22   41 1   
@<TRIPOS>SUBSTRUCTURE
     1 PD6         1 TEMP              0 ****  ****    0 ROOT
