@<TRIPOS>MOLECULE
PD6
   42    44     1     0     0
SMALL
bcc


@<TRIPOS>ATOM
      1 N3          0.1040    0.0330    0.0620 na        1 PD6     -0.496800
      2 C4         -2.0450    0.0040    1.2650 ca        1 PD6     -0.268300
      3 C5         -0.7560   -0.1550    3.6630 ca        1 PD6      0.549200
      4 C6          1.5320   -0.0410    2.5590 c         1 PD6      0.596900
      5 C7          1.4900    0.0960    0.1170 cc        1 PD6      0.128000
      6 C8         -0.5300    0.0560   -1.2520 c3        1 PD6      0.196800
      7 C15        -4.2120   -0.0300    2.4710 cp        1 PD6     -0.196500
      8 C17        -4.9560   -0.8450    3.3350 ca        1 PD6     -0.090500
      9 C20        -6.3490   -0.8050    3.2980 ca        1 PD6     -0.127500
     10 C21        -6.2640    0.8700    1.5570 ca        1 PD6     -0.127500
     11 C22        -7.0050    0.0500    2.4120 ca        1 PD6     -0.087000
     12 C1         -0.6230   -0.0080    1.2440 ca        1 PD6      0.250600
     13 C2          0.0610   -0.0720    2.5000 ca        1 PD6     -0.328900
     14 C9         -2.7410   -0.0650    2.4790 cp        1 PD6      0.561800
     15 N10        -2.0980   -0.1570    3.6830 nb        1 PD6     -0.685000
     16 N11        -0.0910   -0.2440    4.9840 n4        1 PD6     -0.824300
     17 C12         2.1970    0.0590    1.2780 cd        1 PD6     -0.295200
     18 O13         2.1430   -0.0940    3.6470 o         1 PD6     -0.623100
     19 C14        -0.7410    1.4440   -1.8500 c3        1 PD6     -0.107400
     20 C16        -1.9030    2.1890   -1.2320 c3        1 PD6     -0.082400
     21 C18        -4.8730    0.8320    1.5830 ca        1 PD6     -0.090500
     22 C19        -2.0670    3.5530   -1.8530 c3        1 PD6     -0.098100
     23 H4         -2.6290    0.0740    0.3330 ha        1 PD6      0.184000
     24 H7          1.9970    0.1710   -0.8680 h4        1 PD6      0.185000
     25 H8          0.1370   -0.5350   -1.9470 h1        1 PD6      0.078200
     26 H8A        -1.5130   -0.4920   -1.1960 h1        1 PD6      0.078200
     27 H17        -4.4490   -1.5230    4.0380 ha        1 PD6      0.139000
     28 H20        -6.9320   -1.4510    3.9730 ha        1 PD6      0.151500
     29 H21        -6.7810    1.5500    0.8630 ha        1 PD6      0.151500
     30 H22        -8.1050    0.0810    2.3880 ha        1 PD6      0.153000
     31 HN11        0.5770    0.5400    5.0620 hn        1 PD6      0.480800
     32 HN1A        0.4590   -1.1140    5.0090 hn        1 PD6      0.480800
     33 H12         3.2980    0.1030    1.2760 ha        1 PD6      0.194000
     34 H14         0.1940    2.0560   -1.7580 hc        1 PD6      0.069700
     35 H14A       -0.9360    1.3010   -2.9480 hc        1 PD6      0.069700
     36 H16        -1.7420    2.2960   -0.1260 hc        1 PD6      0.035700
     37 H16A       -2.8480    1.5980   -1.3730 hc        1 PD6      0.035700
     38 H18        -4.2950    1.4900    0.9150 ha        1 PD6      0.139000
     39 H19        -1.1500    4.1710   -1.6970 hc        1 PD6      0.046367
     40 H19A       -2.9330    4.0850   -1.3910 hc        1 PD6      0.046367
     41 H19B       -2.2510    3.4670   -2.9510 hc        1 PD6      0.046367
     42 H113       -0.7680   -0.2230    5.7550 hn        1 PD6      0.480800
@<TRIPOS>BOND
     1    1    5 1   
     2    1    6 1   
     3    1   12 1   
     4    2   12 ar  
     5    2   14 ar  
     6    2   23 1   
     7    3   13 ar  
     8    3   15 ar  
     9    3   16 1   
    10    4   13 1   
    11    4   17 1   
    12    4   18 2   
    13    5   17 2   
    14    5   24 1   
    15    6   19 1   
    16    6   25 1   
    17    6   26 1   
    18    7    8 ar  
    19    7   14 1   
    20    7   21 ar  
    21    8    9 ar  
    22    8   27 1   
    23    9   11 ar  
    24    9   28 1   
    25   10   11 ar  
    26   10   21 ar  
    27   10   29 1   
    28   11   30 1   
    29   12   13 ar  
    30   14   15 ar  
    31   16   31 1   
    32   16   32 1   
    33   16   42 1   
    34   17   33 1   
    35   19   20 1   
    36   19   34 1   
    37   19   35 1   
    38   20   22 1   
    39   20   36 1   
    40   20   37 1   
    41   21   38 1   
    42   22   39 1   
    43   22   40 1   
    44   22   41 1   
@<TRIPOS>SUBSTRUCTURE
     1 PD6         1 TEMP              0 ****  ****    0 ROOT
