@<TRIPOS>MOLECULE
PD7
   57    55     1     0     0
SMALL
bcc


@<TRIPOS>ATOM
      1 O''        -2.3350    1.6450    2.4530 o         1 PD7     -0.412000
      2 C''        -1.1380    1.4600    2.3940 c1        1 PD7      0.298000
      3 C1''       -0.3220    1.2390    3.6970 c2        1 PD7     -0.168000
      4 C2''       -1.2670    1.3840    4.9370 c3        1 PD7     -0.155000
      5 C3''       -0.5090    0.9660    6.2150 c3        1 PD7     -0.157000
      6 C4''       -1.4050    1.1610    7.4200 c3        1 PD7     -0.157000
      7 C5''       -0.7140    0.6080    8.6650 c3        1 PD7     -0.160000
      8 C6''       -1.5960    0.8220    9.8590 c3        1 PD7     -0.208000
      9 O3         -0.4690    1.5010    1.1280 os        1 PD7     -0.240000
     10 C3         -1.3650    1.3370   -0.0270 c3        1 PD7     -0.110000
     11 C2         -0.5720    1.5050   -1.3130 c3        1 PD7     -0.035000
     12 C1         -1.1200    2.6900   -2.1000 c3        1 PD7      0.084000
     13 O3P        -0.0400    3.5660   -2.4670 os        1 PD7     -0.718000
     14 P          -0.3970    4.9910   -3.0700 p5        1 PD7      1.554500
     15 O4P        -1.0270    5.8510   -1.9930 o         1 PD7     -0.915167
     16 O1P         0.8700    5.6610   -3.5770 o         1 PD7     -0.915167
     17 O2P        -1.3750    4.8230   -4.2190 o         1 PD7     -0.915167
     18 O2         -0.6830    0.3520   -2.0760 os        1 PD7     -0.265000
     19 C'          0.5280   -0.0240   -2.7340 c2        1 PD7      0.310000
     20 O'          1.3370    0.8010   -3.0000 o         1 PD7     -0.408000
     21 C1'         0.8180   -1.4900   -3.0150 c3        1 PD7     -0.161000
     22 C2'         1.1880   -1.6650   -4.4830 c3        1 PD7     -0.160000
     23 C3'         1.7100   -3.1250   -4.7180 c3        1 PD7     -0.154000
     24 C4'         1.7340   -3.4280   -6.2440 c3        1 PD7     -0.160000
     25 C5'         2.4680   -4.7610   -6.4950 c3        1 PD7     -0.158000
     26 C6'         2.2890   -5.1750   -7.9640 c3        1 PD7     -0.209000
     27 H1''        0.4030    1.9160    3.7520 ha        1 PD7      0.109000
     28 H1AA        0.0750    0.3300    3.6890 ha        1 PD7      0.109000
     29 H2''       -2.0560    0.8050    4.8190 hc        1 PD7      0.091000
     30 H2AA       -1.5570    2.3210    5.0200 hc        1 PD7      0.091000
     31 H3''        0.2910    1.5140    6.3120 hc        1 PD7      0.075500
     32 H3AA       -0.2500    0.0140    6.1480 hc        1 PD7      0.075500
     33 H4''       -1.5800    2.1080    7.5410 hc        1 PD7      0.078000
     34 H4AA       -2.2480    0.6900    7.2780 hc        1 PD7      0.078000
     35 H5''        0.1380    1.0730    8.8010 hc        1 PD7      0.075000
     36 H5AA       -0.5510   -0.3450    8.5500 hc        1 PD7      0.075000
     37 H6''       -1.6690    1.7850   10.0450 hc        1 PD7      0.065333
     38 H6AA       -1.2120    0.3710   10.6320 hc        1 PD7      0.065333
     39 H6AB       -2.4850    0.4580    9.6760 hc        1 PD7      0.065333
     40 H3         -1.7650    0.4430   -0.0060 h1        1 PD7      0.190500
     41 H3A        -2.0760    2.0140    0.0100 h1        1 PD7      0.190500
     42 H2          0.3750    1.6650   -1.0970 h1        1 PD7      0.116000
     43 H1         -1.7710    3.1860   -1.5390 h1        1 PD7      0.046000
     44 H1A        -1.5740    2.3620   -2.9200 h1        1 PD7      0.046000
     45 H1'         1.5630   -1.7890   -2.4540 hc        1 PD7      0.097000
     46 H1'A        0.0340   -2.0160   -2.8160 hc        1 PD7      0.097000
     47 H2'         1.8860   -1.0270   -4.7200 hc        1 PD7      0.104000
     48 H2'A        0.3990   -1.5070   -5.0400 hc        1 PD7      0.104000
     49 H3'         2.6220   -3.2110   -4.3510 hc        1 PD7      0.069000
     50 H3'A        1.1120   -3.7640   -4.2660 hc        1 PD7      0.069000
     51 H4'         0.8190   -3.4940   -6.5760 hc        1 PD7      0.086000
     52 H4'A        2.2020   -2.7040   -6.7140 hc        1 PD7      0.086000
     53 H5'         2.0930   -5.4600   -5.9080 hc        1 PD7      0.071000
     54 H5'A        3.4280   -4.6480   -6.3010 hc        1 PD7      0.071000
     55 H6'         2.4750   -4.3940   -8.5540 hc        1 PD7      0.066333
     56 H6'A        1.3600   -5.4830   -8.1080 hc        1 PD7      0.066333
     57 H6'B        2.9130   -5.9040   -8.1770 hc        1 PD7      0.066333
@<TRIPOS>BOND
     1    1    2 1   
     2    2    9 1   
     3    3    4 1   
     4    3   27 1   
     5    3   28 1   
     6    4    5 1   
     7    4   29 1   
     8    4   30 1   
     9    5    6 1   
    10    5   31 1   
    11    5   32 1   
    12    6    7 1   
    13    6   33 1   
    14    6   34 1   
    15    7    8 1   
    16    7   35 1   
    17    7   36 1   
    18    8   37 1   
    19    8   38 1   
    20    8   39 1   
    21    9   10 1   
    22   10   11 1   
    23   10   40 1   
    24   10   41 1   
    25   11   12 1   
    26   11   18 1   
    27   11   42 1   
    28   12   13 1   
    29   12   43 1   
    30   12   44 1   
    31   13   14 1   
    32   14   15 1   
    33   14   16 1   
    34   14   17 1   
    35   18   19 1   
    36   19   20 1   
    37   19   21 1   
    38   21   22 1   
    39   21   45 1   
    40   21   46 1   
    41   22   23 1   
    42   22   47 1   
    43   22   48 1   
    44   23   24 1   
    45   23   49 1   
    46   23   50 1   
    47   24   25 1   
    48   24   51 1   
    49   24   52 1   
    50   25   26 1   
    51   25   53 1   
    52   25   54 1   
    53   26   55 1   
    54   26   56 1   
    55   26   57 1   
@<TRIPOS>SUBSTRUCTURE
     1 PD7         1 TEMP              0 ****  ****    0 ROOT
