@<TRIPOS>MOLECULE
PD7
   57    56     1     0     0
SMALL
bcc


@<TRIPOS>ATOM
      1 O''        -0.2960    1.4750   -1.7970 o         1 PD7     -0.617000
      2 C''         0.4630    0.4940   -1.6980 c         1 PD7      0.664100
      3 C1''        1.3300    0.1260   -0.5510 c3        1 PD7     -0.223400
      4 C2''        1.0880    0.9750    0.6750 c3        1 PD7     -0.039400
      5 C3''        2.1750    0.7270    1.7000 c3        1 PD7     -0.114400
      6 C4''        1.8130    1.3200    3.0440 c3        1 PD7     -0.061400
      7 C5''        2.9010    1.0500    4.0620 c3        1 PD7     -0.089400
      8 C6''        2.5310    1.5640    5.4290 c3        1 PD7     -0.084100
      9 O3          0.4700   -0.2270   -2.8660 os        1 PD7     -0.444900
     10 C3          1.1220   -1.4980   -2.9050 c3        1 PD7      0.059400
     11 C2          2.5850   -1.4070   -3.3410 c3        1 PD7      0.075100
     12 C1          3.5250   -2.2060   -2.3940 c3        1 PD7      0.230400
     13 O3P         3.4000   -1.8500   -1.0850 os        1 PD7     -0.562200
     14 P           2.8250   -3.0940   -0.0120 p5        1 PD7      1.316900
     15 O4P         1.3520   -3.0460   -0.3590 o         1 PD7     -0.914167
     16 O1P         3.5670   -4.3030   -0.4960 o         1 PD7     -0.914167
     17 O2P         3.1630   -2.4910    1.3190 o         1 PD7     -0.914167
     18 O2          3.0120   -0.0280   -3.2990 os        1 PD7     -0.391900
     19 C'          3.1260    0.6660   -4.4510 c         1 PD7      0.639100
     20 O'          3.0140    0.1180   -5.5560 o         1 PD7     -0.602000
     21 C1'         3.4090    2.1220   -4.1980 c3        1 PD7     -0.140400
     22 C2'         4.1590    2.7480   -5.3510 c3        1 PD7     -0.074400
     23 C3'         4.3150    4.2400   -5.1490 c3        1 PD7     -0.079400
     24 C4'         5.0790    4.8710   -6.2930 c3        1 PD7     -0.078400
     25 C5'         5.2340    6.3640   -6.0970 c3        1 PD7     -0.081400
     26 C6'         5.9950    6.9980   -7.2330 c3        1 PD7     -0.089100
     27 H1''        1.2180   -0.9840   -0.2810 hc        1 PD7      0.156200
     28 H1AA        2.4010    0.2130   -0.9010 hc        1 PD7      0.156200
     29 H2''        0.0860    0.7220    1.1100 hc        1 PD7      0.013700
     30 H2AA        1.0570    2.0620    0.3960 hc        1 PD7      0.013700
     31 H3''        3.1360    1.1770    1.3380 hc        1 PD7      0.091200
     32 H3AA        2.3630   -0.3870    1.8020 hc        1 PD7      0.091200
     33 H4''        0.8490    0.8730    3.4030 hc        1 PD7      0.012700
     34 H4AA        1.6500    2.4260    2.9500 hc        1 PD7      0.012700
     35 H5''        3.0920   -0.0570    4.1050 hc        1 PD7      0.054200
     36 H5AA        3.8560    1.5330    3.7240 hc        1 PD7      0.054200
     37 H6''        3.3500    1.3610    6.1610 hc        1 PD7      0.013033
     38 H6AA        1.6010    1.0660    5.7970 hc        1 PD7      0.013033
     39 H6AB        2.3480    2.6660    5.4040 hc        1 PD7      0.013033
     40 H3          0.5330   -2.0510   -3.6870 h1        1 PD7      0.112700
     41 H3A         1.0620   -2.0530   -1.9050 h1        1 PD7      0.112700
     42 H2          2.7040   -1.8020   -4.3860 h1        1 PD7      0.037700
     43 H1          3.2880   -3.2990   -2.5450 h1        1 PD7      0.006700
     44 H1A         4.5760   -1.9980   -2.7560 h1        1 PD7      0.006700
     45 H1'         2.4170    2.6280   -4.0470 hc        1 PD7      0.079200
     46 H1'A        3.9890    2.2230   -3.2430 hc        1 PD7      0.079200
     47 H2'         3.6080    2.5440   -6.3080 hc        1 PD7      0.048700
     48 H2'A        5.1680    2.2690   -5.4460 hc        1 PD7      0.048700
     49 H3'         4.8530    4.4340   -4.1840 hc        1 PD7      0.039700
     50 H3'A        3.3030    4.7160   -5.0640 hc        1 PD7      0.039700
     51 H4'         4.5420    4.6730   -7.2580 hc        1 PD7      0.036700
     52 H4'A        6.0920    4.3960   -6.3760 hc        1 PD7      0.036700
     53 H5'         4.2200    6.8370   -6.0130 hc        1 PD7      0.037200
     54 H5'A        5.7690    6.5600   -5.1300 hc        1 PD7      0.037200
     55 H6'         7.0170    6.5570   -7.3170 hc        1 PD7      0.025367
     56 H6'A        6.0980    8.0980   -7.0690 hc        1 PD7      0.025367
     57 H6'B        5.4640    6.8340   -8.2020 hc        1 PD7      0.025367
@<TRIPOS>BOND
     1    1    2 2   
     2    2    3 1   
     3    2    9 1   
     4    3    4 1   
     5    3   27 1   
     6    3   28 1   
     7    4    5 1   
     8    4   29 1   
     9    4   30 1   
    10    5    6 1   
    11    5   31 1   
    12    5   32 1   
    13    6    7 1   
    14    6   33 1   
    15    6   34 1   
    16    7    8 1   
    17    7   35 1   
    18    7   36 1   
    19    8   37 1   
    20    8   38 1   
    21    8   39 1   
    22    9   10 1   
    23   10   11 1   
    24   10   40 1   
    25   10   41 1   
    26   11   12 1   
    27   11   18 1   
    28   11   42 1   
    29   12   13 1   
    30   12   43 1   
    31   12   44 1   
    32   13   14 1   
    33   14   15 1   
    34   14   16 1   
    35   14   17 1   
    36   18   19 1   
    37   19   20 2   
    38   19   21 1   
    39   21   22 1   
    40   21   45 1   
    41   21   46 1   
    42   22   23 1   
    43   22   47 1   
    44   22   48 1   
    45   23   24 1   
    46   23   49 1   
    47   23   50 1   
    48   24   25 1   
    49   24   51 1   
    50   24   52 1   
    51   25   26 1   
    52   25   53 1   
    53   25   54 1   
    54   26   55 1   
    55   26   56 1   
    56   26   57 1   
@<TRIPOS>SUBSTRUCTURE
     1 PD7         1 TEMP              0 ****  ****    0 ROOT
