@<TRIPOS>MOLECULE
PD7
   57    56     1     0     0
SMALL
bcc


@<TRIPOS>ATOM
      1 O''        -0.8120   -2.0760    2.8180 o         1 PD7     -0.617000
      2 C''        -1.0400   -0.9540    2.3320 c         1 PD7      0.664100
      3 C1''       -1.9360   -0.6170    1.1980 c3        1 PD7     -0.223400
      4 C2''       -2.7760   -1.7840    0.7370 c3        1 PD7     -0.039400
      5 C3''       -3.4570   -1.4460   -0.5740 c3        1 PD7     -0.114400
      6 C4''       -4.5320   -2.4550   -0.9150 c3        1 PD7     -0.061400
      7 C5''       -5.2140   -2.0960   -2.2180 c3        1 PD7     -0.089400
      8 C6''       -6.3400   -3.0440   -2.5420 c3        1 PD7     -0.084100
      9 O3         -0.2700    0.0010    2.9500 os        1 PD7     -0.444900
     10 C3         -0.5120    1.3830    2.6790 c3        1 PD7      0.059400
     11 C2          0.3310    1.9260    1.5260 c3        1 PD7      0.075100
     12 C1         -0.5250    2.7270    0.5050 c3        1 PD7      0.230400
     13 O3P        -1.5870    2.0230    0.0230 os        1 PD7     -0.562200
     14 P          -3.1590    2.6650    0.4070 p5        1 PD7      1.316900
     15 O4P        -3.2640    2.1960    1.8430 o         1 PD7     -0.914167
     16 O1P        -2.9600    4.1380    0.2160 o         1 PD7     -0.914167
     17 O2P        -4.0150    1.8960   -0.5550 o         1 PD7     -0.914167
     18 O2          0.9250    0.8220    0.8070 os        1 PD7     -0.391900
     19 C'          2.2310    0.5360    0.9930 c         1 PD7      0.639100
     20 O'          2.9730    1.2760    1.6520 o         1 PD7     -0.602000
     21 C1'         2.6230   -0.7420    0.3040 c3        1 PD7     -0.140400
     22 C2'         4.0900   -0.7450   -0.0620 c3        1 PD7     -0.074400
     23 C3'         4.5050   -2.0860   -0.6280 c3        1 PD7     -0.079400
     24 C4'         5.9700   -2.0900   -1.0110 c3        1 PD7     -0.078400
     25 C5'         6.3900   -3.4320   -1.5730 c3        1 PD7     -0.081400
     26 C6'         7.8470   -3.4420   -1.9570 c3        1 PD7     -0.089100
     27 H1''       -2.6140    0.2730    1.4500 hc        1 PD7      0.156200
     28 H1AA       -1.2830   -0.2300    0.3600 hc        1 PD7      0.156200
     29 H2''       -2.1410   -2.7010    0.6200 hc        1 PD7      0.013700
     30 H2AA       -3.5460   -2.0190    1.5180 hc        1 PD7      0.013700
     31 H3''       -3.9020   -0.4050   -0.5220 hc        1 PD7      0.091200
     32 H3AA       -2.6920   -1.4220   -1.3930 hc        1 PD7      0.091200
     33 H4''       -4.0900   -3.4840   -0.9900 hc        1 PD7      0.012700
     34 H4AA       -5.2940   -2.4840   -0.0920 hc        1 PD7      0.012700
     35 H5''       -5.6030   -1.0450   -2.1470 hc        1 PD7      0.054200
     36 H5AA       -4.4600   -2.1110   -3.0490 hc        1 PD7      0.054200
     37 H6''       -5.9650   -4.0930   -2.6260 hc        1 PD7      0.013033
     38 H6AA       -7.1190   -3.0160   -1.7420 hc        1 PD7      0.013033
     39 H6AB       -6.8220   -2.7640   -3.5100 hc        1 PD7      0.013033
     40 H3         -1.6180    1.6020    2.4730 h1        1 PD7      0.112700
     41 H3A        -0.1970    1.8780    3.6380 h1        1 PD7      0.112700
     42 H2          1.1450    2.5930    1.9190 h1        1 PD7      0.037700
     43 H1         -0.8620    3.6680    1.0310 h1        1 PD7      0.006700
     44 H1A         0.1770    3.0020   -0.3380 h1        1 PD7      0.006700
     45 H1'         2.3890   -1.5830    1.0100 hc        1 PD7      0.079200
     46 H1'A        1.9860   -0.8790   -0.6090 hc        1 PD7      0.079200
     47 H2'         4.2910    0.0630   -0.8140 hc        1 PD7      0.048700
     48 H2'A        4.7010   -0.5050    0.8490 hc        1 PD7      0.048700
     49 H3'         4.3130   -2.8900    0.1300 hc        1 PD7      0.039700
     50 H3'A        3.8800   -2.3240   -1.5280 hc        1 PD7      0.039700
     51 H4'         6.1610   -1.2880   -1.7720 hc        1 PD7      0.036700
     52 H4'A        6.5940   -1.8470   -0.1110 hc        1 PD7      0.036700
     53 H5'         6.1960   -4.2320   -0.8110 hc        1 PD7      0.037200
     54 H5'A        5.7620   -3.6730   -2.4710 hc        1 PD7      0.037200
     55 H6'         8.0540   -2.6660   -2.7340 hc        1 PD7      0.025367
     56 H6'A        8.4900   -3.2260   -1.0700 hc        1 PD7      0.025367
     57 H6'B        8.1360   -4.4390   -2.3690 hc        1 PD7      0.025367
@<TRIPOS>BOND
     1    1    2 2   
     2    2    3 1   
     3    2    9 1   
     4    3    4 1   
     5    3   27 1   
     6    3   28 1   
     7    4    5 1   
     8    4   29 1   
     9    4   30 1   
    10    5    6 1   
    11    5   31 1   
    12    5   32 1   
    13    6    7 1   
    14    6   33 1   
    15    6   34 1   
    16    7    8 1   
    17    7   35 1   
    18    7   36 1   
    19    8   37 1   
    20    8   38 1   
    21    8   39 1   
    22    9   10 1   
    23   10   11 1   
    24   10   40 1   
    25   10   41 1   
    26   11   12 1   
    27   11   18 1   
    28   11   42 1   
    29   12   13 1   
    30   12   43 1   
    31   12   44 1   
    32   13   14 1   
    33   14   15 1   
    34   14   16 1   
    35   14   17 1   
    36   18   19 1   
    37   19   20 2   
    38   19   21 1   
    39   21   22 1   
    40   21   45 1   
    41   21   46 1   
    42   22   23 1   
    43   22   47 1   
    44   22   48 1   
    45   23   24 1   
    46   23   49 1   
    47   23   50 1   
    48   24   25 1   
    49   24   51 1   
    50   24   52 1   
    51   25   26 1   
    52   25   53 1   
    53   25   54 1   
    54   26   55 1   
    55   26   56 1   
    56   26   57 1   
@<TRIPOS>SUBSTRUCTURE
     1 PD7         1 TEMP              0 ****  ****    0 ROOT
