@<TRIPOS>MOLECULE
PD7
   57    56     1     0     0
SMALL
bcc


@<TRIPOS>ATOM
      1 O''        -0.2980    1.4780   -1.7760 o         1 PD7     -0.617000
      2 C''         0.4610    0.4950   -1.6900 c         1 PD7      0.664100
      3 C1''        1.3350    0.1170   -0.5510 c3        1 PD7     -0.223400
      4 C2''        1.1020    0.9560    0.6820 c3        1 PD7     -0.039400
      5 C3''        2.1950    0.6980    1.6990 c3        1 PD7     -0.114400
      6 C4''        1.8420    1.2800    3.0500 c3        1 PD7     -0.061400
      7 C5''        2.9360    1.0010    4.0590 c3        1 PD7     -0.089400
      8 C6''        2.5750    1.5040    5.4330 c3        1 PD7     -0.084100
      9 O3          0.4600   -0.2160   -2.8650 os        1 PD7     -0.444900
     10 C3          1.1110   -1.4860   -2.9180 c3        1 PD7      0.059400
     11 C2          2.5710   -1.3940   -3.3620 c3        1 PD7      0.075100
     12 C1          3.5160   -2.2010   -2.4280 c3        1 PD7      0.230400
     13 O3P         3.4000   -1.8560   -1.1150 os        1 PD7     -0.562200
     14 P           2.8300   -3.1090   -0.0490 p5        1 PD7      1.316900
     15 O4P         1.3550   -3.0560   -0.3860 o         1 PD7     -0.914167
     16 O1P         3.5680   -4.3140   -0.5480 o         1 PD7     -0.914167
     17 O2P         3.1780   -2.5180    1.2850 o         1 PD7     -0.914167
     18 O2          3.0000   -0.0150   -3.3110 os        1 PD7     -0.391900
     19 C'          3.1080    0.6880   -4.4580 c         1 PD7      0.639100
     20 O'          2.9890    0.1500   -5.5670 o         1 PD7     -0.602000
     21 C1'         3.3930    2.1410   -4.1940 c3        1 PD7     -0.140400
     22 C2'         4.1390    2.7760   -5.3460 c3        1 PD7     -0.074400
     23 C3'         4.2990    4.2660   -5.1330 c3        1 PD7     -0.079400
     24 C4'         5.0590    4.9050   -6.2750 c3        1 PD7     -0.078400
     25 C5'         5.2170    6.3970   -6.0680 c3        1 PD7     -0.081400
     26 C6'         5.9740    7.0380   -7.2020 c3        1 PD7     -0.089100
     27 H1''        1.2240   -0.9950   -0.2900 hc        1 PD7      0.156200
     28 H1AA        2.4040    0.2060   -0.9070 hc        1 PD7      0.156200
     29 H2''        0.1020    0.7000    1.1220 hc        1 PD7      0.013700
     30 H2AA        1.0700    2.0450    0.4140 hc        1 PD7      0.013700
     31 H3''        3.1540    1.1500    1.3350 hc        1 PD7      0.091200
     32 H3AA        2.3830   -0.4160    1.7900 hc        1 PD7      0.091200
     33 H4''        0.8790    0.8320    3.4120 hc        1 PD7      0.012700
     34 H4AA        1.6790    2.3880    2.9670 hc        1 PD7      0.012700
     35 H5''        3.1260   -0.1060    4.0910 hc        1 PD7      0.054200
     36 H5AA        3.8890    1.4860    3.7190 hc        1 PD7      0.054200
     37 H6''        3.3990    1.2940    6.1570 hc        1 PD7      0.013033
     38 H6AA        1.6470    1.0040    5.8020 hc        1 PD7      0.013033
     39 H6AB        2.3930    2.6060    5.4170 hc        1 PD7      0.013033
     40 H3          0.5170   -2.0330   -3.7000 h1        1 PD7      0.112700
     41 H3A         1.0560   -2.0500   -1.9220 h1        1 PD7      0.112700
     42 H2          2.6830   -1.7790   -4.4110 h1        1 PD7      0.037700
     43 H1          3.2770   -3.2930   -2.5870 h1        1 PD7      0.006700
     44 H1A         4.5650   -1.9920   -2.7950 h1        1 PD7      0.006700
     45 H1'         2.4040    2.6480   -4.0350 hc        1 PD7      0.079200
     46 H1'A        3.9780    2.2350   -3.2410 hc        1 PD7      0.079200
     47 H2'         3.5840    2.5800   -6.3010 hc        1 PD7      0.048700
     48 H2'A        5.1480    2.2970   -5.4490 hc        1 PD7      0.048700
     49 H3'         4.8410    4.4520   -4.1680 hc        1 PD7      0.039700
     50 H3'A        3.2880    4.7430   -5.0400 hc        1 PD7      0.039700
     51 H4'         4.5180    4.7150   -7.2390 hc        1 PD7      0.037200
     52 H4'A        6.0720    4.4300   -6.3650 hc        1 PD7      0.037200
     53 H5'         4.2030    6.8700   -5.9760 hc        1 PD7      0.037200
     54 H5'A        5.7550    6.5840   -5.1010 hc        1 PD7      0.037200
     55 H6'         6.9960    6.5970   -7.2930 hc        1 PD7      0.025367
     56 H6'A        6.0780    8.1370   -7.0300 hc        1 PD7      0.025367
     57 H6'B        5.4390    6.8820   -8.1700 hc        1 PD7      0.025367
@<TRIPOS>BOND
     1    1    2 2   
     2    2    3 1   
     3    2    9 1   
     4    3    4 1   
     5    3   27 1   
     6    3   28 1   
     7    4    5 1   
     8    4   29 1   
     9    4   30 1   
    10    5    6 1   
    11    5   31 1   
    12    5   32 1   
    13    6    7 1   
    14    6   33 1   
    15    6   34 1   
    16    7    8 1   
    17    7   35 1   
    18    7   36 1   
    19    8   37 1   
    20    8   38 1   
    21    8   39 1   
    22    9   10 1   
    23   10   11 1   
    24   10   40 1   
    25   10   41 1   
    26   11   12 1   
    27   11   18 1   
    28   11   42 1   
    29   12   13 1   
    30   12   43 1   
    31   12   44 1   
    32   13   14 1   
    33   14   15 1   
    34   14   16 1   
    35   14   17 1   
    36   18   19 1   
    37   19   20 2   
    38   19   21 1   
    39   21   22 1   
    40   21   45 1   
    41   21   46 1   
    42   22   23 1   
    43   22   47 1   
    44   22   48 1   
    45   23   24 1   
    46   23   49 1   
    47   23   50 1   
    48   24   25 1   
    49   24   51 1   
    50   24   52 1   
    51   25   26 1   
    52   25   53 1   
    53   25   54 1   
    54   26   55 1   
    55   26   56 1   
    56   26   57 1   
@<TRIPOS>SUBSTRUCTURE
     1 PD7         1 TEMP              0 ****  ****    0 ROOT
