@<TRIPOS>MOLECULE
PD8
   38    40     1     0     0
SMALL
bcc


@<TRIPOS>ATOM
      1 O1          0.0000    0.0000    0.0000 o         1 PD8     -0.638500
      2 C2          1.2240    0.0000    0.0000 c         1 PD8      0.535000
      3 N3          2.0210    0.0000    1.1330 ns        1 PD8     -0.101400
      4 C4          3.4140    0.0020    1.1140 cc        1 PD8      0.316800
      5 N5          4.0260    0.0030    2.3390 nv        1 PD8     -0.583800
      6 N6          4.0850    0.0040   -0.0060 nd        1 PD8     -0.582700
      7 C7          3.3640    0.0040   -1.2100 ca        1 PD8      0.406000
      8 N8          4.0860    0.0060   -2.3500 nb        1 PD8     -0.556000
      9 C9          3.3870    0.0060   -3.5050 ca        1 PD8      0.330900
     10 C10         2.0090    0.0040   -3.5310 ca        1 PD8      0.154300
     11 C11         1.2770    0.0080   -4.8270 c3        1 PD8      0.138500
     12 N12         1.0090   -1.3240   -5.3110 nu        1 PD8     -0.425600
     13 C13         0.3890   -1.5940   -6.5220 ca        1 PD8      0.054600
     14 C14         0.1570   -2.9190   -6.9340 ca        1 PD8     -0.230000
     15 C15        -0.4670   -3.1910   -8.1510 ca        1 PD8     -0.004000
     16 C16        -0.8680   -2.1420   -8.9790 ca        1 PD8     -0.176600
     17 C17        -1.5190   -2.4250  -10.2480 c         1 PD8      0.769700
     18 O19        -1.7620   -3.5570  -10.6840 o         1 PD8     -0.633000
     19 C20        -0.6460   -0.8210   -8.5870 ca        1 PD8     -0.004000
     20 C21        -0.0240   -0.5490   -7.3700 ca        1 PD8     -0.230000
     21 N22         1.2750    0.0020   -2.4020 nb        1 PD8     -0.436000
     22 C23         1.9820    0.0020   -1.2560 ca        1 PD8      0.126500
     23 P23        -2.5710   -1.2130  -12.3630 p5        1 PD8      0.713900
     24 O24        -2.5380    0.3670  -12.7080 o         1 PD8     -0.650833
     25 O25        -3.9310   -1.8450  -12.4110 o         1 PD8     -0.650833
     26 O26        -1.4780   -1.8400  -13.3760 o         1 PD8     -0.650833
     27 O27        -1.8400   -1.2850  -10.9230 os        1 PD8     -0.427500
     28 H3          1.5670   -0.0020    2.0250 hn        1 PD8      0.162500
     29 H5N1        4.2670   -0.8630    2.7790 hn        1 PD8      0.267300
     30 H5N2        4.2630    0.8700    2.7790 hn        1 PD8      0.267300
     31 H9          3.9280    0.0080   -4.4430 h4        1 PD8     -0.012900
     32 H111        0.3370    0.5290   -4.6970 h1        1 PD8      0.016700
     33 H112        1.8720    0.5350   -5.5630 h1        1 PD8      0.016700
     34 H12         1.2870   -2.0990   -4.7410 hn        1 PD8      0.274800
     35 H14         0.4660   -3.7390   -6.2970 ha        1 PD8      0.093000
     36 H15        -0.6390   -4.2160   -8.4550 ha        1 PD8      0.128000
     37 H20        -0.9600   -0.0070   -9.2290 ha        1 PD8      0.128000
     38 H21         0.1440    0.4790   -7.0730 ha        1 PD8      0.093000
@<TRIPOS>BOND
     1    1    2 2   
     2    2    3 1   
     3    2   22 1   
     4    3    4 1   
     5    3   28 1   
     6    4    5 1   
     7    4    6 2   
     8    5   29 1   
     9    5   30 1   
    10    6    7 1   
    11    7    8 ar  
    12    7   22 ar  
    13    8    9 ar  
    14    9   10 ar  
    15    9   31 1   
    16   10   11 1   
    17   10   21 ar  
    18   11   12 1   
    19   11   32 1   
    20   11   33 1   
    21   12   13 1   
    22   12   34 1   
    23   13   14 ar  
    24   13   20 ar  
    25   14   15 ar  
    26   14   35 1   
    27   15   16 ar  
    28   15   36 1   
    29   16   17 1   
    30   16   19 ar  
    31   17   18 2   
    32   17   27 1   
    33   19   20 ar  
    34   19   37 1   
    35   20   38 1   
    36   21   22 ar  
    37   23   24 1   
    38   23   25 1   
    39   23   26 1   
    40   23   27 1   
@<TRIPOS>SUBSTRUCTURE
     1 PD8         1 TEMP              0 ****  ****    0 ROOT
