@<TRIPOS>MOLECULE
PD8
   38    39     1     0     0
SMALL
bcc


@<TRIPOS>ATOM
      1 O1          7.3670   -0.3630   -4.1840 o         1 PD8     -0.600500
      2 C2          6.9700    0.3180   -3.2260 c         1 PD8      0.620000
      3 N3          7.9470    1.0110   -2.4850 n         1 PD8     -0.508400
      4 C4          7.6010    1.7830   -1.3570 cc        1 PD8      0.637800
      5 N5          8.6860    2.3370   -0.6080 nh        1 PD8     -0.874800
      6 N6          6.3480    1.9790   -0.9410 nd        1 PD8     -0.713700
      7 C7          5.3150    1.3260   -1.6280 ca        1 PD8      0.533000
      8 N8          4.0150    1.5090   -1.1820 nb        1 PD8     -0.627000
      9 C9          3.0630    0.8820   -1.8630 ca        1 PD8      0.365900
     10 C10         3.3280    0.0470   -3.0120 ca        1 PD8      0.296300
     11 C11         2.1440   -0.6200   -3.6900 c3        1 PD8      0.117500
     12 N12         1.2080    0.3780   -4.1650 nh        1 PD8     -0.715600
     13 C13        -0.1720    0.0580   -3.9850 ca        1 PD8      0.045600
     14 C14        -1.0630    0.0990   -5.0760 ca        1 PD8     -0.194000
     15 C15        -2.4200   -0.1470   -4.8760 ca        1 PD8     -0.086000
     16 C16        -2.9160   -0.4550   -3.6080 ca        1 PD8     -0.137600
     17 C17        -4.3900   -0.7370   -3.4190 c         1 PD8      0.961200
     18 O19        -5.1800   -0.4790   -4.3680 o         1 PD8     -0.855800
     19 C20        -2.0360   -0.4970   -2.5210 ca        1 PD8     -0.086000
     20 C21        -0.6800   -0.2380   -2.7030 ca        1 PD8     -0.194000
     21 N22         4.5730   -0.1360   -3.4620 nb        1 PD8     -0.584000
     22 C23         5.5710    0.4960   -2.7740 ca        1 PD8      0.180500
     23 P23        -4.5500   -2.0910   -0.3520 p4        1 PD8      1.619300
     24 O24        -3.4770   -1.1580    0.0900 o         1 PD8     -0.863833
     25 O25        -4.1290   -3.4430   -0.7860 o         1 PD8     -0.863833
     26 O26        -5.9080   -1.9030    0.2060 o         1 PD8     -0.912633
     27 O27        -4.7880   -1.2220   -2.3080 o         1 PD8     -0.855800
     28 H3          8.9040    0.8550   -2.7140 hn        1 PD8      0.329500
     29 H5N1        8.3720    2.8450    0.1960 hn        1 PD8      0.398800
     30 H5N2        9.2990    2.8850   -1.1750 hn        1 PD8      0.398800
     31 H9          2.0170    1.0260   -1.5210 h4        1 PD8      0.078100
     32 H111        2.5120   -1.2890   -4.5220 h1        1 PD8      0.066700
     33 H112        1.6570   -1.2820   -2.9140 h1        1 PD8      0.066700
     34 H12         1.3990    0.6100   -5.1210 hn        1 PD8      0.362800
     35 H14        -0.6980    0.3330   -6.0860 ha        1 PD8      0.101000
     36 H15        -3.1260   -0.1050   -5.7210 ha        1 PD8      0.196500
     37 H20        -2.4530   -0.7510   -1.5070 ha        1 PD8      0.196500
     38 H21        -0.0120   -0.2670   -1.8310 ha        1 PD8      0.101000
@<TRIPOS>BOND
     1    1    2 2   
     2    2    3 1   
     3    2   22 1   
     4    3    4 1   
     5    3   28 1   
     6    4    5 1   
     7    4    6 2   
     8    5   29 1   
     9    5   30 1   
    10    6    7 1   
    11    7    8 ar  
    12    7   22 ar  
    13    8    9 ar  
    14    9   10 ar  
    15    9   31 1   
    16   10   11 1   
    17   10   21 ar  
    18   11   12 1   
    19   11   32 1   
    20   11   33 1   
    21   12   13 1   
    22   12   34 1   
    23   13   14 ar  
    24   13   20 ar  
    25   14   15 ar  
    26   14   35 1   
    27   15   16 ar  
    28   15   36 1   
    29   16   17 1   
    30   16   19 ar  
    31   17   18 1   
    32   17   27 1   
    33   19   20 ar  
    34   19   37 1   
    35   20   38 1   
    36   21   22 ar  
    37   23   24 1   
    38   23   25 1   
    39   23   26 2   
@<TRIPOS>SUBSTRUCTURE
     1 PD8         1 TEMP              0 ****  ****    0 ROOT
