@<TRIPOS>MOLECULE
PD8
   38    32     1     0     0
SMALL
bcc


@<TRIPOS>ATOM
      1 O1         -0.5240    1.0430    5.0000 o         1 PD8     -0.322000
      2 C2          0.7170    0.8700    5.0060 c1        1 PD8      0.367000
      3 N3          1.3800    0.8250    6.1810 n2        1 PD8     -0.349000
      4 C4          2.7640    0.8220    6.1990 c1        1 PD8      0.192000
      5 N5          3.6500    0.8530    7.3090 n3        1 PD8     -0.314000
      6 N6          3.4710    0.8650    5.0160 n1        1 PD8     -0.209000
      7 C7          2.8020    0.9100    3.8160 c1        1 PD8      0.049000
      8 N8          3.5120    0.9160    2.6260 n1        1 PD8     -0.105000
      9 C9          2.8580    0.9250    1.4480 c1        1 PD8     -0.038000
     10 C10         1.4680    0.9290    1.4240 c1        1 PD8     -0.061000
     11 C11         0.6360    1.0750    0.1160 c2        1 PD8     -0.019000
     12 N12         0.0720   -0.2000   -0.2500 n3        1 PD8     -0.279000
     13 C13        -0.6290   -0.3360   -1.5080 c2        1 PD8     -0.036000
     14 C14        -1.9950   -0.5550   -1.5200 c2        1 PD8     -0.188000
     15 C15        -2.6590   -0.7440   -2.7320 c1        1 PD8     -0.074000
     16 C16        -1.9480   -0.7130   -3.9280 c1        1 PD8     -0.117000
     17 C17        -2.6730   -0.8890   -5.2380 c2        1 PD8      0.410000
     18 O19        -3.0090    0.1090   -5.8980 o         1 PD8     -0.555000
     19 C20        -0.5780   -0.4930   -3.9180 c1        1 PD8     -0.097000
     20 C21         0.0860   -0.3050   -2.7170 c1        1 PD8     -0.203000
     21 N22         0.7670    0.9230    2.5930 n2        1 PD8     -0.060000
     22 C23         1.4360    0.9130    3.7970 c1        1 PD8     -0.170000
     23 P23        -3.9640   -2.3030   -6.9780 p3        1 PD8      2.529000
     24 O24        -4.1900   -3.7710   -7.2970 os        1 PD8     -1.192000
     25 O25        -3.2320   -1.6510   -8.1150 o         1 PD8     -1.179000
     26 O26        -5.3220   -1.6080   -6.7730 o         1 PD8     -1.179000
     27 O27        -3.0930   -2.1780   -5.6480 os        1 PD8     -0.626000
     28 H3          0.9080    0.8370    6.9760 hn        1 PD8      0.244000
     29 H5N1        4.5920    0.8290    7.1670 hn        1 PD8      0.194500
     30 H5N2        3.3040    0.8620    8.1900 hn        1 PD8      0.194500
     31 H9          3.3730    0.9100    0.5910 ha        1 PD8      0.215000
     32 H111       -0.0930    1.7280    0.2640 h4        1 PD8      0.104000
     33 H112        1.2220    1.3960   -0.6130 h4        1 PD8      0.104000
     34 H12         0.0230   -0.8510    0.3550 hn        1 PD8      0.171000
     35 H14        -2.4840   -0.5750   -0.6980 ha        1 PD8      0.114000
     36 H15        -3.6430   -0.8130   -2.7480 ha        1 PD8      0.254000
     37 H20        -0.0630   -0.5120   -4.7780 ha        1 PD8      0.140000
     38 H21         1.0580   -0.0440   -2.7170 ha        1 PD8      0.089000
@<TRIPOS>BOND
     1    1    2 1   
     2    2    3 1   
     3    3   28 1   
     4    4    5 1   
     5    4    6 1   
     6    5   29 1   
     7    5   30 1   
     8    7    8 1   
     9    7   22 1   
    10    9   10 1   
    11    9   31 1   
    12   10   21 1   
    13   11   12 1   
    14   11   32 1   
    15   11   33 1   
    16   12   13 1   
    17   12   34 1   
    18   13   14 1   
    19   13   20 1   
    20   14   15 1   
    21   14   35 1   
    22   15   36 1   
    23   16   17 1   
    24   16   19 1   
    25   17   18 1   
    26   17   27 1   
    27   19   37 1   
    28   20   38 1   
    29   21   22 1   
    30   23   25 1   
    31   23   26 1   
    32   23   27 1   
@<TRIPOS>SUBSTRUCTURE
     1 PD8         1 TEMP              0 ****  ****    0 ROOT
