@<TRIPOS>MOLECULE
PDA
   36    36     1     0     0
SMALL
bcc


@<TRIPOS>ATOM
      1 N           0.0140   -0.1610    0.0590 ny        1 PDA     -0.743000
      2 N1         -4.7480    1.5750   -0.0130 nb        1 PDA     -0.651000
      3 C2         -4.0270    1.2530    1.1030 ca        1 PDA      0.272600
      4 C2A        -4.7440    1.0330    2.3930 c3        1 PDA     -0.131400
      5 C3         -2.6270    1.1190    1.0500 ca        1 PDA      0.006800
      6 O3A        -1.8460    0.7980    2.1430 oh        1 PDA     -0.526100
      7 C4         -1.9340    1.3250   -0.1670 ca        1 PDA     -0.208300
      8 C4A        -0.4460    1.2320   -0.2010 c3        1 PDA      0.178100
      9 C5         -2.6750    1.6500   -1.3050 ca        1 PDA     -0.061600
     10 C5A        -2.0430    1.8750   -2.6380 c3        1 PDA      0.188700
     11 OP4        -2.9600    2.0640   -3.6380 os        1 PDA     -0.550200
     12 P          -2.0160    2.2100   -5.1360 p5        1 PDA      1.306900
     13 OP1        -3.0710    2.4080   -6.1780 o         1 PDA     -0.919833
     14 OP2        -1.1610    3.3880   -4.7530 o         1 PDA     -0.919833
     15 OP3        -1.3030    0.8840   -5.0830 o         1 PDA     -0.919833
     16 C6         -4.0930    1.7600   -1.1550 ca        1 PDA      0.388200
     17 CA          1.4970   -0.3630    0.0620 c3        1 PDA     -0.038500
     18 CB          2.2960    0.8500    0.4920 c3        1 PDA     -0.097100
     19 C           1.8730   -1.5670    1.0280 c         1 PDA      0.922600
     20 OXT         0.9550   -2.0100    1.7700 o         1 PDA     -0.798800
     21 O           3.0580   -1.9590    0.9660 o         1 PDA     -0.798800
     22 HN         -0.3330   -0.4720    0.9870 hn        1 PDA      0.456300
     23 H2A1       -4.6050   -0.0250    2.7310 hc        1 PDA      0.033700
     24 H2A2       -5.8400    1.2270    2.2990 hc        1 PDA      0.033700
     25 H2A3       -4.3330    1.7150    3.1780 hc        1 PDA      0.033700
     26 HOA        -2.4310    0.5190    2.8610 ho        1 PDA      0.419000
     27 H4A1       -0.0150    1.8910    0.6060 hx        1 PDA      0.106200
     28 H4A2       -0.0430    1.5580   -1.2060 hx        1 PDA      0.106200
     29 H5A1       -1.3650    2.7850   -2.5750 h1        1 PDA      0.061700
     30 H5A2       -1.3930    0.9760   -2.8900 h1        1 PDA      0.061700
     31 H6         -4.6770    2.0110   -2.0680 h4        1 PDA      0.084100
     32 HA          1.7980   -0.6510   -0.9850 hx        1 PDA      0.094700
     33 HB1         1.9910    1.2030    1.5060 hc        1 PDA      0.050700
     34 HB2         2.1960    1.6910   -0.2360 hc        1 PDA      0.050700
     35 HB3         3.3690    0.5340    0.5370 hc        1 PDA      0.050700
     36 H2         -0.3920   -0.7810   -0.6470 hn        1 PDA      0.456300
@<TRIPOS>BOND
     1    1    8 1   
     2    1   17 1   
     3    1   22 1   
     4    1   36 1   
     5    2    3 ar  
     6    2   16 ar  
     7    3    4 1   
     8    3    5 ar  
     9    4   23 1   
    10    4   24 1   
    11    4   25 1   
    12    5    6 1   
    13    5    7 ar  
    14    6   26 1   
    15    7    8 1   
    16    7    9 ar  
    17    8   27 1   
    18    8   28 1   
    19    9   10 1   
    20    9   16 ar  
    21   10   11 1   
    22   10   29 1   
    23   10   30 1   
    24   11   12 1   
    25   12   13 1   
    26   12   14 1   
    27   12   15 1   
    28   16   31 1   
    29   17   18 1   
    30   17   19 1   
    31   17   32 1   
    32   18   33 1   
    33   18   34 1   
    34   18   35 1   
    35   19   20 1   
    36   19   21 1   
@<TRIPOS>SUBSTRUCTURE
     1 PDA         1 TEMP              0 ****  ****    0 ROOT
