@<TRIPOS>MOLECULE
PDA
   35    35     1     0     0
SMALL
bcc


@<TRIPOS>ATOM
      1 N          -0.9400    0.2780    2.4260 n3        1 PDA     -0.855200
      2 N1          3.4950    0.6100   -0.1660 nb        1 PDA     -0.687000
      3 C2          3.2150    0.5010    1.1580 ca        1 PDA      0.286600
      4 C2A         4.3000    0.6740    2.1670 c3        1 PDA     -0.102400
      5 C3          1.9070    0.2070    1.6220 ca        1 PDA      0.034800
      6 O3A         1.7920    0.0730    2.9860 oh        1 PDA     -0.558100
      7 C4          0.8440    0.0470    0.7030 ca        1 PDA     -0.153300
      8 C4A        -0.5550   -0.2920    1.1450 c3        1 PDA      0.206100
      9 C5          1.1470    0.1420   -0.6640 ca        1 PDA     -0.121600
     10 C5A         0.1340   -0.0530   -1.7690 c3        1 PDA      0.239700
     11 OP4         0.6510    0.2290   -3.0040 os        1 PDA     -0.568200
     12 P           0.3380   -0.9240   -4.2820 p5        1 PDA      1.314900
     13 OP1        -0.8220   -0.2970   -5.0050 o         1 PDA     -0.930500
     14 OP2         1.6560   -0.9120   -5.0060 o         1 PDA     -0.930500
     15 OP3         0.0150   -2.1800   -3.5140 o         1 PDA     -0.930500
     16 C6          2.4920    0.4270   -1.0290 ca        1 PDA      0.368200
     17 CA         -2.0190   -0.4280    3.1040 c3        1 PDA      0.058500
     18 CB         -1.4940   -1.6160    3.9080 c3        1 PDA     -0.071100
     19 C          -2.8680    0.4870    4.0460 c         1 PDA      0.910600
     20 OXT        -2.8540    1.7400    3.8770 o         1 PDA     -0.856300
     21 O          -3.5800   -0.0850    4.9250 o         1 PDA     -0.856300
     22 HN         -1.1750    1.2500    2.3400 hn        1 PDA      0.390800
     23 H2A1        4.5170   -0.3100    2.6520 hc        1 PDA      0.018367
     24 H2A2        5.2430    1.0660    1.7160 hc        1 PDA      0.018367
     25 H2A3        3.9570    1.3810    2.9630 hc        1 PDA      0.018367
     26 HOA         0.8410    0.0130    3.2110 ho        1 PDA      0.463000
     27 H4A1       -0.6100   -1.4190    1.2230 h1        1 PDA      0.045700
     28 H4A2       -1.2750    0.0100    0.3280 h1        1 PDA      0.045700
     29 H5A1       -0.2420   -1.1210   -1.7250 h1        1 PDA      0.027200
     30 H5A2       -0.7230    0.6550   -1.5340 h1        1 PDA      0.027200
     31 H6          2.7300    0.4960   -2.1120 h4        1 PDA      0.074100
     32 HA         -2.7630   -0.8340    2.3500 h1        1 PDA      0.014700
     33 HB1        -0.7160   -1.2880    4.6380 hc        1 PDA      0.019700
     34 HB2        -2.3470   -2.0620    4.4740 hc        1 PDA      0.019700
     35 HB3        -1.0480   -2.3910    3.2390 hc        1 PDA      0.019700
@<TRIPOS>BOND
     1    1    8 1   
     2    1   17 1   
     3    1   22 1   
     4    2    3 ar  
     5    2   16 ar  
     6    3    4 1   
     7    3    5 ar  
     8    4   23 1   
     9    4   24 1   
    10    4   25 1   
    11    5    6 1   
    12    5    7 ar  
    13    6   26 1   
    14    7    8 1   
    15    7    9 ar  
    16    8   27 1   
    17    8   28 1   
    18    9   10 1   
    19    9   16 ar  
    20   10   11 1   
    21   10   29 1   
    22   10   30 1   
    23   11   12 1   
    24   12   13 1   
    25   12   14 1   
    26   12   15 1   
    27   16   31 1   
    28   17   18 1   
    29   17   19 1   
    30   17   32 1   
    31   18   33 1   
    32   18   34 1   
    33   18   35 1   
    34   19   20 1   
    35   19   21 1   
@<TRIPOS>SUBSTRUCTURE
     1 PDA         1 TEMP              0 ****  ****    0 ROOT
