@<TRIPOS>MOLECULE
PDA
   36    36     1     0     0
SMALL
bcc


@<TRIPOS>ATOM
      1 N          -0.0030   -0.1740    0.0750 n4        1 PDA     -0.743000
      2 N1         -4.7360    1.6400   -0.0170 nb        1 PDA     -0.651000
      3 C2         -4.0180    1.3260    1.1030 ca        1 PDA      0.272600
      4 C2A        -4.7350    1.1410    2.3980 c3        1 PDA     -0.131400
      5 C3         -2.6200    1.1680    1.0500 ca        1 PDA      0.006800
      6 O3A        -1.8420    0.8540    2.1470 oh        1 PDA     -0.526100
      7 C4         -1.9270    1.3410   -0.1730 ca        1 PDA     -0.208300
      8 C4A        -0.4410    1.2220   -0.2080 c3        1 PDA      0.178100
      9 C5         -2.6650    1.6570   -1.3150 ca        1 PDA     -0.061600
     10 C5A        -2.0330    1.8480   -2.6530 c3        1 PDA      0.188700
     11 OP4        -2.9490    2.0350   -3.6540 os        1 PDA     -0.550200
     12 P          -2.0060    2.1380   -5.1570 p5        1 PDA      1.306900
     13 OP1        -3.0600    2.3350   -6.2000 o         1 PDA     -0.919833
     14 OP2        -1.1300    3.3070   -4.7960 o         1 PDA     -0.919833
     15 OP3        -1.3150    0.8010   -5.0810 o         1 PDA     -0.919833
     16 C6         -4.0800    1.7940   -1.1640 ca        1 PDA      0.388200
     17 CA          1.4760   -0.4010    0.0790 c3        1 PDA     -0.038500
     18 CB          2.2960    0.8060    0.4860 c3        1 PDA     -0.097100
     19 C           1.8340   -1.5930    1.0660 c         1 PDA      0.922600
     20 OXT         0.9110   -2.0080    1.8170 o         1 PDA     -0.798800
     21 O           3.0130   -2.0070    1.0080 o         1 PDA     -0.798800
     22 HN         -0.3540   -0.4630    1.0100 hn        1 PDA      0.456300
     23 H2A1       -4.3100    1.8310    3.1700 hc        1 PDA      0.033700
     24 H2A2       -4.6130    0.0870    2.7540 hc        1 PDA      0.033700
     25 H2A3       -5.8270    1.3530    2.3030 hc        1 PDA      0.033700
     26 HOA        -2.4290    0.5970    2.8700 ho        1 PDA      0.419000
     27 H4A1        0.0040    1.8870    0.5860 hx        1 PDA      0.106200
     28 H4A2       -0.0350    1.5240   -1.2190 hx        1 PDA      0.106200
     29 H5A1       -1.3980    0.9340   -2.8900 h1        1 PDA      0.061700
     30 H5A2       -1.3390    2.7470   -2.6070 h1        1 PDA      0.061700
     31 H6         -4.6630    2.0390   -2.0790 h4        1 PDA      0.084100
     32 HA          1.7700   -0.7120   -0.9630 hx        1 PDA      0.094700
     33 HB1         3.3640    0.4730    0.5350 hc        1 PDA      0.050700
     34 HB2         2.2090    1.6360   -0.2560 hc        1 PDA      0.050700
     35 HB3         1.9990    1.1810    1.4950 hc        1 PDA      0.050700
     36 H2         -0.4220   -0.7990   -0.6190 hn        1 PDA      0.456300
@<TRIPOS>BOND
     1    1    8 1   
     2    1   17 1   
     3    1   22 1   
     4    1   36 1   
     5    2    3 ar  
     6    2   16 ar  
     7    3    4 1   
     8    3    5 ar  
     9    4   23 1   
    10    4   24 1   
    11    4   25 1   
    12    5    6 1   
    13    5    7 ar  
    14    6   26 1   
    15    7    8 1   
    16    7    9 ar  
    17    8   27 1   
    18    8   28 1   
    19    9   10 1   
    20    9   16 ar  
    21   10   11 1   
    22   10   29 1   
    23   10   30 1   
    24   11   12 1   
    25   12   13 1   
    26   12   14 1   
    27   12   15 1   
    28   16   31 1   
    29   17   18 1   
    30   17   19 1   
    31   17   32 1   
    32   18   33 1   
    33   18   34 1   
    34   18   35 1   
    35   19   20 1   
    36   19   21 1   
@<TRIPOS>SUBSTRUCTURE
     1 PDA         1 TEMP              0 ****  ****    0 ROOT
