@<TRIPOS>MOLECULE
PDA
   36    36     1     0     0
SMALL
bcc


@<TRIPOS>ATOM
      1 N          -0.0200   -0.1910    0.0790 n4        1 PDA     -0.743000
      2 N1         -4.7280    1.6850   -0.0320 nb        1 PDA     -0.651000
      3 C2         -4.0190    1.3600    1.0910 ca        1 PDA      0.272600
      4 C2A        -4.7450    1.1820    2.3820 c3        1 PDA     -0.131400
      5 C3         -2.6230    1.1840    1.0440 ca        1 PDA      0.006800
      6 O3A        -1.8550    0.8580    2.1440 oh        1 PDA     -0.526100
      7 C4         -1.9230    1.3490   -0.1750 ca        1 PDA     -0.208300
      8 C4A        -0.4380    1.2110   -0.2030 c3        1 PDA      0.178100
      9 C5         -2.6510    1.6770   -1.3200 ca        1 PDA     -0.061600
     10 C5A        -2.0100    1.8610   -2.6550 c3        1 PDA      0.188700
     11 OP4        -2.9180    2.0610   -3.6600 os        1 PDA     -0.550200
     12 P          -1.9680    2.1530   -5.1580 p5        1 PDA      1.306900
     13 OP1        -3.0140    2.3640   -6.2060 o         1 PDA     -0.919833
     14 OP2        -1.0780    3.3100   -4.7920 o         1 PDA     -0.919833
     15 OP3        -1.2950    0.8070   -5.0810 o         1 PDA     -0.919833
     16 C6         -4.0650    1.8320   -1.1750 ca        1 PDA      0.388200
     17 CA          1.4560   -0.4370    0.0900 c3        1 PDA     -0.038500
     18 CB          2.2900    0.7580    0.5020 c3        1 PDA     -0.097100
     19 C           1.7930   -1.6360    1.0760 c         1 PDA      0.922600
     20 OXT         0.8610   -2.0400    1.8220 o         1 PDA     -0.798800
     21 O           2.9670   -2.0650    1.0230 o         1 PDA     -0.798800
     22 HN         -0.4440   -0.8090   -0.6180 hn        1 PDA      0.456300
     23 H2A1       -5.8340    1.4080    2.2820 hc        1 PDA      0.033700
     24 H2A2       -4.6380    0.1270    2.7380 hc        1 PDA      0.033700
     25 H2A3       -4.3160    1.8650    3.1570 hc        1 PDA      0.033700
     26 HOA        -2.4490    0.6080    2.8640 ho        1 PDA      0.419000
     27 H4A1       -0.0240    1.5090   -1.2120 hx        1 PDA      0.106200
     28 H4A2        0.0110    1.8690    0.5940 hx        1 PDA      0.106200
     29 H5A1       -1.3860    0.9390   -2.8900 h1        1 PDA      0.061700
     30 H5A2       -1.3060    2.7510   -2.6050 h1        1 PDA      0.061700
     31 H6         -4.6400    2.0850   -2.0940 h4        1 PDA      0.084100
     32 HA          1.7500   -0.7510   -0.9520 hx        1 PDA      0.094700
     33 HB1         3.3530    0.4110    0.5560 hc        1 PDA      0.050700
     34 HB2         2.2170    1.5900   -0.2380 hc        1 PDA      0.050700
     35 HB3         1.9930    1.1360    1.5100 hc        1 PDA      0.050700
     36 H2         -0.3790   -0.4770    1.0120 hn        1 PDA      0.456300
@<TRIPOS>BOND
     1    1    8 1   
     2    1   17 1   
     3    1   22 1   
     4    1   36 1   
     5    2    3 ar  
     6    2   16 ar  
     7    3    4 1   
     8    3    5 ar  
     9    4   23 1   
    10    4   24 1   
    11    4   25 1   
    12    5    6 1   
    13    5    7 ar  
    14    6   26 1   
    15    7    8 1   
    16    7    9 ar  
    17    8   27 1   
    18    8   28 1   
    19    9   10 1   
    20    9   16 ar  
    21   10   11 1   
    22   10   29 1   
    23   10   30 1   
    24   11   12 1   
    25   12   13 1   
    26   12   14 1   
    27   12   15 1   
    28   16   31 1   
    29   17   18 1   
    30   17   19 1   
    31   17   32 1   
    32   18   33 1   
    33   18   34 1   
    34   18   35 1   
    35   19   20 1   
    36   19   21 1   
@<TRIPOS>SUBSTRUCTURE
     1 PDA         1 TEMP              0 ****  ****    0 ROOT
