@<TRIPOS>MOLECULE
PDB
   36    38     1     0     0
SMALL
bcc


@<TRIPOS>ATOM
      1 C2          0.0720    0.0150    0.1320 ca        1 PDB      0.032400
      2 C3          1.4590   -0.0110    0.3220 ca        1 PDB     -0.118000
      3 C4          1.9940   -0.0630    1.6050 ca        1 PDB     -0.113000
      4 C5          1.1490   -0.0960    2.7140 ca        1 PDB     -0.120000
      5 F5         -3.0650    5.3610    6.4730 f         1 PDB     -0.238967
      6 C6         -0.2310   -0.0830    2.5470 ca        1 PDB     -0.139000
      7 F6         -5.1810    5.6200    6.8970 f         1 PDB     -0.238967
      8 C7         -0.7890   -0.0220    1.2530 ca        1 PDB      0.011800
      9 F7         -4.3290    6.4400    5.0780 f         1 PDB     -0.238967
     10 N8         -2.2010    0.0020    1.0990 na        1 PDB      0.136300
     11 N9         -2.9120   -0.8510    0.3120 nc        1 PDB     -0.483800
     12 C10        -4.2220   -0.5450    0.4420 cd        1 PDB      0.391200
     13 C11        -3.0670    0.8860    1.7710 cc        1 PDB      0.158300
     14 C12        -4.3960    0.5560    1.3580 cd        1 PDB     -0.377900
     15 N13        -2.8080    1.9050    2.6670 na        1 PDB     -0.718600
     16 C14        -3.9400    2.6370    3.1090 cc        1 PDB      0.675200
     17 N15        -5.1800    2.3870    2.7720 nd        1 PDB     -0.681100
     18 C16        -5.5180    1.3220    1.8760 c         1 PDB      0.745100
     19 O17        -6.7050    1.1090    1.5910 o         1 PDB     -0.526100
     20 C18        -3.6130    3.8070    4.0240 c3        1 PDB     -0.124700
     21 C19        -4.6340    3.9950    5.1320 c3        1 PDB     -0.083700
     22 C20        -4.6350    2.8500    6.1170 c3        1 PDB     -0.106100
     23 C21        -4.3050    5.3290    5.8840 c3        1 PDB      0.617900
     24 CL1        -0.5320    0.1010   -1.4460 cl        1 PDB     -0.045400
     25 H1          2.1270    0.0100   -0.5540 ha        1 PDB      0.158000
     26 H2          3.0860   -0.0820    1.7420 ha        1 PDB      0.147000
     27 H3          1.5730   -0.1440    3.7290 ha        1 PDB      0.146000
     28 H4         -0.8870   -0.1400    3.4310 ha        1 PDB      0.149000
     29 H5         -5.0060   -1.0880   -0.0920 h4        1 PDB      0.067100
     30 H6         -1.8820    2.1810    2.8900 hn        1 PDB      0.460800
     31 H7         -2.5980    3.6810    4.4900 hc        1 PDB      0.080700
     32 H8         -3.5860    4.7320    3.3820 hc        1 PDB      0.080700
     33 H9         -5.6650    4.1270    4.6970 hc        1 PDB      0.121700
     34 H10        -5.3810    3.0430    6.9260 hc        1 PDB      0.058367
     35 H11        -4.9110    1.9010    5.5970 hc        1 PDB      0.058367
     36 H12        -3.6270    2.7310    6.5840 hc        1 PDB      0.058367
@<TRIPOS>BOND
     1    1    2 ar  
     2    1    8 ar  
     3    1   24 1   
     4    2    3 ar  
     5    2   25 1   
     6    3    4 ar  
     7    3   26 1   
     8    4    6 ar  
     9    4   27 1   
    10    5   23 1   
    11    6    8 ar  
    12    6   28 1   
    13    7   23 1   
    14    8   10 1   
    15    9   23 1   
    16   10   11 1   
    17   10   13 1   
    18   11   12 2   
    19   12   14 1   
    20   12   29 1   
    21   13   14 2   
    22   13   15 1   
    23   14   18 1   
    24   15   16 1   
    25   15   30 1   
    26   16   17 2   
    27   16   20 1   
    28   17   18 1   
    29   18   19 2   
    30   20   21 1   
    31   20   31 1   
    32   20   32 1   
    33   21   22 1   
    34   21   23 1   
    35   21   33 1   
    36   22   34 1   
    37   22   35 1   
    38   22   36 1   
@<TRIPOS>SUBSTRUCTURE
     1 PDB         1 TEMP              0 ****  ****    0 ROOT
