@<TRIPOS>MOLECULE
PDB
   36    38     1     0     0
SMALL
bcc


@<TRIPOS>ATOM
      1 C2          0.0710    0.0010    0.1400 ca        1 PDB      0.032400
      2 C3          1.4570   -0.0330    0.3340 ca        1 PDB     -0.118000
      3 C4          1.9880   -0.0880    1.6190 ca        1 PDB     -0.113000
      4 C5          1.1390   -0.1170    2.7250 ca        1 PDB     -0.120000
      5 F5         -3.0560    5.3620    6.4730 f         1 PDB     -0.238967
      6 C6         -0.2410   -0.0960    2.5540 ca        1 PDB     -0.139000
      7 F6         -5.1710    5.6320    6.8920 f         1 PDB     -0.238967
      8 C7         -0.7940   -0.0320    1.2580 ca        1 PDB      0.011800
      9 F7         -4.3090    6.4490    5.0760 f         1 PDB     -0.238967
     10 N8         -2.2050    0.0000    1.0990 na        1 PDB      0.136300
     11 N9         -2.9190   -0.8480    0.3110 nc        1 PDB     -0.483800
     12 C10        -4.2270   -0.5350    0.4360 cd        1 PDB      0.391200
     13 C11        -3.0680    0.8890    1.7690 cc        1 PDB      0.158300
     14 C12        -4.3980    0.5670    1.3520 cd        1 PDB     -0.377900
     15 N13        -2.8070    1.9060    2.6660 na        1 PDB     -0.718600
     16 C14        -3.9360    2.6440    3.1050 cc        1 PDB      0.675200
     17 N15        -5.1760    2.4020    2.7640 nd        1 PDB     -0.681100
     18 C16        -5.5180    1.3390    1.8660 c         1 PDB      0.745100
     19 O17        -6.7050    1.1330    1.5780 o         1 PDB     -0.526100
     20 C18        -3.6050    3.8130    4.0210 c3        1 PDB     -0.124700
     21 C19        -4.6280    4.0050    5.1270 c3        1 PDB     -0.083700
     22 C20        -4.6380    2.8600    6.1110 c3        1 PDB     -0.106100
     23 C21        -4.2940    5.3370    5.8800 c3        1 PDB      0.617900
     24 Cl1        -0.5280    0.0910   -1.4400 cl        1 PDB     -0.045400
     25 H1          2.1280   -0.0150   -0.5400 ha        1 PDB      0.158000
     26 H2          3.0790   -0.1140    1.7590 ha        1 PDB      0.147000
     27 H3          1.5600   -0.1680    3.7410 ha        1 PDB      0.146000
     28 H4         -0.8990   -0.1500    3.4360 ha        1 PDB      0.149000
     29 H5         -5.0130   -1.0730   -0.1010 h4        1 PDB      0.067100
     30 H6         -1.8800    2.1770    2.8930 hn        1 PDB      0.460800
     31 H7         -2.5920    3.6810    4.4900 hc        1 PDB      0.080700
     32 H8         -3.5710    4.7380    3.3800 hc        1 PDB      0.080700
     33 H9         -5.6570    4.1440    4.6890 hc        1 PDB      0.121700
     34 H10        -4.9170    1.9120    5.5900 hc        1 PDB      0.058367
     35 H11        -5.3850    3.0560    6.9180 hc        1 PDB      0.058367
     36 H12        -3.6320    2.7340    6.5800 hc        1 PDB      0.058367
@<TRIPOS>BOND
     1    1    2 ar  
     2    1    8 ar  
     3    1   24 1   
     4    2    3 ar  
     5    2   25 1   
     6    3    4 ar  
     7    3   26 1   
     8    4    6 ar  
     9    4   27 1   
    10    5   23 1   
    11    6    8 ar  
    12    6   28 1   
    13    7   23 1   
    14    8   10 1   
    15    9   23 1   
    16   10   11 1   
    17   10   13 1   
    18   11   12 2   
    19   12   14 1   
    20   12   29 1   
    21   13   14 2   
    22   13   15 1   
    23   14   18 1   
    24   15   16 1   
    25   15   30 1   
    26   16   17 2   
    27   16   20 1   
    28   17   18 1   
    29   18   19 2   
    30   20   21 1   
    31   20   31 1   
    32   20   32 1   
    33   21   22 1   
    34   21   23 1   
    35   21   33 1   
    36   22   34 1   
    37   22   35 1   
    38   22   36 1   
@<TRIPOS>SUBSTRUCTURE
     1 PDB         1 TEMP              0 ****  ****    0 ROOT
