@<TRIPOS>MOLECULE
PDB
   36    38     1     0     0
SMALL
bcc


@<TRIPOS>ATOM
      1 C2          0.0740    0.0040    0.1410 ca        1 PDB      0.032400
      2 C3          1.4600   -0.0320    0.3360 ca        1 PDB     -0.118000
      3 C4          1.9890   -0.0890    1.6210 ca        1 PDB     -0.113000
      4 C5          1.1390   -0.1180    2.7270 ca        1 PDB     -0.120000
      5 F5         -3.0590    5.3590    6.4760 f         1 PDB     -0.238967
      6 C6         -0.2400   -0.0970    2.5550 ca        1 PDB     -0.139000
      7 F6         -5.1750    5.6310    6.8910 f         1 PDB     -0.238967
      8 C7         -0.7920   -0.0310    1.2580 ca        1 PDB      0.011800
      9 F7         -4.3100    6.4470    5.0770 f         1 PDB     -0.238967
     10 N8         -2.2030    0.0020    1.0980 na        1 PDB      0.136300
     11 N9         -2.9160   -0.8450    0.3070 nc        1 PDB     -0.483800
     12 C10        -4.2240   -0.5320    0.4320 cd        1 PDB      0.391200
     13 C11        -3.0670    0.8900    1.7680 cc        1 PDB      0.158300
     14 C12        -4.3960    0.5690    1.3490 cd        1 PDB     -0.377900
     15 N13        -2.8060    1.9060    2.6660 na        1 PDB     -0.718600
     16 C14        -3.9350    2.6440    3.1050 cc        1 PDB      0.675200
     17 N15        -5.1750    2.4020    2.7630 nd        1 PDB     -0.681100
     18 C16        -5.5160    1.3400    1.8630 c         1 PDB      0.745100
     19 O17        -6.7030    1.1350    1.5730 o         1 PDB     -0.526100
     20 C18        -3.6050    3.8110    4.0230 c3        1 PDB     -0.124700
     21 C19        -4.6300    4.0040    5.1270 c3        1 PDB     -0.083700
     22 C20        -4.6430    2.8580    6.1100 c3        1 PDB     -0.106100
     23 C21        -4.2970    5.3350    5.8810 c3        1 PDB      0.617900
     24 CL1        -0.5240    0.0960   -1.4400 cl        1 PDB     -0.045400
     25 H1          2.1310   -0.0130   -0.5370 ha        1 PDB      0.158000
     26 H2          3.0800   -0.1150    1.7640 ha        1 PDB      0.147000
     27 H3          1.5590   -0.1710    3.7440 ha        1 PDB      0.146000
     28 H4         -0.9000   -0.1510    3.4360 ha        1 PDB      0.149000
     29 H5         -5.0100   -1.0690   -0.1060 h4        1 PDB      0.067100
     30 H6         -1.8790    2.1760    2.8940 hn        1 PDB      0.460800
     31 H7         -3.5680    4.7370    3.3830 hc        1 PDB      0.080700
     32 H8         -2.5940    3.6780    4.4940 hc        1 PDB      0.080700
     33 H9         -5.6580    4.1430    4.6870 hc        1 PDB      0.121700
     34 H10        -4.9220    1.9110    5.5880 hc        1 PDB      0.058367
     35 H11        -5.3910    3.0550    6.9170 hc        1 PDB      0.058367
     36 H12        -3.6380    2.7320    6.5820 hc        1 PDB      0.058367
@<TRIPOS>BOND
     1    1    2 ar  
     2    1    8 ar  
     3    1   24 1   
     4    2    3 ar  
     5    2   25 1   
     6    3    4 ar  
     7    3   26 1   
     8    4    6 ar  
     9    4   27 1   
    10    5   23 1   
    11    6    8 ar  
    12    6   28 1   
    13    7   23 1   
    14    8   10 1   
    15    9   23 1   
    16   10   11 1   
    17   10   13 1   
    18   11   12 2   
    19   12   14 1   
    20   12   29 1   
    21   13   14 2   
    22   13   15 1   
    23   14   18 1   
    24   15   16 1   
    25   15   30 1   
    26   16   17 2   
    27   16   20 1   
    28   17   18 1   
    29   18   19 2   
    30   20   21 1   
    31   20   31 1   
    32   20   32 1   
    33   21   22 1   
    34   21   23 1   
    35   21   33 1   
    36   22   34 1   
    37   22   35 1   
    38   22   36 1   
@<TRIPOS>SUBSTRUCTURE
     1 PDB         1 TEMP              0 ****  ****    0 ROOT
