@<TRIPOS>MOLECULE
PDB
   36    38     1     0     0
SMALL
bcc


@<TRIPOS>ATOM
      1 C2         -4.0830    0.9520    0.3000 ca        1 PDB      0.032400
      2 C3         -4.6590    2.2180    0.1400 ca        1 PDB     -0.118000
      3 C4         -4.1220    3.1270   -0.7660 ca        1 PDB     -0.113000
      4 C5         -3.0060    2.7790   -1.5270 ca        1 PDB     -0.120000
      5 F5          4.6760    2.3010    0.0320 f         1 PDB     -0.238967
      6 C6         -2.4260    1.5220   -1.3910 ca        1 PDB     -0.139000
      7 F6          6.1440    0.7000   -0.0400 f         1 PDB     -0.238967
      8 C7         -2.9560    0.5930   -0.4720 ca        1 PDB      0.011800
      9 F7          5.0210    1.0650    1.7810 f         1 PDB     -0.238967
     10 N8         -2.3460   -0.6840   -0.3360 na        1 PDB      0.136300
     11 N9         -3.0010   -1.8720   -0.4320 nc        1 PDB     -0.483800
     12 C10        -2.0940   -2.8620   -0.2810 cd        1 PDB      0.391200
     13 C11        -0.9700   -0.8980   -0.1240 cc        1 PDB      0.158300
     14 C12        -0.7750   -2.3140   -0.0780 cd        1 PDB     -0.377900
     15 N13         0.0750   -0.0080    0.0260 na        1 PDB     -0.718600
     16 C14         1.3440   -0.5870    0.2830 cc        1 PDB      0.675200
     17 N15         1.5920   -1.8710    0.3360 nd        1 PDB     -0.681100
     18 C16         0.5580   -2.8460    0.1520 c         1 PDB      0.745100
     19 O17         0.8350   -4.0530    0.1980 o         1 PDB     -0.526100
     20 C18         2.4560    0.4210    0.5320 c3        1 PDB     -0.124700
     21 C19         3.7860   -0.0060   -0.0640 c3        1 PDB     -0.083700
     22 C20         3.7590   -0.0400   -1.5730 c3        1 PDB     -0.106100
     23 C21         4.8860    1.0000    0.4160 c3        1 PDB      0.617900
     24 CL1        -4.7590   -0.1120    1.4310 cl        1 PDB     -0.045400
     25 H1         -5.5430    2.4920    0.7380 ha        1 PDB      0.158000
     26 H2         -4.5820    4.1200   -0.8830 ha        1 PDB      0.147000
     27 H3         -2.5850    3.4960   -2.2490 ha        1 PDB      0.146000
     28 H4         -1.5640    1.2500   -2.0210 ha        1 PDB      0.149000
     29 H5         -2.3690   -3.9200   -0.3150 h4        1 PDB      0.067100
     30 H6         -0.0760    0.9720    0.0710 hn        1 PDB      0.460800
     31 H7          2.1850    1.4290    0.1150 hc        1 PDB      0.080700
     32 H8          2.5640    0.5270    1.6480 hc        1 PDB      0.080700
     33 H9          4.0890   -1.0150    0.3370 hc        1 PDB      0.121700
     34 H10         3.0070   -0.7860   -1.9240 hc        1 PDB      0.058367
     35 H11         3.4960    0.9650   -1.9850 hc        1 PDB      0.058367
     36 H12         4.7640   -0.3330   -1.9660 hc        1 PDB      0.058367
@<TRIPOS>BOND
     1    1    2 ar  
     2    1    8 ar  
     3    1   24 1   
     4    2    3 ar  
     5    2   25 1   
     6    3    4 ar  
     7    3   26 1   
     8    4    6 ar  
     9    4   27 1   
    10    5   23 1   
    11    6    8 ar  
    12    6   28 1   
    13    7   23 1   
    14    8   10 1   
    15    9   23 1   
    16   10   11 1   
    17   10   13 1   
    18   11   12 2   
    19   12   14 1   
    20   12   29 1   
    21   13   14 2   
    22   13   15 1   
    23   14   18 1   
    24   15   16 1   
    25   15   30 1   
    26   16   17 2   
    27   16   20 1   
    28   17   18 1   
    29   18   19 2   
    30   20   21 1   
    31   20   31 1   
    32   20   32 1   
    33   21   22 1   
    34   21   23 1   
    35   21   33 1   
    36   22   34 1   
    37   22   35 1   
    38   22   36 1   
@<TRIPOS>SUBSTRUCTURE
     1 PDB         1 TEMP              0 ****  ****    0 ROOT
