@<TRIPOS>MOLECULE
PDC
   15    15     1     0     0
SMALL
bcc


@<TRIPOS>ATOM
      1 N1          0.5230    0.0010    0.0000 nb        1 PDC     -0.606000
      2 C2         -0.1730    0.0000    1.1620 ca        1 PDC      0.341800
      3 C3         -1.5890   -0.0000    1.1970 ca        1 PDC     -0.256300
      4 C4         -2.2990   -0.0000   -0.0000 ca        1 PDC     -0.164000
      5 C5         -1.5890    0.0000   -1.1970 ca        1 PDC     -0.256300
      6 C6         -0.1730    0.0000   -1.1620 ca        1 PDC      0.341800
      7 C7          0.5230    0.0010    2.5350 c         1 PDC      0.808100
      8 O1         -0.2390    0.0020    3.5530 o         1 PDC     -0.844300
      9 O2          1.7770   -0.0010    2.6350 o         1 PDC     -0.844300
     10 C8          0.5230    0.0010   -2.5350 c         1 PDC      0.808100
     11 O3         -0.2390    0.0000   -3.5530 o         1 PDC     -0.844300
     12 O4          1.7780    0.0010   -2.6350 o         1 PDC     -0.844300
     13 H3         -2.0910   -0.0000    2.1740 ha        1 PDC      0.140000
     14 H4         -3.3970   -0.0010   -0.0000 ha        1 PDC      0.080000
     15 H5         -2.0910   -0.0000   -2.1740 ha        1 PDC      0.140000
@<TRIPOS>BOND
     1    1    2 ar  
     2    1    6 ar  
     3    2    3 ar  
     4    2    7 1   
     5    3    4 ar  
     6    3   13 1   
     7    4    5 ar  
     8    4   14 1   
     9    5    6 ar  
    10    5   15 1   
    11    6   10 1   
    12    7    8 1   
    13    7    9 1   
    14   10   11 1   
    15   10   12 1   
@<TRIPOS>SUBSTRUCTURE
     1 PDC         1 TEMP              0 ****  ****    0 ROOT
