@<TRIPOS>MOLECULE
PDC
   15    15     1     0     0
SMALL
bcc


@<TRIPOS>ATOM
      1 N1         -0.0420    0.2500   -0.0730 nb        1 PDC     -0.646000
      2 C2          1.3000    0.0830   -0.0460 ca        1 PDC      0.389800
      3 C3          2.0050   -0.2560    1.1340 ca        1 PDC     -0.283300
      4 C4          1.2950   -0.4260    2.3190 ca        1 PDC     -0.132000
      5 C5         -0.0860   -0.2570    2.3030 ca        1 PDC     -0.283300
      6 C6         -0.7220    0.0830    1.0850 ca        1 PDC      0.389800
      7 C7          2.1510    0.2540   -1.3130 c         1 PDC      0.822100
      8 O1          2.6410    1.3940   -1.5500 o         1 PDC     -0.845300
      9 O2          2.3810   -0.7700   -2.0160 o         1 PDC     -0.845300
     10 C8         -2.2470    0.2530    1.1460 c         1 PDC      0.822100
     11 O3         -2.7060    1.3930    1.4400 o         1 PDC     -0.845300
     12 O4         -2.9670   -0.7710    0.9740 o         1 PDC     -0.845300
     13 H3          3.0930   -0.3780    1.0940 ha        1 PDC      0.113000
     14 H4          1.8160   -0.6890    3.2500 ha        1 PDC      0.079000
     15 H5         -0.6900   -0.3790    3.2090 ha        1 PDC      0.113000
@<TRIPOS>BOND
     1    1    2 ar  
     2    1    6 ar  
     3    2    3 ar  
     4    2    7 1   
     5    3    4 ar  
     6    3   13 1   
     7    4    5 ar  
     8    4   14 1   
     9    5    6 ar  
    10    5   15 1   
    11    6   10 1   
    12    7    8 1   
    13    7    9 1   
    14   10   11 1   
    15   10   12 1   
@<TRIPOS>SUBSTRUCTURE
     1 PDC         1 TEMP              0 ****  ****    0 ROOT
