@<TRIPOS>MOLECULE
PDD
   35    35     1     0     0
SMALL
bcc


@<TRIPOS>ATOM
      1 N           0.5860    0.0480    2.4380 n3        1 PDD     -0.840200
      2 N1         -3.4890   -0.4540   -0.6630 nb        1 PDD     -0.686000
      3 C2         -3.3860   -0.1580    0.6580 ca        1 PDD      0.288600
      4 C2A        -4.6060   -0.1400    1.5160 c3        1 PDD     -0.103400
      5 C3         -2.1390    0.1550    1.2560 ca        1 PDD      0.032800
      6 O3A        -2.1990    0.4860    2.5900 oh        1 PDD     -0.553100
      7 C4         -0.9540    0.1430    0.4830 ca        1 PDD     -0.154300
      8 C4A         0.3810    0.5070    1.0720 c3        1 PDD      0.200100
      9 C5         -1.0730   -0.1490   -0.8840 ca        1 PDD     -0.119600
     10 C5A         0.0900   -0.1640   -1.8500 c3        1 PDD      0.239700
     11 OP4        -0.2700   -0.6130   -3.0910 os        1 PDD     -0.567200
     12 P           0.3090    0.3050   -4.4630 p5        1 PDD      1.314900
     13 OP1         1.5450   -0.4550   -4.8610 o         1 PDD     -0.930167
     14 OP2        -0.8660    0.1990   -5.3960 o         1 PDD     -0.930167
     15 OP3         0.5580    1.6640   -3.8600 o         1 PDD     -0.930167
     16 C6         -2.3690   -0.4390   -1.3920 ca        1 PDD      0.368200
     17 CA          1.6910    0.6860    3.1340 c3        1 PDD      0.055500
     18 CB          3.0140    0.7450    2.3730 c3        1 PDD     -0.108100
     19 C           1.9930    0.0110    4.5120 c         1 PDD      0.917600
     20 O           2.0210   -1.2500    4.5930 o         1 PDD     -0.857300
     21 OXT         2.2380    0.7830    5.4850 o         1 PDD     -0.857300
     22 H           0.6940   -0.9500    2.4700 hn        1 PDD      0.376800
     23 H2A1       -4.8500    0.9150    1.7940 hc        1 PDD      0.019033
     24 H2A2       -5.4920   -0.5890    1.0060 hc        1 PDD      0.019033
     25 H2A3       -4.4040   -0.7070    2.4590 hc        1 PDD      0.019033
     26 HO3        -1.2880    0.5200    2.9420 ho        1 PDD      0.462000
     27 H4A1        0.4490    1.6360    1.0710 h1        1 PDD      0.044700
     28 H4A2        1.1950    0.1340    0.3820 h1        1 PDD      0.044700
     29 H5A1        0.5200    0.8830   -1.9100 h1        1 PDD      0.026700
     30 H5A2        0.8650   -0.8590   -1.3920 h1        1 PDD      0.026700
     31 H6         -2.4610   -0.6640   -2.4760 h4        1 PDD      0.073100
     32 HA          1.3650    1.7470    3.3450 h1        1 PDD      0.036700
     33 HB1         3.3640   -0.2830    2.1180 hc        1 PDD      0.024033
     34 HB2         2.9160    1.3350    1.4300 hc        1 PDD      0.024033
     35 HB3         3.7810    1.2300    3.0220 hc        1 PDD      0.024033
@<TRIPOS>BOND
     1    1    8 1   
     2    1   17 1   
     3    1   22 1   
     4    2    3 ar  
     5    2   16 ar  
     6    3    4 1   
     7    3    5 ar  
     8    4   23 1   
     9    4   24 1   
    10    4   25 1   
    11    5    6 1   
    12    5    7 ar  
    13    6   26 1   
    14    7    8 1   
    15    7    9 ar  
    16    8   27 1   
    17    8   28 1   
    18    9   10 1   
    19    9   16 ar  
    20   10   11 1   
    21   10   29 1   
    22   10   30 1   
    23   11   12 1   
    24   12   13 1   
    25   12   14 1   
    26   12   15 1   
    27   16   31 1   
    28   17   18 1   
    29   17   19 1   
    30   17   32 1   
    31   18   33 1   
    32   18   34 1   
    33   18   35 1   
    34   19   20 1   
    35   19   21 1   
@<TRIPOS>SUBSTRUCTURE
     1 PDD         1 TEMP              0 ****  ****    0 ROOT
