@<TRIPOS>MOLECULE
PDE
   40    40     1     0     0
SMALL
bcc


@<TRIPOS>ATOM
      1 P1         -1.3140    0.0120    1.0770 p5        1 PDE      1.353600
      2 O1          0.3410   -0.0190    0.6570 os        1 PDE     -0.497500
      3 O2         -1.3410    0.5100    2.4600 o         1 PDE     -0.831500
      4 O3         -1.9750    0.6590   -0.0730 o         1 PDE     -0.831500
      5 C8         -1.5790   -1.6670    1.0350 c3        1 PDE     -0.343600
      6 C9         -2.5950   -1.9140   -0.0360 c3        1 PDE     -0.068400
      7 C10        -2.9490   -3.3770   -0.1860 c3        1 PDE     -0.162400
      8 C11        -4.1880   -3.5730   -1.0190 c         1 PDE      0.546100
      9 N2         -4.1810   -2.8910   -2.3440 n4        1 PDE     -0.664800
     10 O6         -5.1640   -4.2370   -0.6880 o         1 PDE     -0.461100
     11 C12        -5.3860   -3.0950   -3.2110 c3        1 PDE     -0.057500
     12 C1D        -6.1000   -1.7980   -3.5230 c3        1 PDE     -0.104100
     13 C13        -4.9470   -3.8070   -4.5710 c         1 PDE      0.931600
     14 O7         -5.8670   -4.0370   -5.3770 o         1 PDE     -0.774300
     15 O8         -3.7190   -4.0770   -4.6720 o         1 PDE     -0.774300
     16 C1          1.1070    1.0730    0.6150 ca        1 PDE      0.293100
     17 C2          1.8320    1.4880    1.7590 ca        1 PDE     -0.203000
     18 C6          1.3010    1.7580   -0.6090 ca        1 PDE     -0.203000
     19 C4          2.9140    3.2080    0.4530 ca        1 PDE     -0.245200
     20 C5          2.1910    2.8150   -0.6900 ca        1 PDE     -0.044000
     21 C3          2.7220    2.5460    1.6810 ca        1 PDE     -0.044000
     22 N1          3.8750    4.3210    0.3650 no        1 PDE      0.322200
     23 O4          4.0350    4.8880   -0.6880 o         1 PDE     -0.244500
     24 O5          4.4960    4.6510    1.3450 o         1 PDE     -0.244500
     25 HC81       -1.9390   -2.0270    2.0290 hc        1 PDE      0.086700
     26 HC82       -0.6320   -2.2180    0.8200 hc        1 PDE      0.086700
     27 HC91       -3.5140   -1.3130    0.2060 hc        1 PDE      0.067200
     28 HC92       -2.1800   -1.4990   -0.9970 hc        1 PDE      0.067200
     29 H101       -3.1430   -3.8340    0.8230 hc        1 PDE      0.094700
     30 H102       -2.0990   -3.9400   -0.6590 hc        1 PDE      0.094700
     31 HN2        -3.3740   -3.2750   -2.9010 hn        1 PDE      0.474800
     32 H12        -6.0890   -3.8050   -2.6910 hx        1 PDE      0.106700
     33 H1D1       -6.5520   -1.3420   -2.6100 hc        1 PDE      0.057033
     34 H1D2       -6.9140   -2.0410   -4.2540 hc        1 PDE      0.057033
     35 H1D3       -5.4170   -1.0540   -4.0010 hc        1 PDE      0.057033
     36 HC2         1.6590    0.9730    2.7160 ha        1 PDE      0.161500
     37 HC6         0.7200    1.4480   -1.4900 ha        1 PDE      0.161500
     38 HC5         2.3360    3.3490   -1.6440 ha        1 PDE      0.152500
     39 HC3         3.2800    2.8690    2.5750 ha        1 PDE      0.152500
     40 H22        -4.0180   -1.8900   -2.1920 hn        1 PDE      0.474800
@<TRIPOS>BOND
     1    1    2 1   
     2    1    3 1   
     3    1    4 1   
     4    1    5 1   
     5    2   16 1   
     6    5    6 1   
     7    5   25 1   
     8    5   26 1   
     9    6    7 1   
    10    6   27 1   
    11    6   28 1   
    12    7    8 1   
    13    7   29 1   
    14    7   30 1   
    15    8    9 1   
    16    8   10 2   
    17    9   11 1   
    18    9   31 1   
    19    9   40 1   
    20   11   12 1   
    21   11   13 1   
    22   11   32 1   
    23   12   33 1   
    24   12   34 1   
    25   12   35 1   
    26   13   14 1   
    27   13   15 1   
    28   16   17 ar  
    29   16   18 ar  
    30   17   21 ar  
    31   17   36 1   
    32   18   20 ar  
    33   18   37 1   
    34   19   20 ar  
    35   19   21 ar  
    36   19   22 1   
    37   20   38 1   
    38   21   39 1   
    39   22   23 1   
    40   22   24 1   
@<TRIPOS>SUBSTRUCTURE
     1 PDE         1 TEMP              0 ****  ****    0 ROOT
