@<TRIPOS>MOLECULE
PDE
   39    39     1     0     0
SMALL
bcc


@<TRIPOS>ATOM
      1 P1          0.8700    0.3700    0.5370 p5        1 PDE      1.366600
      2 O1          2.0690   -0.7370   -0.0820 os        1 PDE     -0.476500
      3 O2          1.2240    0.4420    1.9640 o         1 PDE     -0.832500
      4 O3          1.0120    1.4930   -0.4050 o         1 PDE     -0.832500
      5 C8         -0.4530   -0.6030    0.2350 c3        1 PDE     -0.356600
      6 C9         -1.6910    0.2430    0.3550 c3        1 PDE     -0.061400
      7 C10        -2.9350   -0.5320   -0.0170 c3        1 PDE     -0.141400
      8 C11        -4.2140    0.2480    0.2630 c         1 PDE      0.644100
      9 N2         -5.3190   -0.1010   -0.4680 n         1 PDE     -0.537900
     10 O6         -4.2420    1.1590    1.1220 o         1 PDE     -0.658100
     11 C12        -6.6500    0.4040   -0.2110 c3        1 PDE     -0.029300
     12 C1D        -6.9230    1.7490   -0.8810 c3        1 PDE     -0.083100
     13 C13        -7.7630   -0.6010   -0.6700 c         1 PDE      0.909600
     14 O7         -7.4470   -1.5900   -1.3910 o         1 PDE     -0.844300
     15 O8         -8.9370   -0.3520   -0.2780 o         1 PDE     -0.844300
     16 C1          3.3650   -0.4990   -0.1520 ca        1 PDE      0.343100
     17 C2          4.2450   -1.1910    0.7270 ca        1 PDE     -0.227500
     18 C6          3.9310    0.3360   -1.1550 ca        1 PDE     -0.227500
     19 C4          6.1560   -0.2620   -0.4200 ca        1 PDE     -0.278200
     20 C5          5.2990    0.4540   -1.2840 ca        1 PDE     -0.038000
     21 C3          5.6130   -1.0750    0.5970 ca        1 PDE     -0.038000
     22 N1          7.6090   -0.1570   -0.5750 no        1 PDE      0.327200
     23 O4          8.0750    0.5370   -1.4480 o         1 PDE     -0.265500
     24 O5          8.3400   -0.7720    0.1650 o         1 PDE     -0.265500
     25 HC81       -0.5020   -1.4560    0.9550 hc        1 PDE      0.076700
     26 HC82       -0.3980   -1.0560   -0.7850 hc        1 PDE      0.076700
     27 HC91       -1.5810    1.1400   -0.3130 hc        1 PDE      0.066700
     28 HC92       -1.7820    0.6230    1.4080 hc        1 PDE      0.066700
     29 H101       -2.9850   -1.4760    0.5890 hc        1 PDE      0.048700
     30 H102       -2.8770   -0.8260   -1.0970 hc        1 PDE      0.048700
     31 HN2        -5.2880   -0.9000   -1.0630 hn        1 PDE      0.324500
     32 H12        -6.7650    0.5470    0.9040 h1        1 PDE      0.050700
     33 H1D1       -6.2320    2.5340   -0.4920 hc        1 PDE      0.025700
     34 H1D2       -6.8000    1.6780   -1.9880 hc        1 PDE      0.025700
     35 H1D3       -7.9780    2.0370   -0.6560 hc        1 PDE      0.025700
     36 HC2         3.8050   -1.8100    1.5220 ha        1 PDE      0.164000
     37 HC6         3.2530    0.9100   -1.8080 ha        1 PDE      0.164000
     38 HC5         5.7290    1.1040   -2.0630 ha        1 PDE      0.141500
     39 HC3         6.2860   -1.6130    1.2850 ha        1 PDE      0.141500
@<TRIPOS>BOND
     1    1    2 1   
     2    1    3 1   
     3    1    4 1   
     4    1    5 1   
     5    2   16 1   
     6    5    6 1   
     7    5   25 1   
     8    5   26 1   
     9    6    7 1   
    10    6   27 1   
    11    6   28 1   
    12    7    8 1   
    13    7   29 1   
    14    7   30 1   
    15    8    9 1   
    16    8   10 2   
    17    9   11 1   
    18    9   31 1   
    19   11   12 1   
    20   11   13 1   
    21   11   32 1   
    22   12   33 1   
    23   12   34 1   
    24   12   35 1   
    25   13   14 1   
    26   13   15 1   
    27   16   17 ar  
    28   16   18 ar  
    29   17   21 ar  
    30   17   36 1   
    31   18   20 ar  
    32   18   37 1   
    33   19   20 ar  
    34   19   21 ar  
    35   19   22 1   
    36   20   38 1   
    37   21   39 1   
    38   22   23 1   
    39   22   24 1   
@<TRIPOS>SUBSTRUCTURE
     1 PDE         1 TEMP              0 ****  ****    0 ROOT
