@<TRIPOS>MOLECULE
PDE
   39    36     1     0     0
SMALL
bcc


@<TRIPOS>ATOM
      1 P1         -0.2150    1.4560   -0.2510 p3        1 PDE      2.647000
      2 O1         -0.5140    2.7440   -1.1180 o         1 PDE     -0.665000
      3 O2          1.2700    1.3540    0.0030 o         1 PDE     -1.152000
      4 O3         -0.9450    1.5560    1.0670 o         1 PDE     -1.152000
      5 C8         -0.7800   -0.0200   -1.1460 c3        1 PDE     -0.843000
      6 C9         -0.4830   -1.2540   -0.3210 c3        1 PDE     -0.140000
      7 C10        -0.4110   -2.4620   -1.2290 c3        1 PDE     -0.170000
      8 C11        -0.5660   -3.7220   -0.4060 c2        1 PDE      0.288000
      9 N2          0.5180   -4.6290   -0.2900 n         1 PDE     -0.347000
     10 O6         -1.6310   -3.9780    0.1180 o         1 PDE     -0.419000
     11 C12         0.3070   -5.9190    0.2660 c3        1 PDE     -0.056000
     12 C1D         1.6100   -6.6870    0.2670 c3        1 PDE     -0.201000
     13 C13        -0.1980   -5.7800    1.6850 c2        1 PDE      0.329000
     14 O7          0.4240   -5.0560    2.5060 o         1 PDE     -0.579000
     15 O8         -1.2500   -6.3730    2.0400 o         1 PDE     -0.579000
     16 C1         -0.3100    4.0070   -0.5350 c2        1 PDE      0.298000
     17 C2          0.9290    4.6210   -0.6310 c2        1 PDE     -0.228000
     18 C6         -1.3670    4.6690    0.0690 c1        1 PDE     -0.227000
     19 C4          0.0540    6.5600    0.4820 c1        1 PDE     -0.233000
     20 C5         -1.1850    5.9460    0.5770 c1        1 PDE     -0.037000
     21 C3          1.1110    5.8970   -0.1220 c1        1 PDE     -0.039000
     22 N1          0.2470    7.8570    1.0230 no        1 PDE      0.582000
     23 O4         -0.7140    8.5080    1.4070 o         1 PDE     -0.415500
     24 O5          1.5080    8.3680    1.1390 o         1 PDE     -0.415500
     25 HC81       -1.7430    0.0430   -1.3030 hc        1 PDE      0.116000
     26 HC82       -0.3120   -0.0810   -2.0030 hc        1 PDE      0.116000
     27 HC91       -1.1930   -1.3830    0.3390 hc        1 PDE      0.106000
     28 HC92        0.3730   -1.1400    0.1390 hc        1 PDE      0.106000
     29 H101        0.4530   -2.4760   -1.6870 hc        1 PDE      0.088000
     30 H102       -1.1300   -2.4160   -1.8920 hc        1 PDE      0.088000
     31 HN2         1.3440   -4.3950   -0.5970 hn        1 PDE      0.238000
     32 H12        -0.3550   -6.4000   -0.2690 h1        1 PDE      0.090000
     33 H1D1        1.4740   -7.5600    0.6900 hc        1 PDE      0.065000
     34 H1D2        2.2850   -6.1830    0.7670 hc        1 PDE      0.065000
     35 H1D3        1.9140   -6.8150   -0.6560 hc        1 PDE      0.065000
     36 HC2         1.6690    4.1610   -1.0720 ha        1 PDE      0.152000
     37 HC6        -2.2410    4.2400    0.1300 ha        1 PDE      0.176000
     38 HC5        -1.9290    6.4130    1.0030 ha        1 PDE      0.143000
     39 HC3         1.9840    6.3300   -0.1900 ha        1 PDE      0.140000
@<TRIPOS>BOND
     1    1    3 1   
     2    1    4 1   
     3    1    5 1   
     4    2   16 1   
     5    5    6 1   
     6    5   25 1   
     7    5   26 1   
     8    6    7 1   
     9    6   27 1   
    10    6   28 1   
    11    7    8 1   
    12    7   29 1   
    13    7   30 1   
    14    8    9 1   
    15    8   10 1   
    16    9   11 1   
    17    9   31 1   
    18   11   12 1   
    19   11   13 1   
    20   11   32 1   
    21   12   33 1   
    22   12   34 1   
    23   12   35 1   
    24   13   14 1   
    25   13   15 1   
    26   16   17 1   
    27   16   18 1   
    28   17   21 1   
    29   17   36 1   
    30   18   37 1   
    31   19   20 1   
    32   19   22 1   
    33   20   38 1   
    34   21   39 1   
    35   22   23 1   
    36   22   24 1   
@<TRIPOS>SUBSTRUCTURE
     1 PDE         1 TEMP              0 ****  ****    0 ROOT
