@<TRIPOS>MOLECULE
PDE
   40    40     1     0     0
SMALL
bcc


@<TRIPOS>ATOM
      1 P1         -1.3650    0.0970    1.0530 p5        1 PDE      1.353600
      2 O1          0.3030   -0.0040    0.7010 os        1 PDE     -0.497500
      3 O2         -1.4290    0.6650    2.4070 o         1 PDE     -0.831500
      4 O3         -1.9620    0.7020   -0.1530 o         1 PDE     -0.831500
      5 C8         -1.6790   -1.5740    1.0840 c3        1 PDE     -0.343600
      6 C9         -2.6600   -1.8470   -0.0130 c3        1 PDE     -0.068400
      7 C10        -3.0530   -3.3050   -0.1040 c3        1 PDE     -0.162400
      8 C11        -4.2640   -3.5070   -0.9750 c         1 PDE      0.546100
      9 N2         -4.1860   -2.8940   -2.3310 ny        1 PDE     -0.664800
     10 O6         -5.2730   -4.1240   -0.6500 o         1 PDE     -0.461100
     11 C12        -5.3620   -3.1080   -3.2350 c3        1 PDE     -0.057500
     12 C1D        -6.0220   -1.8090   -3.6400 c3        1 PDE     -0.104100
     13 C13        -4.8920   -3.9020   -4.5390 c         1 PDE      0.931600
     14 O7         -5.7860   -4.1460   -5.3690 o         1 PDE     -0.774300
     15 O8         -3.6690   -4.2110   -4.5760 o         1 PDE     -0.774300
     16 C1          1.1040    1.0630    0.6340 ca        1 PDE      0.293100
     17 C2          1.7970    1.5160    1.7840 ca        1 PDE     -0.203000
     18 C6          1.3650    1.6780   -0.6140 ca        1 PDE     -0.203000
     19 C4          2.9800    3.1340    0.4370 ca        1 PDE     -0.245200
     20 C5          2.2890    2.7040   -0.7130 ca        1 PDE     -0.044000
     21 C3          2.7200    2.5420    1.6880 ca        1 PDE     -0.044000
     22 N1          3.9760    4.2130    0.3310 no        1 PDE      0.322200
     23 O4          4.1940    4.7210   -0.7420 o         1 PDE     -0.244500
     24 O5          4.5700    4.5760    1.3170 o         1 PDE     -0.244500
     25 HC81       -0.7420   -2.1620    0.9350 hc        1 PDE      0.086700
     26 HC82       -2.0880   -1.8730    2.0790 hc        1 PDE      0.086700
     27 HC91       -2.1960   -1.4930   -0.9760 hc        1 PDE      0.067200
     28 HC92       -3.5690   -1.2070    0.1620 hc        1 PDE      0.067200
     29 H101       -3.3000   -3.7030    0.9180 hc        1 PDE      0.094700
     30 H102       -2.2040   -3.9150   -0.5140 hc        1 PDE      0.094700
     31 HN2        -3.9980   -1.8910   -2.2220 hn        1 PDE      0.474800
     32 H12        -6.1060   -3.7700   -2.7090 hx        1 PDE      0.106700
     33 H1D1       -6.8140   -2.0650   -4.3910 hc        1 PDE      0.057033
     34 H1D2       -5.2980   -1.1110   -4.1270 hc        1 PDE      0.057033
     35 H1D3       -6.4960   -1.2940   -2.7700 hc        1 PDE      0.057033
     36 HC2         1.5710    1.0560    2.7580 ha        1 PDE      0.161500
     37 HC6         0.8090    1.3390   -1.5010 ha        1 PDE      0.161500
     38 HC5         2.4870    3.1820   -1.6860 ha        1 PDE      0.152500
     39 HC3         3.2540    2.8950    2.5860 ha        1 PDE      0.152500
     40 H22        -3.3690   -3.3290   -2.8350 hn        1 PDE      0.474800
@<TRIPOS>BOND
     1    1    2 1   
     2    1    3 1   
     3    1    4 1   
     4    1    5 1   
     5    2   16 1   
     6    5    6 1   
     7    5   25 1   
     8    5   26 1   
     9    6    7 1   
    10    6   27 1   
    11    6   28 1   
    12    7    8 1   
    13    7   29 1   
    14    7   30 1   
    15    8    9 1   
    16    8   10 2   
    17    9   11 1   
    18    9   31 1   
    19    9   40 1   
    20   11   12 1   
    21   11   13 1   
    22   11   32 1   
    23   12   33 1   
    24   12   34 1   
    25   12   35 1   
    26   13   14 1   
    27   13   15 1   
    28   16   17 ar  
    29   16   18 ar  
    30   17   21 ar  
    31   17   36 1   
    32   18   20 ar  
    33   18   37 1   
    34   19   20 ar  
    35   19   21 ar  
    36   19   22 1   
    37   20   38 1   
    38   21   39 1   
    39   22   23 1   
    40   22   24 1   
@<TRIPOS>SUBSTRUCTURE
     1 PDE         1 TEMP              0 ****  ****    0 ROOT
