@<TRIPOS>MOLECULE
PDE
   39    39     1     0     0
SMALL
bcc


@<TRIPOS>ATOM
      1 P1         -0.9960    0.5620    0.3730 p5        1 PDE      1.366600
      2 O1          0.7460    0.4700    0.4430 os        1 PDE     -0.476500
      3 O2         -1.3520    0.7480    1.7880 o         1 PDE     -0.832500
      4 O3         -1.1810    1.5890   -0.6660 o         1 PDE     -0.832500
      5 C8         -1.2410   -0.9990   -0.1680 c3        1 PDE     -0.356600
      6 C9         -2.6590   -1.1060   -0.6570 c3        1 PDE     -0.061400
      7 C10        -2.9370   -2.4590   -1.2730 c3        1 PDE     -0.141400
      8 C11        -4.4090   -2.6520   -1.6170 c         1 PDE      0.644100
      9 N2         -4.6960   -3.5620   -2.6000 n         1 PDE     -0.537900
     10 O6         -5.3030   -2.0070   -1.0210 o         1 PDE     -0.658100
     11 C12        -6.0340   -4.0030   -2.9270 c3        1 PDE     -0.029300
     12 C1D        -6.7510   -3.0750   -3.9040 c3        1 PDE     -0.083100
     13 C13        -6.0510   -5.4500   -3.5320 c         1 PDE      0.909600
     14 O7         -4.9620   -5.9860   -3.8850 o         1 PDE     -0.844300
     15 O8         -7.1810   -6.0030   -3.6290 o         1 PDE     -0.844300
     16 C1          1.5500    1.4600    0.7800 ca        1 PDE      0.343100
     17 C2          2.2310    1.4050    2.0280 ca        1 PDE     -0.227500
     18 C6          1.8560    2.5280   -0.1100 ca        1 PDE     -0.227500
     19 C4          3.4900    3.3850    1.4540 ca        1 PDE     -0.278200
     20 C5          2.8050    3.4720    0.2220 ca        1 PDE     -0.038000
     21 C3          3.1810    2.3480    2.3610 ca        1 PDE     -0.038000
     22 N1          4.5160    4.3720    1.7940 no        1 PDE      0.327200
     23 O4          4.7830    5.2590    1.0180 o         1 PDE     -0.265500
     24 O5          5.1020    4.2950    2.8490 o         1 PDE     -0.265500
     25 HC81       -1.0590   -1.7440    0.6450 hc        1 PDE      0.076700
     26 HC82       -0.5320   -1.2570   -0.9930 hc        1 PDE      0.076700
     27 HC91       -3.3620   -0.9290    0.2010 hc        1 PDE      0.066700
     28 HC92       -2.8440   -0.2930   -1.4100 hc        1 PDE      0.066700
     29 H101       -2.2960   -2.5870   -2.1850 hc        1 PDE      0.048700
     30 H102       -2.6580   -3.2680   -0.5470 hc        1 PDE      0.048700
     31 HN2        -3.9700   -4.1340   -2.9750 hn        1 PDE      0.324500
     32 H12        -6.6410   -4.0300   -1.9730 h1        1 PDE      0.050700
     33 H1D1       -6.1850   -2.9860   -4.8620 hc        1 PDE      0.025700
     34 H1D2       -6.8780   -2.0560   -3.4660 hc        1 PDE      0.025700
     35 H1D3       -7.7550   -3.5130   -4.1220 hc        1 PDE      0.025700
     36 HC2         1.9690    0.5990    2.7280 ha        1 PDE      0.164000
     37 HC6         1.2980    2.6010   -1.0580 ha        1 PDE      0.164000
     38 HC5         3.0350    4.2960   -0.4730 ha        1 PDE      0.141500
     39 HC3         3.7010    2.2980    3.3310 ha        1 PDE      0.141500
@<TRIPOS>BOND
     1    1    2 1   
     2    1    3 1   
     3    1    4 1   
     4    1    5 1   
     5    2   16 1   
     6    5    6 1   
     7    5   25 1   
     8    5   26 1   
     9    6    7 1   
    10    6   27 1   
    11    6   28 1   
    12    7    8 1   
    13    7   29 1   
    14    7   30 1   
    15    8    9 1   
    16    8   10 2   
    17    9   11 1   
    18    9   31 1   
    19   11   12 1   
    20   11   13 1   
    21   11   32 1   
    22   12   33 1   
    23   12   34 1   
    24   12   35 1   
    25   13   14 1   
    26   13   15 1   
    27   16   17 ar  
    28   16   18 ar  
    29   17   21 ar  
    30   17   36 1   
    31   18   20 ar  
    32   18   37 1   
    33   19   20 ar  
    34   19   21 ar  
    35   19   22 1   
    36   20   38 1   
    37   21   39 1   
    38   22   23 1   
    39   22   24 1   
@<TRIPOS>SUBSTRUCTURE
     1 PDE         1 TEMP              0 ****  ****    0 ROOT
