@<TRIPOS>MOLECULE
PDF
   16    16     1     0     0
SMALL
bcc


@<TRIPOS>ATOM
      1 N           0.0990    0.1620    0.0040 n4        1 PDF      0.157000
      2 CD          1.5160    0.0880    0.0820 c2        1 PDF     -0.830000
      3 CA         -0.4390    0.1480    1.4150 c3        1 PDF     -0.149000
      4 CB          0.7060   -0.3090    2.3190 c3        1 PDF     -0.186000
      5 CG          2.0060   -0.1820    1.4460 c3        1 PDF      0.380000
      6 C          -1.7240   -0.7380    1.5440 c2        1 PDF      0.338000
      7 O          -2.2350   -1.1680    0.4720 o         1 PDF     -0.549000
      8 F1          2.8220   -1.3000    1.5720 f         1 PDF     -0.218500
      9 F2          2.8770    0.7740    1.9580 f         1 PDF     -0.218500
     10 HN         -0.7330    1.2010    1.6780 hx        1 PDF      0.098000
     11 HD         -0.2030    1.0120   -0.4700 hn        1 PDF      0.179500
     12 HDA         2.1160    0.1240   -0.8110 hx        1 PDF      0.154000
     13 HA         -0.3150   -0.6350   -0.4990 hn        1 PDF      0.179500
     14 HB          0.5570   -1.3690    2.6350 hc        1 PDF      0.107000
     15 HBA         0.7740    0.3340    3.2260 hc        1 PDF      0.107000
     16 O2         -2.1660   -0.9170    2.7040 o         1 PDF     -0.549000
@<TRIPOS>BOND
     1    1    2 1   
     2    1    3 1   
     3    1   11 1   
     4    1   13 1   
     5    2    5 1   
     6    2   12 1   
     7    3    4 1   
     8    3    6 1   
     9    3   10 1   
    10    4    5 1   
    11    4   14 1   
    12    4   15 1   
    13    5    8 1   
    14    5    9 1   
    15    6    7 1   
    16    6   16 1   
@<TRIPOS>SUBSTRUCTURE
     1 PDF         1 TEMP              0 ****  ****    0 ROOT
