@<TRIPOS>MOLECULE
PDF
   16    15     1     0     0
SMALL
bcc


@<TRIPOS>ATOM
      1 N           0.2790    0.0120   -0.4710 nz        1 PDF      0.122000
      2 CD          1.5820    0.0360    0.0620 c2        1 PDF     -0.833000
      3 CA         -0.3530   -0.7340    2.4060 c2        1 PDF     -0.179000
      4 CB          0.5580    0.2310    2.2660 c2        1 PDF     -0.257000
      5 CG          1.8640   -0.0030    1.5220 c3        1 PDF      0.421000
      6 C          -1.8320   -0.4320    2.3680 c2        1 PDF      0.353000
      7 O          -2.2240   -0.1040    1.1940 o         1 PDF     -0.573500
      8 F1          2.5190   -1.1690    1.9170 f         1 PDF     -0.216500
      9 F2          2.8430    0.9200    1.8840 f         1 PDF     -0.216500
     10 HN          0.1450    0.7950   -1.1140 hn        1 PDF      0.187667
     11 HD          0.1210   -0.8410   -1.0150 hn        1 PDF      0.187667
     12 HDA         2.4090    0.0430   -0.6400 hx        1 PDF      0.139000
     13 HA         -0.4680    0.0630    0.2570 hn        1 PDF      0.187667
     14 HB         -0.0900   -1.7970    2.3030 ha        1 PDF      0.117000
     15 HBA         0.3380    1.2900    2.4580 ha        1 PDF      0.133000
     16 O2         -2.5840   -0.5350    3.3640 o         1 PDF     -0.573500
@<TRIPOS>BOND
     1    1    2 1   
     2    1   10 1   
     3    1   11 1   
     4    1   13 1   
     5    2    5 1   
     6    2   12 1   
     7    3    4 1   
     8    3    6 1   
     9    3   14 1   
    10    4    5 1   
    11    4   15 1   
    12    5    8 1   
    13    5    9 1   
    14    6    7 1   
    15    6   16 1   
@<TRIPOS>SUBSTRUCTURE
     1 PDF         1 TEMP              0 ****  ****    0 ROOT
