@<TRIPOS>MOLECULE
PDG
   41    41     1     0     0
SMALL
bcc


@<TRIPOS>ATOM
      1 N1         -0.3230   -0.4080    0.3530 nb        1 PDG     -0.671000
      2 C2          0.9080   -0.9900    0.4680 ca        1 PDG      0.317600
      3 C2A         1.6080   -1.4990   -0.7470 c3        1 PDG     -0.131400
      4 C3          1.5540   -1.0990    1.7100 ca        1 PDG     -0.050200
      5 O3          2.7730   -1.7480    1.8220 oh        1 PDG     -0.541100
      6 C4          0.9350   -0.6120    2.8910 ca        1 PDG     -0.169300
      7 C4A         1.7030   -0.6260    4.1730 c3        1 PDG      0.179100
      8 C5         -0.3360   -0.0520    2.7720 ca        1 PDG     -0.129600
      9 C6         -0.9090    0.0390    1.4590 ca        1 PDG      0.392200
     10 C5A        -1.1470    0.5150    3.9170 c3        1 PDG      0.239700
     11 OP4        -2.4940    0.4040    3.7160 os        1 PDG     -0.554200
     12 P          -3.3440    1.8790    3.3290 p5        1 PDG      1.315900
     13 OP1        -3.2050    1.8320    1.8240 o         1 PDG     -0.913833
     14 OP2        -4.7150    1.6460    3.8850 o         1 PDG     -0.913833
     15 OP3        -2.4880    2.9080    4.0140 o         1 PDG     -0.913833
     16 NA          2.1570   -1.9830    4.5910 n4        1 PDG     -0.748000
     17 CAA         3.1360   -1.9680    5.7300 c3        1 PDG     -0.027500
     18 CBA         4.5740   -2.2200    5.2780 c3        1 PDG     -0.070400
     19 CGA         5.1270   -1.1530    4.3670 c3        1 PDG     -0.207400
     20 CDA         6.5860   -1.4500    3.9770 c         1 PDG      0.910600
     21 OE1         7.4750   -0.6080    4.3010 o         1 PDG     -0.859800
     22 OE2         6.8370   -2.5040    3.3230 o         1 PDG     -0.859800
     23 CA          2.7370   -3.0520    6.8050 c         1 PDG      0.919600
     24 OA          3.3420   -2.9970    7.9020 o         1 PDG     -0.812300
     25 OXT         1.8330   -3.8750    6.4900 o         1 PDG     -0.812300
     26 H2A1        0.9330   -1.5380   -1.6350 hc        1 PDG      0.031033
     27 H2A2        2.4730   -0.8310   -0.9880 hc        1 PDG      0.031033
     28 H2A3        2.0040   -2.5260   -0.5480 hc        1 PDG      0.031033
     29 HO3         3.3930   -1.2990    1.2290 ho        1 PDG      0.422000
     30 H4A1        2.6340    0.0030    4.0420 hx        1 PDG      0.095200
     31 H4A2        1.0890   -0.1930    5.0140 hx        1 PDG      0.095200
     32 H6         -1.9270    0.5770    1.3890 h4        1 PDG      0.172100
     33 H5A1       -0.8480    1.6030    4.0460 h1        1 PDG      0.026200
     34 H5A2       -0.8670   -0.0590    4.8530 h1        1 PDG      0.026200
     35 HNA         1.3470   -2.5540    4.8890 hn        1 PDG      0.457300
     36 HAA         3.0700   -0.9600    6.2280 hx        1 PDG      0.078700
     37 HBA1        5.1870   -2.2740    6.2180 hc        1 PDG      0.072200
     38 HBA2        4.6570   -3.2180    4.7720 hc        1 PDG      0.072200
     39 HGA1        5.0760   -0.1520    4.8650 hc        1 PDG      0.023200
     40 HGA2        4.5320   -1.1020    3.4170 hc        1 PDG      0.023200
     41 HA2         2.5980   -2.4540    3.7920 hn        1 PDG      0.457300
@<TRIPOS>BOND
     1    1    2 ar  
     2    1    9 ar  
     3    2    3 1   
     4    2    4 ar  
     5    3   26 1   
     6    3   27 1   
     7    3   28 1   
     8    4    5 1   
     9    4    6 ar  
    10    5   29 1   
    11    6    7 1   
    12    6    8 ar  
    13    7   16 1   
    14    7   30 1   
    15    7   31 1   
    16    8    9 ar  
    17    8   10 1   
    18    9   32 1   
    19   10   11 1   
    20   10   33 1   
    21   10   34 1   
    22   11   12 1   
    23   12   13 1   
    24   12   14 1   
    25   12   15 1   
    26   16   17 1   
    27   16   35 1   
    28   16   41 1   
    29   17   18 1   
    30   17   23 1   
    31   17   36 1   
    32   18   19 1   
    33   18   37 1   
    34   18   38 1   
    35   19   20 1   
    36   19   39 1   
    37   19   40 1   
    38   20   21 1   
    39   20   22 1   
    40   23   24 1   
    41   23   25 1   
@<TRIPOS>SUBSTRUCTURE
     1 PDG         1 TEMP              0 ****  ****    0 ROOT
