@<TRIPOS>MOLECULE
PDG
   40    40     1     0     0
SMALL
bcc


@<TRIPOS>ATOM
      1 N1          1.8950    3.2760    0.6980 nb        1 PDG     -0.691000
      2 C2          0.5370    3.2620    0.7720 ca        1 PDG      0.278600
      3 C2A        -0.1980    4.4850    1.2070 c3        1 PDG     -0.099400
      4 C3         -0.2210    2.1160    0.4250 ca        1 PDG      0.028800
      5 O3         -1.5820    2.2940    0.4860 oh        1 PDG     -0.555100
      6 C4          0.4290    0.9190    0.0260 ca        1 PDG     -0.143300
      7 C4A        -0.3650   -0.3000   -0.3780 c3        1 PDG      0.209100
      8 C5          1.8280    0.9510   -0.0500 ca        1 PDG     -0.152600
      9 C6          2.5020    2.1630    0.2880 ca        1 PDG      0.353200
     10 C5A         2.7230   -0.1800   -0.5150 c3        1 PDG      0.243700
     11 OP4         3.9530   -0.1760    0.0980 os        1 PDG     -0.573200
     12 P           5.3330    0.2410   -0.8570 p5        1 PDG      1.318900
     13 OP1         4.9390   -0.1790   -2.2490 o         1 PDG     -0.933167
     14 OP2         5.4010    1.7330   -0.6290 o         1 PDG     -0.933167
     15 OP3         6.4420   -0.5580   -0.2260 o         1 PDG     -0.933167
     16 NA         -1.6160   -0.4820    0.3470 n3        1 PDG     -0.845200
     17 CAA        -2.5560   -1.4320   -0.2480 c3        1 PDG      0.057500
     18 CBA        -4.0210   -0.9610   -0.1360 c3        1 PDG     -0.042400
     19 CGA        -4.3810    0.1820   -1.0560 c3        1 PDG     -0.171400
     20 CDA        -5.8870    0.4580   -1.1220 c         1 PDG      0.903600
     21 OE1        -6.4520    0.4820   -2.2630 o         1 PDG     -0.891300
     22 OE2        -6.5450    0.7000   -0.0640 o         1 PDG     -0.891300
     23 CA         -2.5000   -2.8580    0.3900 c         1 PDG      0.893600
     24 OA         -2.2060   -2.9800    1.6170 o         1 PDG     -0.868800
     25 OXT        -2.7690   -3.8500   -0.3510 o         1 PDG     -0.868800
     26 H2A1       -0.8030    4.8790    0.3520 hc        1 PDG      0.014367
     27 H2A2       -0.9050    4.2180    2.0310 hc        1 PDG      0.014367
     28 H2A3        0.4870    5.2910    1.5640 hc        1 PDG      0.014367
     29 HO3        -2.0230    1.4330    0.3280 ho        1 PDG      0.471000
     30 H4A1       -0.6090   -0.1790   -1.4750 h1        1 PDG      0.039700
     31 H4A2        0.2970   -1.2110   -0.2890 h1        1 PDG      0.039700
     32 H6          3.6320    2.1690    0.1730 h4        1 PDG      0.131100
     33 H5A1        2.2120   -1.1610   -0.2840 h1        1 PDG      0.023200
     34 H5A2        2.8420   -0.0860   -1.6380 h1        1 PDG      0.023200
     35 HNA        -1.4230   -0.7730    1.2910 hn        1 PDG      0.377800
     36 HAA        -2.3220   -1.5540   -1.3450 h1        1 PDG      0.037700
     37 HBA1       -4.6600   -1.8480   -0.3900 hc        1 PDG      0.039200
     38 HBA2       -4.2530   -0.6730    0.9210 hc        1 PDG      0.039200
     39 HGA1       -3.8770    1.1210   -0.7090 hc        1 PDG      0.021700
     40 HGA2       -4.0150   -0.0360   -2.0930 hc        1 PDG      0.021700
@<TRIPOS>BOND
     1    1    2 ar  
     2    1    9 ar  
     3    2    3 1   
     4    2    4 ar  
     5    3   26 1   
     6    3   27 1   
     7    3   28 1   
     8    4    5 1   
     9    4    6 ar  
    10    5   29 1   
    11    6    7 1   
    12    6    8 ar  
    13    7   16 1   
    14    7   30 1   
    15    7   31 1   
    16    8    9 ar  
    17    8   10 1   
    18    9   32 1   
    19   10   11 1   
    20   10   33 1   
    21   10   34 1   
    22   11   12 1   
    23   12   13 1   
    24   12   14 1   
    25   12   15 1   
    26   16   17 1   
    27   16   35 1   
    28   17   18 1   
    29   17   23 1   
    30   17   36 1   
    31   18   19 1   
    32   18   37 1   
    33   18   38 1   
    34   19   20 1   
    35   19   39 1   
    36   19   40 1   
    37   20   21 1   
    38   20   22 1   
    39   23   24 1   
    40   23   25 1   
@<TRIPOS>SUBSTRUCTURE
     1 PDG         1 TEMP              0 ****  ****    0 ROOT
