@<TRIPOS>MOLECULE
PDG
   41    41     1     0     0
SMALL
bcc


@<TRIPOS>ATOM
      1 N1         -0.4310   -0.6370    0.3990 nb        1 PDG     -0.671000
      2 C2          0.8010   -1.2170    0.5150 ca        1 PDG      0.317600
      3 C2A         1.4550   -1.8240   -0.6800 c3        1 PDG     -0.131400
      4 C3          1.4920   -1.2310    1.7380 ca        1 PDG     -0.050200
      5 O3          2.7120   -1.8770    1.8570 oh        1 PDG     -0.541100
      6 C4          0.9170   -0.6490    2.8980 ca        1 PDG     -0.169300
      7 C4A         1.7320   -0.5670    4.1490 c3        1 PDG      0.179100
      8 C5         -0.3550   -0.0920    2.7810 ca        1 PDG     -0.129600
      9 C6         -0.9750   -0.1010    1.4870 ca        1 PDG      0.392200
     10 C5A        -1.1220    0.5690    3.9060 c3        1 PDG      0.239700
     11 OP4        -2.4750    0.4500    3.7630 os        1 PDG     -0.554200
     12 P          -3.3340    1.8960    3.2920 p5        1 PDG      1.315900
     13 OP1        -3.2500    1.7300    1.7910 o         1 PDG     -0.913833
     14 OP2        -4.6840    1.7170    3.9130 o         1 PDG     -0.913833
     15 OP3        -2.4500    2.9710    3.8620 o         1 PDG     -0.913833
     16 NA          2.1950   -1.8900    4.6560 ny        1 PDG     -0.748000
     17 CAA         3.2150   -1.7910    5.7550 c3        1 PDG     -0.027500
     18 CBA         4.6340   -2.0870    5.2730 c3        1 PDG     -0.070400
     19 CGA         5.1590   -1.0990    4.2610 c3        1 PDG     -0.207400
     20 CDA         6.6020   -1.4360    3.8440 c         1 PDG      0.910600
     21 OE1         7.5050   -0.5770    4.0680 o         1 PDG     -0.859800
     22 OE2         6.8240   -2.5400    3.2660 o         1 PDG     -0.859800
     23 CA          2.8520   -2.7840    6.9260 c         1 PDG      0.919600
     24 OA          3.4950   -2.6470    7.9920 o         1 PDG     -0.812300
     25 OXT         1.9330   -3.6240    6.7090 o         1 PDG     -0.812300
     26 H2A1        0.7480   -1.9290   -1.5380 hc        1 PDG      0.031033
     27 H2A2        2.3130   -1.1820   -1.0040 hc        1 PDG      0.031033
     28 H2A3        1.8550   -2.8340   -0.4150 hc        1 PDG      0.031033
     29 HO3         3.3110   -1.4810    1.2080 ho        1 PDG      0.422000
     30 H4A1        1.1500   -0.0650    4.9740 hx        1 PDG      0.095200
     31 H4A2        2.6590    0.0440    3.9350 hx        1 PDG      0.095200
     32 H6         -1.9930    0.4360    1.4110 h4        1 PDG      0.172100
     33 H5A1       -0.8100    0.0680    4.8730 h1        1 PDG      0.026200
     34 H5A2       -0.8150    1.6610    3.9380 h1        1 PDG      0.026200
     35 HNA         1.3950   -2.4300    5.0270 hn        1 PDG      0.457300
     36 HAA         3.1710   -0.7470    6.1730 hx        1 PDG      0.078700
     37 HBA1        5.2820   -2.0710    6.1910 hc        1 PDG      0.072200
     38 HBA2        4.6950   -3.1230    4.8440 hc        1 PDG      0.072200
     39 HGA1        5.1290   -0.0620    4.6800 hc        1 PDG      0.023200
     40 HGA2        4.5300   -1.1190    3.3320 hc        1 PDG      0.023200
     41 HA2         2.6060   -2.4250    3.8810 hn        1 PDG      0.457300
@<TRIPOS>BOND
     1    1    2 ar  
     2    1    9 ar  
     3    2    3 1   
     4    2    4 ar  
     5    3   26 1   
     6    3   27 1   
     7    3   28 1   
     8    4    5 1   
     9    4    6 ar  
    10    5   29 1   
    11    6    7 1   
    12    6    8 ar  
    13    7   16 1   
    14    7   30 1   
    15    7   31 1   
    16    8    9 ar  
    17    8   10 1   
    18    9   32 1   
    19   10   11 1   
    20   10   33 1   
    21   10   34 1   
    22   11   12 1   
    23   12   13 1   
    24   12   14 1   
    25   12   15 1   
    26   16   17 1   
    27   16   35 1   
    28   16   41 1   
    29   17   18 1   
    30   17   23 1   
    31   17   36 1   
    32   18   19 1   
    33   18   37 1   
    34   18   38 1   
    35   19   20 1   
    36   19   39 1   
    37   19   40 1   
    38   20   21 1   
    39   20   22 1   
    40   23   24 1   
    41   23   25 1   
@<TRIPOS>SUBSTRUCTURE
     1 PDG         1 TEMP              0 ****  ****    0 ROOT
