@<TRIPOS>MOLECULE
PDG
   41    41     1     0     0
SMALL
bcc


@<TRIPOS>ATOM
      1 N1         -0.0590   -0.2830    0.3740 nb        1 PDG     -0.674000
      2 C2          1.2720   -0.5100    0.5790 ca        1 PDG      0.310600
      3 C2A         2.1780   -0.7510   -0.5820 c3        1 PDG     -0.129400
      4 C3          1.8250   -0.5270    1.8720 ca        1 PDG     -0.021200
      5 O3          3.1910   -0.5890    2.0630 oh        1 PDG     -0.560100
      6 C4          0.9880   -0.3830    3.0100 ca        1 PDG     -0.171300
      7 C4A         1.6230   -0.3900    4.3630 c3        1 PDG      0.190100
      8 C5         -0.3690   -0.1490    2.7960 ca        1 PDG     -0.132600
      9 C6         -0.8310   -0.0870    1.4400 ca        1 PDG      0.386200
     10 C5A        -1.3890    0.1020    3.8840 c3        1 PDG      0.237700
     11 OP4        -2.6590   -0.2530    3.5230 os        1 PDG     -0.558200
     12 P          -3.7630    1.0460    3.1630 p5        1 PDG      1.314900
     13 OP1        -3.5190    1.1610    1.6760 o         1 PDG     -0.919833
     14 OP2        -5.0940    0.4960    3.5820 o         1 PDG     -0.919833
     15 OP3        -3.2060    2.1730    3.9900 o         1 PDG     -0.919833
     16 NA          2.4190   -1.6230    4.6490 n4        1 PDG     -0.760000
     17 CAA         3.4450   -1.4180    5.7190 c3        1 PDG     -0.017500
     18 CBA         4.7210   -2.2200    5.4600 c3        1 PDG     -0.067400
     19 CGA         5.4580   -1.8290    4.1990 c3        1 PDG     -0.211400
     20 CDA         5.2540   -2.8490    3.0740 c         1 PDG      0.908600
     21 OE1         6.2610   -3.3940    2.5460 o         1 PDG     -0.856300
     22 OE2         4.0600   -3.0940    2.6990 o         1 PDG     -0.856300
     23 CA          2.9140   -1.8460    7.1380 c         1 PDG      0.917600
     24 OA          3.5120   -1.3410    8.1220 o         1 PDG     -0.815300
     25 OXT         1.9620   -2.6690    7.1810 o         1 PDG     -0.815300
     26 H2A1        1.6620   -0.6010   -1.5600 hc        1 PDG      0.030033
     27 H2A2        2.5660   -1.8010   -0.5370 hc        1 PDG      0.030033
     28 H2A3        3.0510   -0.0550   -0.5220 hc        1 PDG      0.030033
     29 HO3         3.5050   -1.4250    1.6650 ho        1 PDG      0.455000
     30 H4A1        2.3270    0.4910    4.4150 hx        1 PDG      0.087700
     31 H4A2        0.8500   -0.2830    5.1770 hx        1 PDG      0.087700
     32 H6         -1.9340    0.1890    1.2940 h4        1 PDG      0.160100
     33 H5A1       -1.0830   -0.5060    4.7900 h1        1 PDG      0.025700
     34 H5A2       -1.3420    1.2060    4.1470 h1        1 PDG      0.025700
     35 HNA         1.7820   -2.3620    4.9810 hn        1 PDG      0.473800
     36 HAA         3.7020   -0.3230    5.7580 hx        1 PDG      0.070700
     37 HBA1        4.4700   -3.3140    5.4310 hc        1 PDG      0.057200
     38 HBA2        5.3730   -2.0490    6.3580 hc        1 PDG      0.057200
     39 HGA1        6.5530   -1.7450    4.4130 hc        1 PDG      0.035700
     40 HGA2        5.1040   -0.8350    3.8210 hc        1 PDG      0.035700
     41 HA2         2.8940   -1.9570    3.7800 hn        1 PDG      0.473800
@<TRIPOS>BOND
     1    1    2 ar  
     2    1    9 ar  
     3    2    3 1   
     4    2    4 ar  
     5    3   26 1   
     6    3   27 1   
     7    3   28 1   
     8    4    5 1   
     9    4    6 ar  
    10    5   29 1   
    11    6    7 1   
    12    6    8 ar  
    13    7   16 1   
    14    7   30 1   
    15    7   31 1   
    16    8    9 ar  
    17    8   10 1   
    18    9   32 1   
    19   10   11 1   
    20   10   33 1   
    21   10   34 1   
    22   11   12 1   
    23   12   13 1   
    24   12   14 1   
    25   12   15 1   
    26   16   17 1   
    27   16   35 1   
    28   16   41 1   
    29   17   18 1   
    30   17   23 1   
    31   17   36 1   
    32   18   19 1   
    33   18   37 1   
    34   18   38 1   
    35   19   20 1   
    36   19   39 1   
    37   19   40 1   
    38   20   21 1   
    39   20   22 1   
    40   23   24 1   
    41   23   25 1   
@<TRIPOS>SUBSTRUCTURE
     1 PDG         1 TEMP              0 ****  ****    0 ROOT
