@<TRIPOS>MOLECULE
PDH
   25    25     1     0     0
SMALL
bcc


@<TRIPOS>ATOM
      1 C          -0.0560    0.0900    0.0220 c3        1 PDH      0.110400
      2 O          -0.4980   -0.9990    0.8120 oh        1 PDH     -0.633800
      3 CA          1.4810    0.0060   -0.0290 c3        1 PDH      0.116500
      4 N           2.0590   -0.1490    1.3500 nz        1 PDH     -0.833600
      5 CB          2.0530    1.2400   -0.7370 c3        1 PDH     -0.056100
      6 CG          3.5400    1.2360   -0.7170 ca        1 PDH     -0.158300
      7 CD1         4.2590    0.6070   -1.7390 ca        1 PDH     -0.136000
      8 CD2         4.2310    1.8930    0.3110 ca        1 PDH     -0.136000
      9 CE1         5.6540    0.6280   -1.7290 ca        1 PDH     -0.111500
     10 CE2         5.6230    1.9140    0.3170 ca        1 PDH     -0.111500
     11 CZ          6.3370    1.2790   -0.7020 ca        1 PDH     -0.098000
     12 H1         -0.3930    1.0540    0.4900 h1        1 PDH      0.074200
     13 H2         -0.4440    0.0280   -1.0300 h1        1 PDH      0.074200
     14 HO         -1.4150   -1.1890    0.5730 ho        1 PDH      0.456000
     15 HA          1.7800   -0.9280   -0.5950 hx        1 PDH      0.119700
     16 HN          1.7720    0.6380    1.9370 hn        1 PDH      0.464800
     17 H           1.7040   -1.0190    1.7640 hn        1 PDH      0.464800
     18 HB1         1.6560    2.1770   -0.2610 hc        1 PDH      0.091700
     19 HB2         1.6760    1.2200   -1.7960 hc        1 PDH      0.091700
     20 HD1         3.7250    0.1090   -2.5630 ha        1 PDH      0.135000
     21 HD2         3.6750    2.4380    1.0890 ha        1 PDH      0.135000
     22 HE1         6.2150    0.1390   -2.5410 ha        1 PDH      0.157000
     23 HE2         6.1620    2.4450    1.1180 ha        1 PDH      0.157000
     24 HZ          7.4390    1.3030   -0.7000 ha        1 PDH      0.160000
     25 HN3         3.0850   -0.1650    1.2890 hn        1 PDH      0.464800
@<TRIPOS>BOND
     1    1    2 1   
     2    1    3 1   
     3    1   12 1   
     4    1   13 1   
     5    2   14 1   
     6    3    4 1   
     7    3    5 1   
     8    3   15 1   
     9    4   16 1   
    10    4   17 1   
    11    4   25 1   
    12    5    6 1   
    13    5   18 1   
    14    5   19 1   
    15    6    7 ar  
    16    6    8 ar  
    17    7    9 ar  
    18    7   20 1   
    19    8   10 ar  
    20    8   21 1   
    21    9   11 ar  
    22    9   22 1   
    23   10   11 ar  
    24   10   23 1   
    25   11   24 1   
@<TRIPOS>SUBSTRUCTURE
     1 PDH         1 TEMP              0 ****  ****    0 ROOT
