@<TRIPOS>MOLECULE
PDH
   25    25     1     0     0
SMALL
bcc


@<TRIPOS>ATOM
      1 C          -0.0560    0.0870    0.0200 c3        1 PDH      0.110400
      2 O          -0.4970   -0.9980    0.8150 oh        1 PDH     -0.633800
      3 CA          1.4820    0.0050   -0.0280 c3        1 PDH      0.116500
      4 N           2.0580   -0.1420    1.3530 n4        1 PDH     -0.833600
      5 CB          2.0530    1.2360   -0.7410 c3        1 PDH     -0.056100
      6 CG          3.5400    1.2340   -0.7190 ca        1 PDH     -0.158300
      7 CD1         4.2610    0.6010   -1.7360 ca        1 PDH     -0.135500
      8 CD2         4.2280    1.8980    0.3060 ca        1 PDH     -0.135500
      9 CE1         5.6560    0.6240   -1.7240 ca        1 PDH     -0.111500
     10 CE2         5.6210    1.9210    0.3150 ca        1 PDH     -0.111500
     11 CZ          6.3370    1.2810   -0.6990 ca        1 PDH     -0.098000
     12 H1         -0.3940    1.0530    0.4830 h1        1 PDH      0.074200
     13 H2         -0.4420    0.0190   -1.0320 h1        1 PDH      0.074200
     14 HO         -1.4130   -1.1910    0.5760 ho        1 PDH      0.456000
     15 HA          1.7830   -0.9320   -0.5890 hx        1 PDH      0.119700
     16 HN          3.0830   -0.1570    1.2930 hn        1 PDH      0.464800
     17 H           1.7040   -1.0110    1.7700 hn        1 PDH      0.464800
     18 HB1         1.6540    2.1750   -0.2710 hc        1 PDH      0.091700
     19 HB2         1.6780    1.2100   -1.8010 hc        1 PDH      0.091700
     20 HD1         3.7300    0.0970   -2.5590 ha        1 PDH      0.135000
     21 HD2         3.6710    2.4460    1.0810 ha        1 PDH      0.135000
     22 HE1         6.2190    0.1310   -2.5330 ha        1 PDH      0.157000
     23 HE2         6.1580    2.4570    1.1130 ha        1 PDH      0.157000
     24 HZ          7.4390    1.3060   -0.6960 ha        1 PDH      0.160000
     25 HN3         1.7680    0.6470    1.9360 hn        1 PDH      0.464800
@<TRIPOS>BOND
     1    1    2 1   
     2    1    3 1   
     3    1   12 1   
     4    1   13 1   
     5    2   14 1   
     6    3    4 1   
     7    3    5 1   
     8    3   15 1   
     9    4   16 1   
    10    4   17 1   
    11    4   25 1   
    12    5    6 1   
    13    5   18 1   
    14    5   19 1   
    15    6    7 ar  
    16    6    8 ar  
    17    7    9 ar  
    18    7   20 1   
    19    8   10 ar  
    20    8   21 1   
    21    9   11 ar  
    22    9   22 1   
    23   10   11 ar  
    24   10   23 1   
    25   11   24 1   
@<TRIPOS>SUBSTRUCTURE
     1 PDH         1 TEMP              0 ****  ****    0 ROOT
