@<TRIPOS>MOLECULE
PDH
   24    24     1     0     0
SMALL
bcc


@<TRIPOS>ATOM
      1 C          -0.4970   -0.3680   -2.9870 c3        1 PDH      0.084400
      2 O          -0.1520    0.6140   -3.9490 oh        1 PDH     -0.606800
      3 CA          0.0810    0.0960   -1.6280 c3        1 PDH      0.169500
      4 N           1.5000    0.3850   -1.6420 n3        1 PDH     -0.891800
      5 CB         -0.2970   -0.9740   -0.5880 c3        1 PDH     -0.031100
      6 CG         -0.1900   -0.4640    0.8060 ca        1 PDH     -0.074300
      7 CD1        -1.3360   -0.0440    1.4920 ca        1 PDH     -0.117000
      8 CD2         1.0510   -0.4140    1.4510 ca        1 PDH     -0.117000
      9 CE1        -1.2420    0.4180    2.8030 ca        1 PDH     -0.132500
     10 CE2         1.1430    0.0510    2.7620 ca        1 PDH     -0.132500
     11 CZ         -0.0030    0.4660    3.4410 ca        1 PDH     -0.131000
     12 H1         -0.0660   -1.3610   -3.2840 h1        1 PDH      0.024700
     13 H2         -1.6130   -0.4610   -2.9130 h1        1 PDH      0.024700
     14 HO         -0.5670    0.3490   -4.7770 ho        1 PDH      0.404000
     15 HA         -0.4420    1.0620   -1.3550 h1        1 PDH      0.076700
     16 HN          2.0210   -0.4280   -1.9080 hn        1 PDH      0.351300
     17 H           1.6850    1.1170   -2.3010 hn        1 PDH      0.351300
     18 HB1        -1.3540   -1.2980   -0.7890 hc        1 PDH      0.047200
     19 HB2         0.3580   -1.8770   -0.7120 hc        1 PDH      0.047200
     20 HD1        -2.3170   -0.0800    0.9940 ha        1 PDH      0.132500
     21 HD2         1.9580   -0.7280    0.9130 ha        1 PDH      0.132500
     22 HE1        -2.1470    0.7460    3.3340 ha        1 PDH      0.129000
     23 HE2         2.1220    0.0910    3.2610 ha        1 PDH      0.129000
     24 HZ          0.0710    0.8320    4.4750 ha        1 PDH      0.129000
@<TRIPOS>BOND
     1    1    2 1   
     2    1    3 1   
     3    1   12 1   
     4    1   13 1   
     5    2   14 1   
     6    3    4 1   
     7    3    5 1   
     8    3   15 1   
     9    4   16 1   
    10    4   17 1   
    11    5    6 1   
    12    5   18 1   
    13    5   19 1   
    14    6    7 ar  
    15    6    8 ar  
    16    7    9 ar  
    17    7   20 1   
    18    8   10 ar  
    19    8   21 1   
    20    9   11 ar  
    21    9   22 1   
    22   10   11 ar  
    23   10   23 1   
    24   11   24 1   
@<TRIPOS>SUBSTRUCTURE
     1 PDH         1 TEMP              0 ****  ****    0 ROOT
