@<TRIPOS>MOLECULE
PDH
   25    25     1     0     0
SMALL
bcc


@<TRIPOS>ATOM
      1 C          -0.0580    0.1000    0.0210 c3        1 PDH      0.110400
      2 O          -0.5030   -0.9870    0.8110 oh        1 PDH     -0.633800
      3 CA          1.4790    0.0120   -0.0300 c3        1 PDH      0.116500
      4 N           2.0560   -0.1460    1.3500 n4        1 PDH     -0.833600
      5 CB          2.0550    1.2440   -0.7360 c3        1 PDH     -0.056100
      6 CG          3.5420    1.2350   -0.7160 ca        1 PDH     -0.158300
      7 CD1         4.2590    0.6040   -1.7380 ca        1 PDH     -0.136000
      8 CD2         4.2340    1.8890    0.3120 ca        1 PDH     -0.136000
      9 CE1         5.6540    0.6210   -1.7280 ca        1 PDH     -0.111500
     10 CE2         5.6270    1.9050    0.3200 ca        1 PDH     -0.111500
     11 CZ          6.3390    1.2680   -0.7000 ca        1 PDH     -0.098000
     12 H1         -0.3920    1.0650    0.4900 h1        1 PDH      0.074200
     13 H2         -0.4460    0.0400   -1.0300 h1        1 PDH      0.074200
     14 HO         -1.4210   -1.1750    0.5710 ho        1 PDH      0.456000
     15 HA          1.7750   -0.9240   -0.5960 hx        1 PDH      0.119700
     16 HN          3.0820   -0.1660    1.2890 hn        1 PDH      0.464800
     17 H           1.6980   -1.0150    1.7630 hn        1 PDH      0.464800
     18 HB1         1.6610    2.1820   -0.2600 hc        1 PDH      0.091700
     19 HB2         1.6790    1.2250   -1.7960 hc        1 PDH      0.091700
     20 HD1         3.7240    0.1090   -2.5640 ha        1 PDH      0.135000
     21 HD2         3.6800    2.4340    1.0920 ha        1 PDH      0.135000
     22 HE1         6.2140    0.1310   -2.5410 ha        1 PDH      0.157000
     23 HE2         6.1680    2.4330    1.1210 ha        1 PDH      0.157000
     24 HZ          7.4410    1.2880   -0.6970 ha        1 PDH      0.160000
     25 HN3         1.7710    0.6410    1.9370 hn        1 PDH      0.464800
@<TRIPOS>BOND
     1    1    2 1   
     2    1    3 1   
     3    1   12 1   
     4    1   13 1   
     5    2   14 1   
     6    3    4 1   
     7    3    5 1   
     8    3   15 1   
     9    4   16 1   
    10    4   17 1   
    11    4   25 1   
    12    5    6 1   
    13    5   18 1   
    14    5   19 1   
    15    6    7 ar  
    16    6    8 ar  
    17    7    9 ar  
    18    7   20 1   
    19    8   10 ar  
    20    8   21 1   
    21    9   11 ar  
    22    9   22 1   
    23   10   11 ar  
    24   10   23 1   
    25   11   24 1   
@<TRIPOS>SUBSTRUCTURE
     1 PDH         1 TEMP              0 ****  ****    0 ROOT
