@<TRIPOS>MOLECULE
PDI
   16    15     1     0     0
SMALL
bcc


@<TRIPOS>ATOM
      1 O3P        -0.9890    0.3780   -2.7740 o         1 PDI     -0.936833
      2 P           0.0620   -0.0500   -1.7880 p5        1 PDI      1.312900
      3 O1P         0.3240   -1.5300   -1.6790 o         1 PDI     -0.936833
      4 O2P         1.2900    0.8210   -1.6910 o         1 PDI     -0.936833
      5 OA         -0.7150    0.2780   -0.2590 os        1 PDI     -0.563200
      6 CA          0.1380   -0.0680    0.7600 c3        1 PDI      0.199400
      7 CB         -0.5160    0.2080    2.1210 c3        1 PDI     -0.098400
      8 CG          0.4400   -0.1790    3.2290 c3        1 PDI      0.127400
      9 OG         -0.1800    0.0820    4.4880 oh        1 PDI     -0.625800
     10 HA1         1.0940    0.5260    0.6780 h1        1 PDI      0.005700
     11 HA2         0.4000   -1.1630    0.6870 h1        1 PDI      0.005700
     12 HB1        -1.4650   -0.3770    2.2100 hc        1 PDI      0.032700
     13 HB2        -0.7790    1.2910    2.2020 hc        1 PDI      0.032700
     14 HG1         1.3900    0.4160    3.1570 h1        1 PDI      0.009700
     15 HG2         0.6960   -1.2720    3.1650 h1        1 PDI      0.009700
     16 HGT         0.4600   -0.1780    5.1580 ho        1 PDI      0.360000
@<TRIPOS>BOND
     1    1    2 1   
     2    2    3 1   
     3    2    4 1   
     4    2    5 1   
     5    5    6 1   
     6    6    7 1   
     7    6   10 1   
     8    6   11 1   
     9    7    8 1   
    10    7   12 1   
    11    7   13 1   
    12    8    9 1   
    13    8   14 1   
    14    8   15 1   
    15    9   16 1   
@<TRIPOS>SUBSTRUCTURE
     1 PDI         1 TEMP              0 ****  ****    0 ROOT
