@<TRIPOS>MOLECULE
PDJ
  120   119     1     0     0
SMALL
bcc


@<TRIPOS>ATOM
      1 CB         -0.6410    6.7090   -1.4350 c3        1 PDJ     -0.020300
      2 SG          0.3340    6.1330   -0.0790 ss        1 PDJ     -0.247200
      3 C          -1.0200    8.5970   -2.9850 c3        1 PDJ      0.085400
      4 O          -0.7920    9.9840   -3.1650 oh        1 PDJ     -0.604800
      5 N          -0.8980    8.9870   -0.4920 n3        1 PDJ     -0.889800
      6 CA         -0.4130    8.2110   -1.6130 c3        1 PDJ      0.181500
      7 C1          0.3290    4.3930   -0.3920 c3        1 PDJ     -0.036300
      8 C2          0.8460    3.7040    0.8590 c3        1 PDJ      0.166100
      9 O2          1.5930    2.5660    0.3890 os        1 PDJ     -0.436900
     10 C3         -0.2660    3.2540    1.8050 c3        1 PDJ      0.114400
     11 O3         -1.1590    2.4100    1.0640 os        1 PDJ     -0.441900
     12 C11       -19.1450   -5.2410   -1.8250 c3        1 PDJ     -0.092100
     13 C12       -18.3020   -4.2440   -1.0720 c3        1 PDJ     -0.080400
     14 C13       -16.8380   -4.3670   -1.4340 c3        1 PDJ     -0.079400
     15 C14       -15.9960   -3.3630   -0.6760 c3        1 PDJ     -0.079400
     16 C15       -14.5320   -3.4870   -1.0390 c3        1 PDJ     -0.078400
     17 C16       -13.6900   -2.4840   -0.2810 c3        1 PDJ     -0.079400
     18 C17       -12.2260   -2.6080   -0.6440 c3        1 PDJ     -0.078400
     19 C18       -11.3850   -1.6050    0.1150 c3        1 PDJ     -0.079400
     20 C19        -9.9210   -1.7290   -0.2480 c3        1 PDJ     -0.078400
     21 C20        -9.0790   -0.7250    0.5100 c3        1 PDJ     -0.079400
     22 C21        -7.6150   -0.8490    0.1470 c3        1 PDJ     -0.078400
     23 C22        -6.7740    0.1550    0.9060 c3        1 PDJ     -0.079400
     24 C23        -5.3100    0.0310    0.5410 c3        1 PDJ     -0.078400
     25 C24        -4.4730    1.0330    1.3060 c3        1 PDJ     -0.079400
     26 C25        -3.0130    0.9170    0.9220 c3        1 PDJ     -0.126400
     27 C26        -2.1630    1.8070    1.7740 c         1 PDJ      0.630100
     28 O28        -2.2450    2.0390    2.9810 o         1 PDJ     -0.537000
     29 C31        18.3970   -7.7520   -0.8000 c3        1 PDJ     -0.092100
     30 C32        17.7170   -6.4980   -0.3130 c3        1 PDJ     -0.080400
     31 C33        16.2300   -6.5260   -0.5990 c3        1 PDJ     -0.079400
     32 C34        15.5510   -5.2650   -0.1080 c3        1 PDJ     -0.079400
     33 C35        14.0650   -5.2940   -0.3950 c3        1 PDJ     -0.078400
     34 C36        13.3860   -4.0330    0.0960 c3        1 PDJ     -0.079400
     35 C37        11.9000   -4.0620   -0.1910 c3        1 PDJ     -0.078400
     36 C38        11.2220   -2.8010    0.2990 c3        1 PDJ     -0.079400
     37 C39         9.7360   -2.8300    0.0120 c3        1 PDJ     -0.078400
     38 C40         9.0570   -1.5690    0.5020 c3        1 PDJ     -0.079400
     39 C41         7.5720   -1.5970    0.2150 c3        1 PDJ     -0.078400
     40 C42         6.8940   -0.3360    0.7050 c3        1 PDJ     -0.079400
     41 C43         5.4080   -0.3640    0.4170 c3        1 PDJ     -0.078400
     42 C44         4.7340    0.8970    0.9130 c3        1 PDJ     -0.079400
     43 C45         3.2520    0.8710    0.6030 c3        1 PDJ     -0.126400
     44 C46         2.5570    2.0490    1.2120 c         1 PDJ      0.634100
     45 O47         2.7330    2.5670    2.3160 o         1 PDJ     -0.541000
     46 H111      -20.2200   -5.1330   -1.5430 hc        1 PDJ      0.032700
     47 H112      -19.0510   -5.0830   -2.9270 hc        1 PDJ      0.032700
     48 H113      -18.8220   -6.2850   -1.5930 hc        1 PDJ      0.032700
     49 H121      -18.6570   -3.2030   -1.2990 hc        1 PDJ      0.038700
     50 H122      -18.4280   -4.4010    0.0320 hc        1 PDJ      0.038700
     51 H131      -16.4810   -5.4060   -1.2070 hc        1 PDJ      0.039700
     52 H132      -16.7100   -4.2080   -2.5380 hc        1 PDJ      0.039700
     53 H141      -16.3530   -2.3240   -0.9030 hc        1 PDJ      0.039700
     54 H142      -16.1250   -3.5220    0.4270 hc        1 PDJ      0.039700
     55 H151      -14.1750   -4.5260   -0.8110 hc        1 PDJ      0.039700
     56 H152      -14.4030   -3.3290   -2.1420 hc        1 PDJ      0.039700
     57 H161      -14.0470   -1.4450   -0.5080 hc        1 PDJ      0.039700
     58 H162      -13.8190   -2.6430    0.8230 hc        1 PDJ      0.039700
     59 H171      -11.8690   -3.6470   -0.4160 hc        1 PDJ      0.039200
     60 H172      -12.0980   -2.4490   -1.7470 hc        1 PDJ      0.039200
     61 H181      -11.7420   -0.5660   -0.1130 hc        1 PDJ      0.040200
     62 H182      -11.5130   -1.7640    1.2180 hc        1 PDJ      0.040200
     63 H191       -9.5630   -2.7680   -0.0210 hc        1 PDJ      0.039200
     64 H192       -9.7920   -1.5700   -1.3520 hc        1 PDJ      0.039200
     65 H201       -9.4370    0.3140    0.2830 hc        1 PDJ      0.040700
     66 H202       -9.2080   -0.8840    1.6130 hc        1 PDJ      0.040700
     67 H211       -7.2580   -1.8880    0.3750 hc        1 PDJ      0.039700
     68 H212       -7.4870   -0.6900   -0.9560 hc        1 PDJ      0.039700
     69 H221       -7.1320    1.1940    0.6790 hc        1 PDJ      0.043200
     70 H222       -6.9020   -0.0050    2.0090 hc        1 PDJ      0.043200
     71 H231       -4.9540   -1.0090    0.7670 hc        1 PDJ      0.040700
     72 H232       -5.1820    0.1940   -0.5610 hc        1 PDJ      0.040700
     73 H241       -4.8370    2.0720    1.0930 hc        1 PDJ      0.057700
     74 H242       -4.5830    0.8640    2.4110 hc        1 PDJ      0.057700
     75 H251       -2.6520   -0.1360    1.0760 hc        1 PDJ      0.077200
     76 H252       -2.8670    1.1750   -0.1590 hc        1 PDJ      0.077200
     77 H31         0.1640    2.6760    2.6650 h1        1 PDJ      0.075700
     78 H32        -0.8370    4.1410    2.1850 h1        1 PDJ      0.075700
     79 H2          1.5350    4.3850    1.4420 h1        1 PDJ      0.095700
     80 H11        -0.6980    4.0280   -0.6390 h1        1 PDJ      0.078700
     81 H12         0.9900    4.1480   -1.2600 h1        1 PDJ      0.078700
     82 HB1        -0.3380    6.1790   -2.3710 h1        1 PDJ      0.060200
     83 HB2        -1.7220    6.4890   -1.2560 h1        1 PDJ      0.060200
     84 HA          0.7020    8.4020   -1.6770 h1        1 PDJ      0.087700
     85 HN1        -0.7100    9.9590   -0.6530 hn        1 PDJ      0.356300
     86 HN2        -1.8830    8.8610   -0.3700 hn        1 PDJ      0.356300
     87 H1         -2.1230    8.3850   -3.0050 h1        1 PDJ      0.026200
     88 H2A        -0.5190    8.0120   -3.8000 h1        1 PDJ      0.026200
     89 HO         -1.1170   10.2070   -4.0450 ho        1 PDJ      0.406000
     90 H451        3.0800    0.8610   -0.5050 hc        1 PDJ      0.078200
     91 H452        2.7800   -0.0540    1.0330 hc        1 PDJ      0.078200
     92 H441        4.8820    1.0030    2.0210 hc        1 PDJ      0.058200
     93 H442        5.2040    1.7940    0.4290 hc        1 PDJ      0.058200
     94 H431        5.2410   -0.4720   -0.6880 hc        1 PDJ      0.040700
     95 H432        4.9460   -1.2590    0.9110 hc        1 PDJ      0.040700
     96 H421        7.0600   -0.2230    1.8090 hc        1 PDJ      0.043200
     97 H422        7.3570    0.5580    0.2090 hc        1 PDJ      0.043200
     98 H411        7.4040   -1.7100   -0.8890 hc        1 PDJ      0.039200
     99 H412        7.1090   -2.4900    0.7130 hc        1 PDJ      0.039200
    100 H401        9.2250   -1.4560    1.6060 hc        1 PDJ      0.040700
    101 H402        9.5200   -0.6750    0.0050 hc        1 PDJ      0.040700
    102 H391        9.5680   -2.9430   -1.0910 hc        1 PDJ      0.039200
    103 H392        9.2740   -3.7230    0.5100 hc        1 PDJ      0.039200
    104 H381       11.3900   -2.6880    1.4030 hc        1 PDJ      0.039700
    105 H382       11.6840   -1.9080   -0.1980 hc        1 PDJ      0.039700
    106 H371       11.7320   -4.1750   -1.2950 hc        1 PDJ      0.039700
    107 H372       11.4390   -4.9560    0.3060 hc        1 PDJ      0.039700
    108 H361       13.5540   -3.9210    1.1990 hc        1 PDJ      0.039700
    109 H362       13.8480   -3.1400   -0.4020 hc        1 PDJ      0.039700
    110 H351       13.8970   -5.4070   -1.4980 hc        1 PDJ      0.039700
    111 H352       13.6040   -6.1880    0.1020 hc        1 PDJ      0.039700
    112 H341       15.7190   -5.1530    0.9950 hc        1 PDJ      0.039700
    113 H342       16.0130   -4.3720   -0.6060 hc        1 PDJ      0.039700
    114 H331       16.0620   -6.6390   -1.7030 hc        1 PDJ      0.039700
    115 H332       15.7690   -7.4200   -0.1020 hc        1 PDJ      0.039700
    116 H321       17.8830   -6.3840    0.7910 hc        1 PDJ      0.038700
    117 H322       18.1760   -5.6030   -0.8100 hc        1 PDJ      0.038700
    118 H311       18.2640   -7.8700   -1.9020 hc        1 PDJ      0.032700
    119 H312       19.4910   -7.7100   -0.5790 hc        1 PDJ      0.032700
    120 H313       17.9700   -8.6530   -0.2970 hc        1 PDJ      0.032700
@<TRIPOS>BOND
     1    1    2 1   
     2    1    6 1   
     3    1   82 1   
     4    1   83 1   
     5    2    7 1   
     6    3    4 1   
     7    3    6 1   
     8    3   87 1   
     9    3   88 1   
    10    4   89 1   
    11    5    6 1   
    12    5   85 1   
    13    5   86 1   
    14    6   84 1   
    15    7    8 1   
    16    7   80 1   
    17    7   81 1   
    18    8    9 1   
    19    8   10 1   
    20    8   79 1   
    21    9   44 1   
    22   10   11 1   
    23   10   77 1   
    24   10   78 1   
    25   11   27 1   
    26   12   13 1   
    27   12   46 1   
    28   12   47 1   
    29   12   48 1   
    30   13   14 1   
    31   13   49 1   
    32   13   50 1   
    33   14   15 1   
    34   14   51 1   
    35   14   52 1   
    36   15   16 1   
    37   15   53 1   
    38   15   54 1   
    39   16   17 1   
    40   16   55 1   
    41   16   56 1   
    42   17   18 1   
    43   17   57 1   
    44   17   58 1   
    45   18   19 1   
    46   18   59 1   
    47   18   60 1   
    48   19   20 1   
    49   19   61 1   
    50   19   62 1   
    51   20   21 1   
    52   20   63 1   
    53   20   64 1   
    54   21   22 1   
    55   21   65 1   
    56   21   66 1   
    57   22   23 1   
    58   22   67 1   
    59   22   68 1   
    60   23   24 1   
    61   23   69 1   
    62   23   70 1   
    63   24   25 1   
    64   24   71 1   
    65   24   72 1   
    66   25   26 1   
    67   25   73 1   
    68   25   74 1   
    69   26   27 1   
    70   26   75 1   
    71   26   76 1   
    72   27   28 2   
    73   29   30 1   
    74   29  118 1   
    75   29  119 1   
    76   29  120 1   
    77   30   31 1   
    78   30  116 1   
    79   30  117 1   
    80   31   32 1   
    81   31  114 1   
    82   31  115 1   
    83   32   33 1   
    84   32  112 1   
    85   32  113 1   
    86   33   34 1   
    87   33  110 1   
    88   33  111 1   
    89   34   35 1   
    90   34  108 1   
    91   34  109 1   
    92   35   36 1   
    93   35  106 1   
    94   35  107 1   
    95   36   37 1   
    96   36  104 1   
    97   36  105 1   
    98   37   38 1   
    99   37  102 1   
   100   37  103 1   
   101   38   39 1   
   102   38  100 1   
   103   38  101 1   
   104   39   40 1   
   105   39   98 1   
   106   39   99 1   
   107   40   41 1   
   108   40   96 1   
   109   40   97 1   
   110   41   42 1   
   111   41   94 1   
   112   41   95 1   
   113   42   43 1   
   114   42   92 1   
   115   42   93 1   
   116   43   44 1   
   117   43   90 1   
   118   43   91 1   
   119   44   45 2   
@<TRIPOS>SUBSTRUCTURE
     1 PDJ         1 TEMP              0 ****  ****    0 ROOT
