@<TRIPOS>MOLECULE
PDJ
  121   120     1     0     0
SMALL
bcc


@<TRIPOS>ATOM
      1 CB          1.0670    1.7300    1.1260 c3        1 PDJ     -0.071300
      2 SG         -0.5570    1.9160    1.7780 ss        1 PDJ     -0.261200
      3 C           3.3450    0.7280    1.4270 c3        1 PDJ      0.114400
      4 O           4.0140   -0.3220    2.1000 oh        1 PDJ     -0.623800
      5 N           1.5790    0.3900    3.1820 n4        1 PDJ     -0.828600
      6 CA          1.8410    0.5550    1.7160 c3        1 PDJ      0.116500
      7 C1         -1.5490    0.7180    0.9200 c3        1 PDJ     -0.047300
      8 C2         -2.3150   -0.1300    1.9220 c3        1 PDJ      0.133100
      9 O2         -2.1970   -1.5240    1.5860 os        1 PDJ     -0.409900
     10 C3         -3.8220    0.1660    1.9230 c3        1 PDJ      0.134400
     11 O3         -4.3480    0.1390    0.6030 os        1 PDJ     -0.450900
     12 C11       -19.2690   -3.1880  -11.8350 c3        1 PDJ     -0.093100
     13 C12       -18.7790   -3.2190  -10.4100 c3        1 PDJ     -0.080400
     14 C13       -17.3120   -2.8590  -10.3190 c3        1 PDJ     -0.079400
     15 C14       -16.8240   -2.8920   -8.8860 c3        1 PDJ     -0.079400
     16 C15       -15.3570   -2.5310   -8.7960 c3        1 PDJ     -0.078400
     17 C16       -14.8700   -2.5630   -7.3640 c3        1 PDJ     -0.079400
     18 C17       -13.4030   -2.2010   -7.2740 c3        1 PDJ     -0.078400
     19 C18       -12.9170   -2.2300   -5.8410 c3        1 PDJ     -0.079400
     20 C19       -11.4500   -1.8670   -5.7510 c3        1 PDJ     -0.078400
     21 C20       -10.9650   -1.8930   -4.3170 c3        1 PDJ     -0.079400
     22 C21        -9.4990   -1.5270   -4.2280 c3        1 PDJ     -0.078400
     23 C22        -9.0160   -1.5500   -2.7930 c3        1 PDJ     -0.079400
     24 C23        -7.5510   -1.1780   -2.7040 c3        1 PDJ     -0.078400
     25 C24        -7.0730   -1.2030   -1.2680 c3        1 PDJ     -0.080400
     26 C25        -5.6120   -0.8070   -1.1850 c3        1 PDJ     -0.124400
     27 C26        -5.1030   -0.9490    0.2140 c         1 PDJ      0.640100
     28 O28        -5.2560   -1.8640    1.0210 o         1 PDJ     -0.521000
     29 C31         7.3460  -18.6330   -1.1490 c3        1 PDJ     -0.093100
     30 C32         7.4530  -17.1330   -1.0540 c3        1 PDJ     -0.079400
     31 C33         6.1160  -16.5000   -0.7330 c3        1 PDJ     -0.079400
     32 C34         6.2280  -14.9940   -0.6380 c3        1 PDJ     -0.078400
     33 C35         4.8900  -14.3620   -0.3180 c3        1 PDJ     -0.079400
     34 C36         5.0030  -12.8560   -0.2220 c3        1 PDJ     -0.078400
     35 C37         3.6650  -12.2250    0.0990 c3        1 PDJ     -0.079400
     36 C38         3.7780  -10.7180    0.1970 c3        1 PDJ     -0.078400
     37 C39         2.4400  -10.0880    0.5190 c3        1 PDJ     -0.079400
     38 C40         2.5540   -8.5820    0.6200 c3        1 PDJ     -0.078400
     39 C41         1.2160   -7.9520    0.9450 c3        1 PDJ     -0.080400
     40 C42         1.3310   -6.4460    1.0490 c3        1 PDJ     -0.077400
     41 C43        -0.0080   -5.8180    1.3760 c3        1 PDJ     -0.081400
     42 C44         0.1120   -4.3130    1.4880 c3        1 PDJ     -0.076400
     43 C45        -1.2350   -3.6950    1.7990 c3        1 PDJ     -0.133400
     44 C46        -1.1210   -2.2240    2.0400 c         1 PDJ      0.679100
     45 O47        -0.2050   -1.5860    2.5840 o         1 PDJ     -0.665000
     46 H111      -19.1400   -2.1690  -12.2740 hc        1 PDJ      0.033367
     47 H112      -20.3520   -3.4560  -11.8790 hc        1 PDJ      0.033367
     48 H113      -18.7000   -3.9140  -12.4640 hc        1 PDJ      0.033367
     49 H121      -18.9400   -4.2430   -9.9790 hc        1 PDJ      0.038700
     50 H122      -19.3790   -2.5020   -9.7900 hc        1 PDJ      0.038700
     51 H131      -17.1490   -1.8350  -10.7480 hc        1 PDJ      0.039700
     52 H132      -16.7100   -3.5760  -10.9380 hc        1 PDJ      0.039700
     53 H141      -17.4270   -2.1750   -8.2680 hc        1 PDJ      0.039700
     54 H142      -16.9870   -3.9160   -8.4570 hc        1 PDJ      0.039700
     55 H151      -14.7550   -3.2480   -9.4150 hc        1 PDJ      0.039700
     56 H152      -15.1950   -1.5070   -9.2260 hc        1 PDJ      0.039700
     57 H161      -15.4730   -1.8460   -6.7460 hc        1 PDJ      0.039700
     58 H162      -15.0320   -3.5860   -6.9340 hc        1 PDJ      0.039700
     59 H171      -13.2410   -1.1780   -7.7050 hc        1 PDJ      0.039700
     60 H172      -12.8000   -2.9180   -7.8910 hc        1 PDJ      0.039700
     61 H181      -13.0780   -3.2540   -5.4100 hc        1 PDJ      0.040700
     62 H182      -13.5210   -1.5140   -5.2240 hc        1 PDJ      0.040700
     63 H191      -10.8470   -2.5850   -6.3660 hc        1 PDJ      0.039700
     64 H192      -11.2900   -0.8440   -6.1840 hc        1 PDJ      0.039700
     65 H201      -11.1250   -2.9160   -3.8850 hc        1 PDJ      0.041700
     66 H202      -11.5710   -1.1760   -3.7020 hc        1 PDJ      0.041700
     67 H211       -9.3400   -0.5040   -4.6620 hc        1 PDJ      0.040700
     68 H212       -8.8940   -2.2450   -4.8410 hc        1 PDJ      0.040700
     69 H221       -9.6250   -0.8340   -2.1800 hc        1 PDJ      0.044200
     70 H222       -9.1720   -2.5730   -2.3600 hc        1 PDJ      0.044200
     71 H231       -6.9440   -1.8950   -3.3170 hc        1 PDJ      0.042700
     72 H232       -7.3960   -0.1550   -3.1370 hc        1 PDJ      0.042700
     73 H241       -7.2080   -2.2300   -0.8350 hc        1 PDJ      0.060200
     74 H242       -7.6900   -0.4970   -0.6510 hc        1 PDJ      0.060200
     75 H251       -5.4710    0.2480   -1.5380 hc        1 PDJ      0.080200
     76 H252       -4.9900   -1.4780   -1.8370 hc        1 PDJ      0.080200
     77 H31        -3.9820    1.2220    2.2730 h1        1 PDJ      0.090200
     78 H32        -4.3500   -0.5640    2.5920 h1        1 PDJ      0.090200
     79 H2         -1.9170    0.0340    2.9650 h1        1 PDJ      0.070700
     80 H11        -0.9220    0.0720    0.2590 h1        1 PDJ      0.106700
     81 H12        -2.2680    1.2790    0.2680 h1        1 PDJ      0.106700
     82 HB1         1.5810    2.7010    1.3540 h1        1 PDJ      0.114700
     83 HB2         1.0590    1.6100    0.0130 h1        1 PDJ      0.114700
     84 HA          1.4820   -0.4120    1.2410 hx        1 PDJ      0.128700
     85 HN1         0.5560    0.4920    3.3390 hn        1 PDJ      0.469800
     86 HN2         2.0970    1.0800    3.7250 hn        1 PDJ      0.469800
     87 H1          3.7180    1.7160    1.8100 h1        1 PDJ      0.068700
     88 H2A         3.4970    0.6750    0.3160 h1        1 PDJ      0.068700
     89 HO          4.8720   -0.4470    1.6740 ho        1 PDJ      0.450000
     90 H451       -1.6690   -4.1480    2.7330 hc        1 PDJ      0.101700
     91 H452       -1.9630   -3.8840    0.9640 hc        1 PDJ      0.101700
     92 H441        0.8440   -4.0480    2.2970 hc        1 PDJ      0.047700
     93 H442        0.5080   -3.8930    0.5270 hc        1 PDJ      0.047700
     94 H431       -0.3950   -6.2400    2.3410 hc        1 PDJ      0.051200
     95 H432       -0.7510   -6.0800    0.5770 hc        1 PDJ      0.051200
     96 H421        1.7160   -6.0310    0.0810 hc        1 PDJ      0.039700
     97 H422        2.0760   -6.1800    1.8450 hc        1 PDJ      0.039700
     98 H411        0.4720   -8.2190    0.1490 hc        1 PDJ      0.044700
     99 H412        0.8290   -8.3680    1.9120 hc        1 PDJ      0.044700
    100 H401        3.2990   -8.3130    1.4150 hc        1 PDJ      0.039200
    101 H402        2.9400   -8.1680   -0.3490 hc        1 PDJ      0.039200
    102 H391        2.0530  -10.5020    1.4880 hc        1 PDJ      0.042700
    103 H392        1.6960  -10.3570   -0.2760 hc        1 PDJ      0.042700
    104 H381        4.5220  -10.4480    0.9920 hc        1 PDJ      0.039200
    105 H382        4.1650  -10.3060   -0.7720 hc        1 PDJ      0.039200
    106 H371        2.9210  -12.4950   -0.6960 hc        1 PDJ      0.041200
    107 H372        3.2770  -12.6370    1.0680 hc        1 PDJ      0.041200
    108 H361        5.7470  -12.5840    0.5720 hc        1 PDJ      0.039700
    109 H362        5.3900  -12.4450   -1.1920 hc        1 PDJ      0.039700
    110 H351        4.5030  -14.7730    0.6510 hc        1 PDJ      0.040700
    111 H352        4.1460  -14.6340   -1.1130 hc        1 PDJ      0.040700
    112 H341        6.9720  -14.7210    0.1560 hc        1 PDJ      0.039200
    113 H342        6.6150  -14.5840   -1.6090 hc        1 PDJ      0.039200
    114 H331        5.3720  -16.7730   -1.5270 hc        1 PDJ      0.039700
    115 H332        5.7290  -16.9110    0.2370 hc        1 PDJ      0.039700
    116 H321        7.8390  -16.7210   -2.0230 hc        1 PDJ      0.038700
    117 H322        8.1970  -16.8580   -0.2600 hc        1 PDJ      0.038700
    118 H311        6.9870  -19.0650   -0.1830 hc        1 PDJ      0.034033
    119 H312        6.6280  -18.9280   -1.9520 hc        1 PDJ      0.034033
    120 H313        8.3420  -19.0790   -1.3850 hc        1 PDJ      0.034033
    121 HN3         1.8710   -0.5560    3.4580 hn        1 PDJ      0.469800
@<TRIPOS>BOND
     1    1    2 1   
     2    1    6 1   
     3    1   82 1   
     4    1   83 1   
     5    2    7 1   
     6    3    4 1   
     7    3    6 1   
     8    3   87 1   
     9    3   88 1   
    10    4   89 1   
    11    5    6 1   
    12    5   85 1   
    13    5   86 1   
    14    5  121 1   
    15    6   84 1   
    16    7    8 1   
    17    7   80 1   
    18    7   81 1   
    19    8    9 1   
    20    8   10 1   
    21    8   79 1   
    22    9   44 1   
    23   10   11 1   
    24   10   77 1   
    25   10   78 1   
    26   11   27 1   
    27   12   13 1   
    28   12   46 1   
    29   12   47 1   
    30   12   48 1   
    31   13   14 1   
    32   13   49 1   
    33   13   50 1   
    34   14   15 1   
    35   14   51 1   
    36   14   52 1   
    37   15   16 1   
    38   15   53 1   
    39   15   54 1   
    40   16   17 1   
    41   16   55 1   
    42   16   56 1   
    43   17   18 1   
    44   17   57 1   
    45   17   58 1   
    46   18   19 1   
    47   18   59 1   
    48   18   60 1   
    49   19   20 1   
    50   19   61 1   
    51   19   62 1   
    52   20   21 1   
    53   20   63 1   
    54   20   64 1   
    55   21   22 1   
    56   21   65 1   
    57   21   66 1   
    58   22   23 1   
    59   22   67 1   
    60   22   68 1   
    61   23   24 1   
    62   23   69 1   
    63   23   70 1   
    64   24   25 1   
    65   24   71 1   
    66   24   72 1   
    67   25   26 1   
    68   25   73 1   
    69   25   74 1   
    70   26   27 1   
    71   26   75 1   
    72   26   76 1   
    73   27   28 2   
    74   29   30 1   
    75   29  118 1   
    76   29  119 1   
    77   29  120 1   
    78   30   31 1   
    79   30  116 1   
    80   30  117 1   
    81   31   32 1   
    82   31  114 1   
    83   31  115 1   
    84   32   33 1   
    85   32  112 1   
    86   32  113 1   
    87   33   34 1   
    88   33  110 1   
    89   33  111 1   
    90   34   35 1   
    91   34  108 1   
    92   34  109 1   
    93   35   36 1   
    94   35  106 1   
    95   35  107 1   
    96   36   37 1   
    97   36  104 1   
    98   36  105 1   
    99   37   38 1   
   100   37  102 1   
   101   37  103 1   
   102   38   39 1   
   103   38  100 1   
   104   38  101 1   
   105   39   40 1   
   106   39   98 1   
   107   39   99 1   
   108   40   41 1   
   109   40   96 1   
   110   40   97 1   
   111   41   42 1   
   112   41   94 1   
   113   41   95 1   
   114   42   43 1   
   115   42   92 1   
   116   42   93 1   
   117   43   44 1   
   118   43   90 1   
   119   43   91 1   
   120   44   45 2   
@<TRIPOS>SUBSTRUCTURE
     1 PDJ         1 TEMP              0 ****  ****    0 ROOT
