@<TRIPOS>MOLECULE
PDJ
  121   120     1     0     0
SMALL
bcc


@<TRIPOS>ATOM
      1 CB          1.2360    1.8300    1.0400 c3        1 PDJ     -0.071300
      2 SG         -0.3760    2.0760    1.7030 ss        1 PDJ     -0.261200
      3 C           3.4900    0.7750    1.3430 c3        1 PDJ      0.114400
      4 O           4.1370   -0.2750    2.0360 oh        1 PDJ     -0.623800
      5 N           1.7350    0.5290    3.1250 n4        1 PDJ     -0.828600
      6 CA          1.9850    0.6510    1.6530 c3        1 PDJ      0.116500
      7 C1         -1.4060    0.8810    0.8870 c3        1 PDJ     -0.047300
      8 C2         -2.1870    0.0830    1.9190 c3        1 PDJ      0.133100
      9 O2         -2.1110   -1.3220    1.6210 os        1 PDJ     -0.409900
     10 C3         -3.6850    0.4220    1.9240 c3        1 PDJ      0.134400
     11 O3         -4.2240    0.3670    0.6100 os        1 PDJ     -0.450900
     12 C11       -19.0580   -3.7050  -11.7580 c3        1 PDJ     -0.093100
     13 C12       -18.5730   -3.6790  -10.3320 c3        1 PDJ     -0.080400
     14 C13       -17.1210   -3.2610  -10.2460 c3        1 PDJ     -0.079400
     15 C14       -16.6390   -3.2370   -8.8110 c3        1 PDJ     -0.079400
     16 C15       -15.1860   -2.8200   -8.7270 c3        1 PDJ     -0.078400
     17 C16       -14.7040   -2.7960   -7.2920 c3        1 PDJ     -0.079400
     18 C17       -13.2520   -2.3780   -7.2080 c3        1 PDJ     -0.078400
     19 C18       -12.7700   -2.3540   -5.7730 c3        1 PDJ     -0.079400
     20 C19       -11.3170   -1.9370   -5.6890 c3        1 PDJ     -0.078400
     21 C20       -10.8350   -1.9140   -4.2540 c3        1 PDJ     -0.079400
     22 C21        -9.3830   -1.4970   -4.1700 c3        1 PDJ     -0.078400
     23 C22        -8.9020   -1.4750   -2.7340 c3        1 PDJ     -0.079400
     24 C23        -7.4490   -1.0570   -2.6510 c3        1 PDJ     -0.078400
     25 C24        -6.9710   -1.0420   -1.2150 c3        1 PDJ     -0.080400
     26 C25        -5.5210   -0.6070   -1.1390 c3        1 PDJ     -0.124400
     27 C26        -5.0050   -0.7160    0.2610 c         1 PDJ      0.640100
     28 O28        -5.1710   -1.6010    1.0960 o         1 PDJ     -0.521000
     29 C31         6.8460  -18.6920   -1.3070 c3        1 PDJ     -0.093100
     30 C32         6.9950  -17.1950   -1.2370 c3        1 PDJ     -0.079400
     31 C33         5.6940  -16.5250   -0.8470 c3        1 PDJ     -0.079400
     32 C34         5.8480  -15.0210   -0.7780 c3        1 PDJ     -0.078400
     33 C35         4.5470  -14.3530   -0.3880 c3        1 PDJ     -0.079400
     34 C36         4.7010  -12.8490   -0.3190 c3        1 PDJ     -0.078400
     35 C37         3.4000  -12.1810    0.0700 c3        1 PDJ     -0.079400
     36 C38         3.5540  -10.6770    0.1400 c3        1 PDJ     -0.078400
     37 C39         2.2520  -10.0090    0.5290 c3        1 PDJ     -0.079400
     38 C40         2.4050   -8.5050    0.5980 c3        1 PDJ     -0.078400
     39 C41         1.1030   -7.8390    0.9860 c3        1 PDJ     -0.080400
     40 C42         1.2560   -6.3350    1.0560 c3        1 PDJ     -0.077400
     41 C43        -0.0480   -5.6700    1.4420 c3        1 PDJ     -0.081400
     42 C44         0.1090   -4.1660    1.5160 c3        1 PDJ     -0.075400
     43 C45        -1.2060   -3.5120    1.8820 c3        1 PDJ     -0.133400
     44 C46        -1.0490   -2.0380    2.0810 c         1 PDJ      0.680100
     45 O47        -0.1090   -1.4120    2.5960 o         1 PDJ     -0.665000
     46 H111      -18.9660   -2.6940  -12.2240 hc        1 PDJ      0.033367
     47 H112      -20.1300   -4.0150  -11.7990 hc        1 PDJ      0.033367
     48 H113      -18.4590   -4.4260  -12.3660 hc        1 PDJ      0.033367
     49 H121      -18.6970   -4.6960   -9.8730 hc        1 PDJ      0.038700
     50 H122      -19.2030   -2.9690   -9.7320 hc        1 PDJ      0.038700
     51 H131      -16.9950   -2.2440  -10.7020 hc        1 PDJ      0.039700
     52 H132      -16.4900   -3.9720  -10.8430 hc        1 PDJ      0.039700
     53 H141      -17.2700   -2.5270   -8.2140 hc        1 PDJ      0.039700
     54 H142      -16.7650   -4.2550   -8.3550 hc        1 PDJ      0.039700
     55 H151      -15.0600   -1.8020   -9.1830 hc        1 PDJ      0.039700
     56 H152      -14.5550   -3.5300   -9.3240 hc        1 PDJ      0.039700
     57 H161      -14.8300   -3.8130   -6.8360 hc        1 PDJ      0.039700
     58 H162      -15.3350   -2.0860   -6.6950 hc        1 PDJ      0.039700
     59 H171      -12.6210   -3.0880   -7.8050 hc        1 PDJ      0.039700
     60 H172      -13.1260   -1.3610   -7.6640 hc        1 PDJ      0.039700
     61 H181      -12.8960   -3.3720   -5.3170 hc        1 PDJ      0.040700
     62 H182      -13.4000   -1.6440   -5.1760 hc        1 PDJ      0.040700
     63 H191      -10.6870   -2.6470   -6.2860 hc        1 PDJ      0.039700
     64 H192      -11.1910   -0.9200   -6.1440 hc        1 PDJ      0.039700
     65 H201      -11.4660   -1.2030   -3.6570 hc        1 PDJ      0.041700
     66 H202      -10.9620   -2.9310   -3.7980 hc        1 PDJ      0.041700
     67 H211       -9.2570   -0.4790   -4.6250 hc        1 PDJ      0.040200
     68 H212       -8.7520   -2.2070   -4.7670 hc        1 PDJ      0.040200
     69 H221       -9.0280   -2.4920   -2.2790 hc        1 PDJ      0.044200
     70 H222       -9.5320   -0.7640   -2.1370 hc        1 PDJ      0.044200
     71 H231       -6.8190   -1.7660   -3.2510 hc        1 PDJ      0.042200
     72 H232       -7.3230   -0.0380   -3.1030 hc        1 PDJ      0.042200
     73 H241       -7.6060   -0.3410   -0.6120 hc        1 PDJ      0.060200
     74 H242       -7.0800   -2.0630   -0.7620 hc        1 PDJ      0.060200
     75 H251       -5.4080    0.4480   -1.5060 hc        1 PDJ      0.080700
     76 H252       -4.8820   -1.2690   -1.7840 hc        1 PDJ      0.080700
     77 H31        -3.8120    1.4920    2.2410 h1        1 PDJ      0.090200
     78 H32        -4.2270   -0.2720    2.6200 h1        1 PDJ      0.090200
     79 H2         -1.7740    0.2650    2.9530 h1        1 PDJ      0.070700
     80 H11        -2.1160    1.4420    0.2240 h1        1 PDJ      0.106700
     81 H12        -0.8030    0.2010    0.2400 h1        1 PDJ      0.106700
     82 HB1         1.7770    2.7930    1.2390 h1        1 PDJ      0.114700
     83 HB2         1.2130    1.6830   -0.0690 h1        1 PDJ      0.114700
     84 HA          1.5960   -0.3190    1.2060 hx        1 PDJ      0.128700
     85 HN1         2.0040   -0.4170    3.4210 hn        1 PDJ      0.469800
     86 HN2         0.7160    0.6630    3.2890 hn        1 PDJ      0.469800
     87 H1          3.8930    1.7620    1.6980 h1        1 PDJ      0.068700
     88 H2A         3.6280    0.6910    0.2330 h1        1 PDJ      0.068700
     89 HO          4.9880   -0.4340    1.6050 ho        1 PDJ      0.450000
     90 H451       -1.5980   -3.9340    2.8490 hc        1 PDJ      0.101700
     91 H452       -1.9810   -3.7050    1.0920 hc        1 PDJ      0.101700
     92 H441        0.8880   -3.9010    2.2790 hc        1 PDJ      0.047700
     93 H442        0.4630   -3.7760    0.5250 hc        1 PDJ      0.047700
     94 H431       -0.8410   -5.9310    0.6920 hc        1 PDJ      0.051200
     95 H432       -0.3900   -6.0630    2.4360 hc        1 PDJ      0.051200
     96 H421        2.0500   -6.0720    1.8040 hc        1 PDJ      0.039700
     97 H422        1.5970   -5.9450    0.0600 hc        1 PDJ      0.039700
     98 H411        0.7630   -8.2290    1.9820 hc        1 PDJ      0.044700
     99 H412        0.3080   -8.1020    0.2390 hc        1 PDJ      0.044700
    100 H401        2.7460   -8.1160   -0.3980 hc        1 PDJ      0.039200
    101 H402        3.2000   -8.2430    1.3450 hc        1 PDJ      0.039200
    102 H391        1.9120  -10.4000    1.5240 hc        1 PDJ      0.042700
    103 H392        1.4570  -10.2730   -0.2180 hc        1 PDJ      0.042700
    104 H381        4.3490  -10.4140    0.8870 hc        1 PDJ      0.039200
    105 H382        3.8940  -10.2870   -0.8560 hc        1 PDJ      0.039200
    106 H371        2.6040  -12.4440   -0.6760 hc        1 PDJ      0.041200
    107 H372        3.0600  -12.5710    1.0660 hc        1 PDJ      0.041200
    108 H361        5.0410  -12.4590   -1.3140 hc        1 PDJ      0.039700
    109 H362        5.4970  -12.5860    0.4280 hc        1 PDJ      0.039700
    110 H351        3.7520  -14.6150   -1.1350 hc        1 PDJ      0.040700
    111 H352        4.2070  -14.7430    0.6070 hc        1 PDJ      0.040700
    112 H341        6.6440  -14.7580   -0.0310 hc        1 PDJ      0.039700
    113 H342        6.1880  -14.6310   -1.7730 hc        1 PDJ      0.039700
    114 H331        5.3550  -16.9150    0.1480 hc        1 PDJ      0.039700
    115 H332        4.8990  -16.7880   -1.5940 hc        1 PDJ      0.039700
    116 H321        7.7900  -16.9300   -0.4900 hc        1 PDJ      0.038700
    117 H322        7.3340  -16.8020   -2.2320 hc        1 PDJ      0.038700
    118 H311        7.8160  -19.1660   -1.5950 hc        1 PDJ      0.034033
    119 H312        6.0760  -18.9770   -2.0640 hc        1 PDJ      0.034033
    120 H313        6.5330  -19.1050   -0.3180 hc        1 PDJ      0.034033
    121 HN3         2.2760    1.2190    3.6450 hn        1 PDJ      0.469800
@<TRIPOS>BOND
     1    1    2 1   
     2    1    6 1   
     3    1   82 1   
     4    1   83 1   
     5    2    7 1   
     6    3    4 1   
     7    3    6 1   
     8    3   87 1   
     9    3   88 1   
    10    4   89 1   
    11    5    6 1   
    12    5   85 1   
    13    5   86 1   
    14    5  121 1   
    15    6   84 1   
    16    7    8 1   
    17    7   80 1   
    18    7   81 1   
    19    8    9 1   
    20    8   10 1   
    21    8   79 1   
    22    9   44 1   
    23   10   11 1   
    24   10   77 1   
    25   10   78 1   
    26   11   27 1   
    27   12   13 1   
    28   12   46 1   
    29   12   47 1   
    30   12   48 1   
    31   13   14 1   
    32   13   49 1   
    33   13   50 1   
    34   14   15 1   
    35   14   51 1   
    36   14   52 1   
    37   15   16 1   
    38   15   53 1   
    39   15   54 1   
    40   16   17 1   
    41   16   55 1   
    42   16   56 1   
    43   17   18 1   
    44   17   57 1   
    45   17   58 1   
    46   18   19 1   
    47   18   59 1   
    48   18   60 1   
    49   19   20 1   
    50   19   61 1   
    51   19   62 1   
    52   20   21 1   
    53   20   63 1   
    54   20   64 1   
    55   21   22 1   
    56   21   65 1   
    57   21   66 1   
    58   22   23 1   
    59   22   67 1   
    60   22   68 1   
    61   23   24 1   
    62   23   69 1   
    63   23   70 1   
    64   24   25 1   
    65   24   71 1   
    66   24   72 1   
    67   25   26 1   
    68   25   73 1   
    69   25   74 1   
    70   26   27 1   
    71   26   75 1   
    72   26   76 1   
    73   27   28 2   
    74   29   30 1   
    75   29  118 1   
    76   29  119 1   
    77   29  120 1   
    78   30   31 1   
    79   30  116 1   
    80   30  117 1   
    81   31   32 1   
    82   31  114 1   
    83   31  115 1   
    84   32   33 1   
    85   32  112 1   
    86   32  113 1   
    87   33   34 1   
    88   33  110 1   
    89   33  111 1   
    90   34   35 1   
    91   34  108 1   
    92   34  109 1   
    93   35   36 1   
    94   35  106 1   
    95   35  107 1   
    96   36   37 1   
    97   36  104 1   
    98   36  105 1   
    99   37   38 1   
   100   37  102 1   
   101   37  103 1   
   102   38   39 1   
   103   38  100 1   
   104   38  101 1   
   105   39   40 1   
   106   39   98 1   
   107   39   99 1   
   108   40   41 1   
   109   40   96 1   
   110   40   97 1   
   111   41   42 1   
   112   41   94 1   
   113   41   95 1   
   114   42   43 1   
   115   42   92 1   
   116   42   93 1   
   117   43   44 1   
   118   43   90 1   
   119   43   91 1   
   120   44   45 2   
@<TRIPOS>SUBSTRUCTURE
     1 PDJ         1 TEMP              0 ****  ****    0 ROOT
