@<TRIPOS>MOLECULE
PDJ
  121   120     1     0     0
SMALL
bcc


@<TRIPOS>ATOM
      1 CB          1.1090    1.7520    1.1200 c3        1 PDJ     -0.071300
      2 SG         -0.5110    1.9540    1.7750 ss        1 PDJ     -0.261200
      3 C           3.3810    0.7350    1.4190 c3        1 PDJ      0.114400
      4 O           4.0430   -0.3170    2.0960 oh        1 PDJ     -0.623800
      5 N           1.6180    0.4190    3.1810 nz        1 PDJ     -0.828600
      6 CA          1.8760    0.5750    1.7140 c3        1 PDJ      0.116500
      7 C1         -1.5130    0.7580    0.9260 c3        1 PDJ     -0.047300
      8 C2         -2.2850   -0.0780    1.9340 c3        1 PDJ      0.133100
      9 O2         -2.1780   -1.4750    1.6060 os        1 PDJ     -0.409900
     10 C3         -3.7890    0.2300    1.9360 c3        1 PDJ      0.134400
     11 O3         -4.3180    0.1980    0.6170 os        1 PDJ     -0.450900
     12 C11       -19.2010   -3.3140  -11.8290 c3        1 PDJ     -0.093100
     13 C12       -18.7140   -3.3330  -10.4030 c3        1 PDJ     -0.080400
     14 C13       -17.2510   -2.9560  -10.3110 c3        1 PDJ     -0.079400
     15 C14       -16.7670   -2.9750   -8.8770 c3        1 PDJ     -0.079400
     16 C15       -15.3040   -2.5980   -8.7860 c3        1 PDJ     -0.078400
     17 C16       -14.8200   -2.6170   -7.3520 c3        1 PDJ     -0.079400
     18 C17       -13.3570   -2.2390   -7.2610 c3        1 PDJ     -0.078400
     19 C18       -12.8730   -2.2570   -5.8270 c3        1 PDJ     -0.079400
     20 C19       -11.4110   -1.8770   -5.7360 c3        1 PDJ     -0.078400
     21 C20       -10.9280   -1.8940   -4.3010 c3        1 PDJ     -0.079400
     22 C21        -9.4660   -1.5120   -4.2100 c3        1 PDJ     -0.078400
     23 C22        -8.9850   -1.5270   -2.7750 c3        1 PDJ     -0.079400
     24 C23        -7.5240   -1.1420   -2.6840 c3        1 PDJ     -0.078400
     25 C24        -7.0470   -1.1590   -1.2470 c3        1 PDJ     -0.080400
     26 C25        -5.5890   -0.7520   -1.1640 c3        1 PDJ     -0.124400
     27 C26        -5.0800   -0.8880    0.2360 c         1 PDJ      0.640100
     28 O28        -5.2370   -1.7960    1.0480 o         1 PDJ     -0.521000
     29 C31         7.2130  -18.6490   -1.2100 c3        1 PDJ     -0.093100
     30 C32         7.3310  -17.1500   -1.1170 c3        1 PDJ     -0.079400
     31 C33         6.0020  -16.5080   -0.7780 c3        1 PDJ     -0.079400
     32 C34         6.1250  -15.0030   -0.6860 c3        1 PDJ     -0.078400
     33 C35         4.7960  -14.3620   -0.3470 c3        1 PDJ     -0.079400
     34 C36         4.9200  -12.8570   -0.2540 c3        1 PDJ     -0.078400
     35 C37         3.5910  -12.2170    0.0860 c3        1 PDJ     -0.079400
     36 C38         3.7150  -10.7110    0.1790 c3        1 PDJ     -0.078400
     37 C39         2.3860  -10.0710    0.5200 c3        1 PDJ     -0.079400
     38 C40         2.5100   -8.5660    0.6150 c3        1 PDJ     -0.078400
     39 C41         1.1810   -7.9270    0.9570 c3        1 PDJ     -0.080400
     40 C42         1.3060   -6.4210    1.0540 c3        1 PDJ     -0.077400
     41 C43        -0.0240   -5.7840    1.3980 c3        1 PDJ     -0.081400
     42 C44         0.1060   -4.2790    1.5020 c3        1 PDJ     -0.076400
     43 C45        -1.2320   -3.6520    1.8290 c3        1 PDJ     -0.133400
     44 C46        -1.1070   -2.1800    2.0610 c         1 PDJ      0.680100
     45 O47        -0.1840   -1.5460    2.5980 o         1 PDJ     -0.665000
     46 H111      -20.2810   -3.5950  -11.8740 hc        1 PDJ      0.033367
     47 H112      -19.0820   -2.2970  -12.2740 hc        1 PDJ      0.033367
     48 H113      -18.6220   -4.0380  -12.4530 hc        1 PDJ      0.033367
     49 H121      -18.8650   -4.3550   -9.9670 hc        1 PDJ      0.038700
     50 H122      -19.3230   -2.6190   -9.7880 hc        1 PDJ      0.038700
     51 H131      -16.6400   -3.6700  -10.9240 hc        1 PDJ      0.039700
     52 H132      -17.0990   -1.9330  -10.7460 hc        1 PDJ      0.039700
     53 H141      -16.9190   -3.9980   -8.4430 hc        1 PDJ      0.039700
     54 H142      -17.3780   -2.2610   -8.2640 hc        1 PDJ      0.039700
     55 H151      -14.6920   -3.3120   -9.3990 hc        1 PDJ      0.039700
     56 H152      -15.1510   -1.5750   -9.2210 hc        1 PDJ      0.039700
     57 H161      -15.4310   -1.9030   -6.7390 hc        1 PDJ      0.039700
     58 H162      -14.9720   -3.6400   -6.9170 hc        1 PDJ      0.039700
     59 H171      -12.7450   -2.9530   -7.8730 hc        1 PDJ      0.039700
     60 H172      -13.2050   -1.2160   -7.6960 hc        1 PDJ      0.039700
     61 H181      -13.4860   -1.5440   -5.2150 hc        1 PDJ      0.040700
     62 H182      -13.0240   -3.2800   -5.3920 hc        1 PDJ      0.040700
     63 H191      -10.7980   -2.5910   -6.3470 hc        1 PDJ      0.039700
     64 H192      -11.2600   -0.8550   -6.1720 hc        1 PDJ      0.039700
     65 H201      -11.0780   -2.9170   -3.8650 hc        1 PDJ      0.041700
     66 H202      -11.5420   -1.1810   -3.6900 hc        1 PDJ      0.041700
     67 H211       -8.8520   -2.2270   -4.8200 hc        1 PDJ      0.040700
     68 H212       -9.3160   -0.4900   -4.6470 hc        1 PDJ      0.040700
     69 H221       -9.6010   -0.8150   -2.1640 hc        1 PDJ      0.044200
     70 H222       -9.1320   -2.5500   -2.3380 hc        1 PDJ      0.044200
     71 H231       -7.3760   -0.1180   -3.1190 hc        1 PDJ      0.042200
     72 H232       -6.9090   -1.8540   -3.2950 hc        1 PDJ      0.042200
     73 H241       -7.1750   -2.1860   -0.8120 hc        1 PDJ      0.060200
     74 H242       -7.6700   -0.4570   -0.6330 hc        1 PDJ      0.060200
     75 H251       -5.4560    0.3040   -1.5180 hc        1 PDJ      0.080200
     76 H252       -4.9610   -1.4180   -1.8150 hc        1 PDJ      0.080200
     77 H31        -4.3220   -0.4920    2.6100 h1        1 PDJ      0.090200
     78 H32        -3.9400    1.2890    2.2790 h1        1 PDJ      0.090200
     79 H2         -1.8830    0.0890    2.9750 h1        1 PDJ      0.070700
     80 H11        -0.8930    0.1030    0.2680 h1        1 PDJ      0.106700
     81 H12        -2.2290    1.3200    0.2710 h1        1 PDJ      0.106700
     82 HB1         1.6310    2.7210    1.3420 h1        1 PDJ      0.114700
     83 HB2         1.0980    1.6270    0.0070 h1        1 PDJ      0.114700
     84 HA          1.5090   -0.3920    1.2450 hx        1 PDJ      0.128700
     85 HN1         2.1420    1.1080    3.7190 hn        1 PDJ      0.469800
     86 HN2         1.9030   -0.5280    3.4610 hn        1 PDJ      0.469800
     87 H1          3.7620    1.7220    1.7970 h1        1 PDJ      0.068700
     88 H2A         3.5290    0.6760    0.3090 h1        1 PDJ      0.068700
     89 HO          4.9000   -0.4510    1.6680 ho        1 PDJ      0.450000
     90 H451       -1.9730   -3.8410    1.0060 hc        1 PDJ      0.101700
     91 H452       -1.6550   -4.0980    2.7720 hc        1 PDJ      0.101700
     92 H441        0.4910   -3.8660    0.5330 hc        1 PDJ      0.047700
     93 H442        0.8510   -4.0150    2.2990 hc        1 PDJ      0.047700
     94 H431       -0.7800   -6.0450    0.6120 hc        1 PDJ      0.051200
     95 H432       -0.3990   -6.1990    2.3710 hc        1 PDJ      0.051200
     96 H421        1.6800   -6.0120    0.0790 hc        1 PDJ      0.039700
     97 H422        2.0650   -6.1570    1.8380 hc        1 PDJ      0.039700
     98 H411        0.8060   -8.3370    1.9320 hc        1 PDJ      0.044700
     99 H412        0.4230   -8.1920    0.1730 hc        1 PDJ      0.044700
    100 H401        3.2680   -8.3000    1.3980 hc        1 PDJ      0.039200
    101 H402        2.8840   -8.1570   -0.3610 hc        1 PDJ      0.039200
    102 H391        2.0100  -10.4800    1.4950 hc        1 PDJ      0.042700
    103 H392        1.6280  -10.3380   -0.2640 hc        1 PDJ      0.042700
    104 H381        4.0900  -10.3030   -0.7960 hc        1 PDJ      0.039200
    105 H382        4.4730  -10.4440    0.9630 hc        1 PDJ      0.039200
    106 H371        3.2150  -12.6250    1.0610 hc        1 PDJ      0.041200
    107 H372        2.8340  -12.4840   -0.6980 hc        1 PDJ      0.041200
    108 H361        5.2960  -12.4490   -1.2290 hc        1 PDJ      0.039700
    109 H362        5.6770  -12.5890    0.5290 hc        1 PDJ      0.039700
    110 H351        4.0390  -14.6300   -1.1310 hc        1 PDJ      0.040700
    111 H352        4.4200  -14.7700    0.6280 hc        1 PDJ      0.040700
    112 H341        6.5020  -14.5950   -1.6610 hc        1 PDJ      0.039200
    113 H342        6.8830  -14.7350    0.0980 hc        1 PDJ      0.039200
    114 H331        5.2450  -16.7760   -1.5620 hc        1 PDJ      0.039700
    115 H332        5.6260  -16.9160    0.1970 hc        1 PDJ      0.039700
    116 H321        7.7060  -16.7400   -2.0920 hc        1 PDJ      0.038700
    117 H322        8.0870  -16.8800   -0.3330 hc        1 PDJ      0.038700
    118 H311        6.8640  -19.0790   -0.2400 hc        1 PDJ      0.034033
    119 H312        8.2020  -19.1020   -1.4600 hc        1 PDJ      0.034033
    120 H313        6.4820  -18.9390   -2.0040 hc        1 PDJ      0.034033
    121 HN3         0.5950    0.5300    3.3400 hn        1 PDJ      0.469800
@<TRIPOS>BOND
     1    1    2 1   
     2    1    6 1   
     3    1   82 1   
     4    1   83 1   
     5    2    7 1   
     6    3    4 1   
     7    3    6 1   
     8    3   87 1   
     9    3   88 1   
    10    4   89 1   
    11    5    6 1   
    12    5   85 1   
    13    5   86 1   
    14    5  121 1   
    15    6   84 1   
    16    7    8 1   
    17    7   80 1   
    18    7   81 1   
    19    8    9 1   
    20    8   10 1   
    21    8   79 1   
    22    9   44 1   
    23   10   11 1   
    24   10   77 1   
    25   10   78 1   
    26   11   27 1   
    27   12   13 1   
    28   12   46 1   
    29   12   47 1   
    30   12   48 1   
    31   13   14 1   
    32   13   49 1   
    33   13   50 1   
    34   14   15 1   
    35   14   51 1   
    36   14   52 1   
    37   15   16 1   
    38   15   53 1   
    39   15   54 1   
    40   16   17 1   
    41   16   55 1   
    42   16   56 1   
    43   17   18 1   
    44   17   57 1   
    45   17   58 1   
    46   18   19 1   
    47   18   59 1   
    48   18   60 1   
    49   19   20 1   
    50   19   61 1   
    51   19   62 1   
    52   20   21 1   
    53   20   63 1   
    54   20   64 1   
    55   21   22 1   
    56   21   65 1   
    57   21   66 1   
    58   22   23 1   
    59   22   67 1   
    60   22   68 1   
    61   23   24 1   
    62   23   69 1   
    63   23   70 1   
    64   24   25 1   
    65   24   71 1   
    66   24   72 1   
    67   25   26 1   
    68   25   73 1   
    69   25   74 1   
    70   26   27 1   
    71   26   75 1   
    72   26   76 1   
    73   27   28 2   
    74   29   30 1   
    75   29  118 1   
    76   29  119 1   
    77   29  120 1   
    78   30   31 1   
    79   30  116 1   
    80   30  117 1   
    81   31   32 1   
    82   31  114 1   
    83   31  115 1   
    84   32   33 1   
    85   32  112 1   
    86   32  113 1   
    87   33   34 1   
    88   33  110 1   
    89   33  111 1   
    90   34   35 1   
    91   34  108 1   
    92   34  109 1   
    93   35   36 1   
    94   35  106 1   
    95   35  107 1   
    96   36   37 1   
    97   36  104 1   
    98   36  105 1   
    99   37   38 1   
   100   37  102 1   
   101   37  103 1   
   102   38   39 1   
   103   38  100 1   
   104   38  101 1   
   105   39   40 1   
   106   39   98 1   
   107   39   99 1   
   108   40   41 1   
   109   40   96 1   
   110   40   97 1   
   111   41   42 1   
   112   41   94 1   
   113   41   95 1   
   114   42   43 1   
   115   42   92 1   
   116   42   93 1   
   117   43   44 1   
   118   43   90 1   
   119   43   91 1   
   120   44   45 2   
@<TRIPOS>SUBSTRUCTURE
     1 PDJ         1 TEMP              0 ****  ****    0 ROOT
