@<TRIPOS>MOLECULE
PDL
   35    35     1     0     0
SMALL
bcc


@<TRIPOS>ATOM
      1 N           2.4470    0.8640   -0.2500 n3        1 PDL     -0.855200
      2 N1         -0.2820   -3.4870   -0.6020 nb        1 PDL     -0.687000
      3 C2          1.0500   -3.2490   -0.4850 ca        1 PDL      0.286600
      4 C2A         2.0250   -4.3650   -0.6520 c3        1 PDL     -0.102400
      5 C3          1.5530   -1.9560   -0.1870 ca        1 PDL      0.034800
      6 O3A         2.9190   -1.8850   -0.0440 oh        1 PDL     -0.558100
      7 C4          0.6670   -0.8640   -0.0310 ca        1 PDL     -0.153300
      8 C4A         1.1510    0.5190    0.3120 c3        1 PDL      0.206100
      9 C5         -0.7090   -1.1250   -0.1350 ca        1 PDL     -0.121600
     10 C5A        -1.7830   -0.0770    0.0540 c3        1 PDL      0.239700
     11 OP4        -3.0310   -0.5540   -0.2360 os        1 PDL     -0.568200
     12 P          -4.3060   -0.2030    0.9090 p5        1 PDL      1.314900
     13 OP1        -3.5360    0.0960    2.1700 o         1 PDL     -0.930500
     14 OP2        -4.9880    0.9810    0.2780 o         1 PDL     -0.930500
     15 OP3        -5.0710   -1.4970    0.8920 o         1 PDL     -0.930500
     16 C6         -1.1140   -2.4570   -0.4230 ca        1 PDL      0.368200
     17 CA          3.1540    1.9210    0.4610 c3        1 PDL      0.058500
     18 CB          3.9340    1.3700    1.6530 c3        1 PDL     -0.071100
     19 C           4.1280    2.7410   -0.4480 c         1 PDL      0.910600
     20 O           3.9670    2.7330   -1.7010 o         1 PDL     -0.856300
     21 OXT         5.0250    3.4240    0.1300 o         1 PDL     -0.856300
     22 H           2.3740    1.1020   -1.2230 hn        1 PDL      0.390800
     23 H2A1        2.4970   -4.5970    0.3350 hc        1 PDL      0.018367
     24 H2A2        1.5470   -5.2930   -1.0470 hc        1 PDL      0.018367
     25 H2A3        2.8350   -4.0460   -1.3540 hc        1 PDL      0.018367
     26 HO3         3.1730   -0.9410    0.0180 ho        1 PDL      0.463000
     27 H4A1        1.2230    0.5710    1.4390 h1        1 PDL      0.045700
     28 H4A2        0.3580    1.2650    0.0050 h1        1 PDL      0.045700
     29 H5A1       -1.7330    0.2970    1.1230 h1        1 PDL      0.027200
     30 H5A2       -1.5160    0.7730   -0.6510 h1        1 PDL      0.027200
     31 H6         -2.2040   -2.6600   -0.4990 h4        1 PDL      0.074100
     32 HA          2.4220    2.6880    0.8630 h1        1 PDL      0.014700
     33 HB1         4.5240    2.2040    2.1040 hc        1 PDL      0.019700
     34 HB2         3.2470    0.9450    2.4240 hc        1 PDL      0.019700
     35 HB3         4.6410    0.5700    1.3290 hc        1 PDL      0.019700
@<TRIPOS>BOND
     1    1    8 1   
     2    1   17 1   
     3    1   22 1   
     4    2    3 ar  
     5    2   16 ar  
     6    3    4 1   
     7    3    5 ar  
     8    4   23 1   
     9    4   24 1   
    10    4   25 1   
    11    5    6 1   
    12    5    7 ar  
    13    6   26 1   
    14    7    8 1   
    15    7    9 ar  
    16    8   27 1   
    17    8   28 1   
    18    9   10 1   
    19    9   16 ar  
    20   10   11 1   
    21   10   29 1   
    22   10   30 1   
    23   11   12 1   
    24   12   13 1   
    25   12   14 1   
    26   12   15 1   
    27   16   31 1   
    28   17   18 1   
    29   17   19 1   
    30   17   32 1   
    31   18   33 1   
    32   18   34 1   
    33   18   35 1   
    34   19   20 1   
    35   19   21 1   
@<TRIPOS>SUBSTRUCTURE
     1 PDL         1 TEMP              0 ****  ****    0 ROOT
