@<TRIPOS>MOLECULE
PDM
   36    34     1     0     0
SMALL
bcc


@<TRIPOS>ATOM
      1 CP1        -1.2650    0.2910    0.3350 c2        1 PDM     -0.057000
      2 CP2         0.0530    0.2240    0.6870 c2        1 PDM      0.002000
      3 CP3         0.6170    0.4050    1.9800 c2        1 PDM     -0.346000
      4 CP4        -0.0290    0.1510    3.1630 c2        1 PDM      0.072000
      5 CP5        -3.5380    0.2130    1.3970 c1        1 PDM      0.164000
      6 CP6        -2.3090    0.6730    1.2790 c2        1 PDM     -0.417000
      7 CP7        -0.1090   -0.1720    5.5790 c3        1 PDM      0.105000
      8 CP8         5.4580    1.2960    7.2060 c3        1 PDM     -0.248000
      9 CP9         4.8830    0.2110    6.4410 c1        1 PDM     -0.071000
     10 C10         3.5540    0.3460    5.8330 c2        1 PDM      0.291000
     11 C11        -2.7640   -0.8220   -1.2680 c2        1 PDM      0.256000
     12 NP1        -1.6760    0.0140   -1.0090 n         1 PDM     -0.277000
     13 NP2         0.4630    0.4410    4.4000 n3        1 PDM     -0.320000
     14 OP3         0.2980   -1.5120    5.7920 oh        1 PDM     -0.382000
     15 OP4         3.4410    0.7370    4.6280 o         1 PDM     -0.599000
     16 OP5         2.5290    0.0150    6.5200 o         1 PDM     -0.599000
     17 C12        -0.4830   -0.5250   -4.2410 c3        1 PDM     -0.269000
     18 C14        -1.0710    0.6970   -2.0890 c2        1 PDM      0.269000
     19 C13        -1.3980    0.2350   -3.4390 c1        1 PDM     -0.027000
     20 HP2         0.8020    0.0470   -0.1100 ha        1 PDM      0.113000
     21 HP3         1.6700    0.7360    1.9980 ha        1 PDM      0.154000
     22 HP5        -1.0460   -0.2980    3.1520 h4        1 PDM      0.126000
     23 HP6        -1.9790    1.4560    2.0010 ha        1 PDM      0.198000
     24 HP7        -1.2310   -0.2320    5.4820 h2        1 PDM      0.091500
     25 HP81        6.5770    1.2510    7.1860 hc        1 PDM      0.086667
     26 HP82        0.1990    0.4650    6.4580 h2        1 PDM      0.091500
     27 HP91        5.1190    1.1310    8.2670 hc        1 PDM      0.086667
     28 HP92        5.1400    2.3240    6.8920 hc        1 PDM      0.086667
     29 HP2N        1.4500    0.6680    4.4840 hn        1 PDM      0.288000
     30 HP3O        1.2400   -1.5000    6.0370 ho        1 PDM      0.252000
     31 H121        0.3120   -1.0920   -3.6930 hc        1 PDM      0.128000
     32 H122       -3.0340   -0.9010   -2.3530 h5        1 PDM      0.131000
     33 H131       -1.0440   -1.2270   -4.9120 hc        1 PDM      0.128000
     34 H132        0.0240    0.2380   -4.9050 hc        1 PDM      0.128000
     35 OP2        -0.3550    1.7070   -1.9360 o         1 PDM     -0.323000
     36 OP1        -3.3900   -1.4300   -0.3890 o         1 PDM     -0.311000
@<TRIPOS>BOND
     1    1    2 1   
     2    1    6 1   
     3    1   12 1   
     4    2    3 1   
     5    2   20 1   
     6    3    4 1   
     7    3   21 1   
     8    4   13 1   
     9    4   22 1   
    10    5    6 1   
    11    6   23 1   
    12    7   13 1   
    13    7   14 1   
    14    7   24 1   
    15    7   26 1   
    16    8    9 1   
    17    8   25 1   
    18    8   27 1   
    19    8   28 1   
    20    9   10 1   
    21   10   15 1   
    22   10   16 1   
    23   11   12 1   
    24   11   32 1   
    25   11   36 1   
    26   12   18 1   
    27   13   29 1   
    28   14   30 1   
    29   17   19 1   
    30   17   31 1   
    31   17   33 1   
    32   17   34 1   
    33   18   19 1   
    34   18   35 1   
@<TRIPOS>SUBSTRUCTURE
     1 PDM         1 TEMP              0 ****  ****    0 ROOT
