@<TRIPOS>MOLECULE
PDM
   36    34     1     0     0
SMALL
bcc


@<TRIPOS>ATOM
      1 CP1        -0.3190    0.6080   -0.0620 c2        1 PDM     -0.006000
      2 CP2         0.5680   -0.2820    0.4630 c2        1 PDM     -0.032000
      3 CP3         1.2900   -0.1520    1.6900 c2        1 PDM     -0.318000
      4 CP4         0.8250    0.4910    2.8000 c2        1 PDM      0.051000
      5 CP5        -1.7310    2.5580    0.6650 c1        1 PDM      0.195000
      6 CP6        -0.5940    1.8960    0.5660 c2        1 PDM     -0.441000
      7 CP7         0.8540    1.0140    5.1900 c3        1 PDM      0.139000
      8 CP8         1.8600    1.2860    6.3310 c3        1 PDM     -0.233000
      9 CP9         2.6630    0.1080    6.6130 c1        1 PDM     -0.131000
     10 C10         3.7750    0.1770    7.5870 c2        1 PDM      0.302000
     11 C11        -2.3690    0.5990   -1.4250 c2        1 PDM      0.259000
     12 NP1        -1.0070    0.3210   -1.2860 n         1 PDM     -0.285000
     13 NP2         1.5490    0.7100    3.9450 n3        1 PDM     -0.314000
     14 OP3        -0.0490   -0.0180    5.5680 oh        1 PDM     -0.365000
     15 OP4         4.8970    0.5550    7.1310 o         1 PDM     -0.569000
     16 OP5         3.5650   -0.1650    8.7890 o         1 PDM     -0.569000
     17 C12        -1.2120   -1.8990   -3.9870 c3        1 PDM     -0.270000
     18 C14        -0.2820   -0.1180   -2.4190 c2        1 PDM      0.270000
     19 C13        -1.0580   -0.5310   -3.5890 c1        1 PDM     -0.023000
     20 HP2         0.8160   -1.1960   -0.1120 ha        1 PDM      0.121000
     21 HP3         2.2750   -0.6480    1.7040 ha        1 PDM      0.134000
     22 HP5        -0.2030    0.9110    2.8170 h4        1 PDM      0.145000
     23 HP6         0.3060    2.3540    1.0380 ha        1 PDM      0.201000
     24 HP7         0.1880    1.9100    5.0130 h2        1 PDM      0.102000
     25 HP81        0.9160   -0.9120    8.0100 ha        1 PDM      0.005500
     26 HP82        1.5060   -1.0370    8.3290 ha        1 PDM      0.005500
     27 HP91        1.2640    1.5680    7.2440 hc        1 PDM      0.129500
     28 HP92        2.5150    2.1600    6.0600 hc        1 PDM      0.129500
     29 HP2N        2.3930    0.1840    4.0660 hn        1 PDM      0.229000
     30 HP3O        0.4710   -0.7320    5.9710 ho        1 PDM      0.232000
     31 H121       -1.0390   -2.6750   -3.1990 hc        1 PDM      0.131000
     32 H122       -2.7740    0.4170   -2.4540 h5        1 PDM      0.139000
     33 H131       -0.4460   -2.0510   -4.8070 hc        1 PDM      0.131000
     34 H132       -2.2230   -2.0560   -4.4490 hc        1 PDM      0.131000
     35 OP2         0.9630   -0.0730   -2.4790 o         1 PDM     -0.321000
     36 OP1        -3.0840    1.0100   -0.5000 o         1 PDM     -0.306000
@<TRIPOS>BOND
     1    1    2 1   
     2    1    6 1   
     3    1   12 1   
     4    2    3 1   
     5    2   20 1   
     6    3    4 1   
     7    3   21 1   
     8    4   13 1   
     9    4   22 1   
    10    5    6 1   
    11    6   23 1   
    12    7    8 1   
    13    7   13 1   
    14    7   14 1   
    15    7   24 1   
    16    8    9 1   
    17    8   27 1   
    18    8   28 1   
    19    9   10 1   
    20   10   15 1   
    21   10   16 1   
    22   11   12 1   
    23   11   32 1   
    24   11   36 1   
    25   12   18 1   
    26   13   29 1   
    27   14   30 1   
    28   17   19 1   
    29   17   31 1   
    30   17   33 1   
    31   17   34 1   
    32   18   19 1   
    33   18   35 1   
    34   25   26 1   
@<TRIPOS>SUBSTRUCTURE
     1 PDM         1 TEMP              0 ****  ****    0 ROOT
