@<TRIPOS>MOLECULE
PDM
   36    35     1     0     0
SMALL
bcc


@<TRIPOS>ATOM
      1 CP1        -0.7910    0.2670    0.1220 c2        1 PDM     -0.048000
      2 CP2         0.4740    0.1210    0.6210 c2        1 PDM      0.017000
      3 CP3         0.8980    0.2890    1.9660 c2        1 PDM     -0.357000
      4 CP4         0.1130    0.0740    3.0720 c2        1 PDM      0.079000
      5 CP5        -3.1830    0.4590    0.8520 c1        1 PDM      0.125000
      6 CP6        -1.9030    0.7360    0.9430 c2        1 PDM     -0.395000
      7 CP7        -0.2620   -0.1860    5.4700 c3        1 PDM      0.106000
      8 CP8         5.1210    1.3820    7.6380 c3        1 PDM     -0.248000
      9 CP9         4.5870    0.2390    6.9310 c1        1 PDM     -0.070000
     10 C10         3.3370    0.3440    6.1710 c2        1 PDM      0.292000
     11 C11        -1.3160   -1.2620   -1.7960 c2        1 PDM      0.307500
     12 NP1        -1.0710    0.0170   -1.2490 n         1 PDM     -0.281000
     13 NP2         0.4650    0.3740    4.3500 n7        1 PDM     -0.318000
     14 OP3         0.0950   -1.5210    5.7790 oh        1 PDM     -0.379000
     15 OP4         3.3790    0.7080    4.9510 o         1 PDM     -0.599500
     16 OP5         2.2330    0.0210    6.7240 o         1 PDM     -0.599500
     17 C12        -1.5620   -1.1270   -3.3000 c3        1 PDM     -0.197500
     18 C14        -1.1140    1.0130   -2.2480 c2        1 PDM      0.307500
     19 C13        -1.4330    0.3620   -3.5950 c3        1 PDM     -0.197500
     20 HP2         1.2920   -0.1350   -0.0820 ha        1 PDM      0.116000
     21 HP3         1.9570    0.5730    2.1020 ha        1 PDM      0.156000
     22 HP5        -0.9070   -0.3520    2.9480 h4        1 PDM      0.125000
     23 HP6        -1.5800    1.4340    1.7540 ha        1 PDM      0.206000
     24 HP7        -1.3640   -0.2370    5.2330 h2        1 PDM      0.092500
     25 HP81        4.3620    2.1250    7.9930 hc        1 PDM      0.087000
     26 HP82       -0.0570    0.4810    6.3560 h2        1 PDM      0.092500
     27 HP91        5.8030    1.8970    6.9050 hc        1 PDM      0.087000
     28 HP92        5.7350    1.0570    8.5160 hc        1 PDM      0.087000
     29 HP2N        1.4370    0.5960    4.5480 hn        1 PDM      0.292000
     30 HP3O        0.9960   -1.5090    6.1460 ho        1 PDM      0.253000
     31 H121       -0.8050   -1.7340   -3.8530 hc        1 PDM      0.118500
     32 H122       -2.5790   -1.5190   -3.5430 hc        1 PDM      0.118500
     33 H131       -0.6080    0.5810   -4.3160 hc        1 PDM      0.118500
     34 H132       -2.3810    0.7960   -3.9980 hc        1 PDM      0.118500
     35 OP2        -0.9260    2.2220   -2.0810 o         1 PDM     -0.303500
     36 OP1        -1.3350   -2.3270   -1.1740 o         1 PDM     -0.303500
@<TRIPOS>BOND
     1    1    2 1   
     2    1    6 1   
     3    1   12 1   
     4    2    3 1   
     5    2   20 1   
     6    3    4 1   
     7    3   21 1   
     8    4   13 1   
     9    4   22 1   
    10    5    6 1   
    11    6   23 1   
    12    7   13 1   
    13    7   14 1   
    14    7   24 1   
    15    7   26 1   
    16    8    9 1   
    17    8   25 1   
    18    8   27 1   
    19    8   28 1   
    20    9   10 1   
    21   10   15 1   
    22   10   16 1   
    23   11   12 1   
    24   11   17 1   
    25   11   36 1   
    26   12   18 1   
    27   13   29 1   
    28   14   30 1   
    29   17   19 1   
    30   17   31 1   
    31   17   32 1   
    32   18   19 1   
    33   18   35 1   
    34   19   33 1   
    35   19   34 1   
@<TRIPOS>SUBSTRUCTURE
     1 PDM         1 TEMP              0 ****  ****    0 ROOT
