@<TRIPOS>MOLECULE
PDM
   36    37     1     0     0
SMALL
bcc


@<TRIPOS>ATOM
      1 CP1         0.1600    0.0230    2.4020 ca        1 PDM     -0.039400
      2 CP2         1.3770    0.5210    1.8960 ca        1 PDM     -0.090500
      3 CP3         1.6110    0.5650    0.5320 ca        1 PDM     -0.190500
      4 CP4         0.6410    0.1090   -0.4000 ca        1 PDM      0.194600
      5 CP5        -0.5950   -0.3490    0.1210 ca        1 PDM     -0.190500
      6 CP6        -0.8250   -0.4030    1.4860 ca        1 PDM     -0.090500
      7 CP7        -0.0590   -0.2290   -2.7650 c3        1 PDM      0.406300
      8 CP8         0.5910   -0.3950   -4.1530 c3        1 PDM     -0.088400
      9 CP9        -0.4420   -0.4340   -5.2560 c3        1 PDM     -0.209400
     10 C10        -0.5720    0.9240   -5.9700 c         1 PDM      0.909600
     11 C11        -1.3320    0.1370    4.4170 c         1 PDM      0.700500
     12 NP1        -0.0710   -0.0400    3.8010 n         1 PDM     -0.396600
     13 NP2         0.9650    0.0430   -1.7510 nh        1 PDM     -0.757600
     14 OP3        -1.0810    0.7490   -2.7470 oh        1 PDM     -0.654800
     15 OP4        -0.8090    0.9240   -7.2070 o         1 PDM     -0.845800
     16 OP5        -0.4380    1.9790   -5.2750 o         1 PDM     -0.845800
     17 C12        -1.1770    0.0110    5.9330 c3        1 PDM     -0.167400
     18 C14         0.9290   -0.2820    4.7690 c         1 PDM      0.700500
     19 C13         0.3010   -0.2740    6.1620 c3        1 PDM     -0.167400
     20 HP2         2.1660    0.8640    2.5850 ha        1 PDM      0.141000
     21 HP3         2.5740    0.9580    0.1730 ha        1 PDM      0.143000
     22 HP5        -1.4030   -0.6400   -0.5690 ha        1 PDM      0.143000
     23 HP6        -1.8040   -0.7560    1.8480 ha        1 PDM      0.141000
     24 HP7        -0.5730   -1.1930   -2.4660 h2        1 PDM      0.055700
     25 HP81        1.2890    0.4640   -4.3490 hc        1 PDM      0.043700
     26 HP82        1.1930   -1.3390   -4.1450 hc        1 PDM      0.043700
     27 HP91       -0.1600   -1.2090   -6.0120 hc        1 PDM      0.037700
     28 HP92       -1.4490   -0.7010   -4.8480 hc        1 PDM      0.037700
     29 HP2N        1.6370    0.7250   -2.0370 hn        1 PDM      0.399800
     30 HP3O       -0.9120    1.4000   -3.4590 ho        1 PDM      0.473000
     31 H121       -1.5050    0.9640    6.4160 hc        1 PDM      0.082700
     32 H122       -1.8300   -0.8170    6.3020 hc        1 PDM      0.082700
     33 H131        0.7930    0.5150    6.7830 hc        1 PDM      0.082700
     34 H132        0.4710   -1.2650    6.6480 hc        1 PDM      0.082700
     35 OP2         2.1300   -0.4680    4.5450 o         1 PDM     -0.583000
     36 OP1        -2.4010    0.3520    3.8400 o         1 PDM     -0.583000
@<TRIPOS>BOND
     1    1    2 ar  
     2    1    6 ar  
     3    1   12 1   
     4    2    3 ar  
     5    2   20 1   
     6    3    4 ar  
     7    3   21 1   
     8    4    5 ar  
     9    4   13 1   
    10    5    6 ar  
    11    5   22 1   
    12    6   23 1   
    13    7    8 1   
    14    7   13 1   
    15    7   14 1   
    16    7   24 1   
    17    8    9 1   
    18    8   25 1   
    19    8   26 1   
    20    9   10 1   
    21    9   27 1   
    22    9   28 1   
    23   10   15 1   
    24   10   16 1   
    25   11   12 1   
    26   11   17 1   
    27   11   36 2   
    28   12   18 1   
    29   13   29 1   
    30   14   30 1   
    31   17   19 1   
    32   17   31 1   
    33   17   32 1   
    34   18   19 1   
    35   18   35 2   
    36   19   33 1   
    37   19   34 1   
@<TRIPOS>SUBSTRUCTURE
     1 PDM         1 TEMP              0 ****  ****    0 ROOT
