@<TRIPOS>MOLECULE
PDM
   36    33     1     0     0
SMALL
bcc


@<TRIPOS>ATOM
      1 CP1        -1.0740   -0.5390   -1.8570 c1        1 PDM     -0.031000
      2 CP2         0.3190   -0.5520   -1.9670 c1        1 PDM     -0.147500
      3 CP3         1.1070   -0.5120   -0.8240 c1        1 PDM     -0.147500
      4 CP4         0.5150   -0.4590    0.4220 c1        1 PDM      0.112000
      5 CP5        -0.8710   -0.4460    0.5320 c1        1 PDM     -0.175000
      6 CP6        -1.6640   -0.4860   -0.6180 c1        1 PDM     -0.090000
      7 CP7         1.3560    0.5300    2.5410 c3        1 PDM      0.136000
      8 CP8         2.5290    0.3520    3.4910 c3        1 PDM     -0.167000
      9 CP9         2.8390    1.6750    4.1660 c3        1 PDM     -0.237000
     10 C10         4.0730    1.5190    5.0460 c2        1 PDM      0.329000
     11 C11        -2.2020    0.4820   -3.8160 c1        1 PDM      0.308000
     12 NP1        -1.8770   -0.5840   -3.0250 n2        1 PDM     -0.270000
     13 NP2         1.3270   -0.5540    1.6040 n3        1 PDM     -0.313000
     14 OP1        -1.6080    1.5530   -3.8620 o         1 PDM     -0.307000
     15 OP2        -1.8450   -2.9010   -3.5780 o         1 PDM     -0.309000
     16 OP3         0.1490    0.5490    3.2790 oh        1 PDM     -0.383000
     17 OP4         5.2110    1.5000    4.5220 o         1 PDM     -0.580500
     18 OP5         3.9570    1.5540    6.3190 o         1 PDM     -0.580500
     19 C12        -3.4200    0.0750   -4.6880 c3        1 PDM     -0.196000
     20 C14        -2.3190   -1.7960   -3.7120 c2        1 PDM      0.308000
     21 C13        -3.5480   -1.4660   -4.4450 c3        1 PDM     -0.196000
     22 HP2         0.7290   -0.5570   -2.8290 ha        1 PDM      0.134500
     23 HP3         2.1180   -0.4780   -0.9050 ha        1 PDM      0.134500
     24 HP5        -1.2880   -0.4860    1.4100 ha        1 PDM      0.157000
     25 HP6        -2.6670   -0.5730   -0.4580 ha        1 PDM      0.142000
     26 HP7         1.4570    1.3920    2.0500 h2        1 PDM      0.096000
     27 HP81        2.2940   -0.3380    4.1920 hc        1 PDM      0.083500
     28 HP82        3.3370    0.0420    2.9710 hc        1 PDM      0.083500
     29 HP91        3.0120    2.3690    3.4740 hc        1 PDM      0.077000
     30 HP92        2.0710    1.9470    4.7200 hc        1 PDM      0.077000
     31 HP2N        1.7390   -1.3450    1.8100 hn        1 PDM      0.195000
     32 HP3O       -0.1400    1.3540    3.3340 ho        1 PDM      0.272000
     33 H121       -4.2840    0.4800   -4.5690 hc        1 PDM      0.122500
     34 H122       -3.2150    0.3230   -5.6050 hc        1 PDM      0.122500
     35 H131       -3.8190   -1.9200   -5.2790 hc        1 PDM      0.122000
     36 H132       -4.2960   -1.7080   -3.8460 hc        1 PDM      0.122000
@<TRIPOS>BOND
     1    1    6 1   
     2    1   12 1   
     3    2    3 1   
     4    2   22 1   
     5    3   23 1   
     6    4    5 1   
     7    4   13 1   
     8    5   24 1   
     9    6   25 1   
    10    7    8 1   
    11    7   13 1   
    12    7   16 1   
    13    7   26 1   
    14    8    9 1   
    15    8   27 1   
    16    8   28 1   
    17    9   10 1   
    18    9   29 1   
    19    9   30 1   
    20   10   17 1   
    21   10   18 1   
    22   11   14 1   
    23   11   19 1   
    24   12   20 1   
    25   13   31 1   
    26   15   20 1   
    27   16   32 1   
    28   19   21 1   
    29   19   33 1   
    30   19   34 1   
    31   20   21 1   
    32   21   35 1   
    33   21   36 1   
@<TRIPOS>SUBSTRUCTURE
     1 PDM         1 TEMP              0 ****  ****    0 ROOT
