@<TRIPOS>MOLECULE
PDN
   52    55     1     0     0
SMALL
bcc


@<TRIPOS>ATOM
      1 C1          1.6250   -0.1090   -3.2160 c2        1 PDN     -0.105200
      2 C2          1.6300   -0.6910   -4.4200 ce        1 PDN     -0.247200
      3 C3          0.4110   -0.8150   -5.2340 c         1 PDN      0.560500
      4 C4         -0.8210   -0.3340   -4.5920 ce        1 PDN     -0.246200
      5 C5         -0.8350    0.2460   -3.3800 c2        1 PDN     -0.047400
      6 C6         -2.1190    0.6760   -2.7570 c3        1 PDN     -0.054200
      7 C7         -2.2810    0.0490   -1.3880 c3        1 PDN     -0.072400
      8 C8         -1.0840    0.3570   -0.5050 c3        1 PDN     -0.044700
      9 C9          0.2210   -0.1250   -1.1670 c3        1 PDN     -0.143700
     10 C10         0.4130    0.4990   -2.5680 c3        1 PDN      0.017400
     11 C11         1.3920    0.0490   -0.2180 c         1 PDN      0.579100
     12 C12         1.2180   -0.5380    1.1660 c3        1 PDN     -0.166400
     13 C13        -0.0540    0.0170    1.7830 c3        1 PDN     -0.027000
     14 C14        -1.2210   -0.3390    0.8350 c3        1 PDN     -0.073700
     15 C15        -2.4720   -0.0890    1.6670 c3        1 PDN     -0.068400
     16 C16        -2.0720   -0.4680    3.0940 c3        1 PDN     -0.100400
     17 C17        -0.5300   -0.6550    3.1090 c3        1 PDN      0.216000
     18 C18         0.1020    1.5100    2.0160 c3        1 PDN     -0.091100
     19 C19         0.6540    2.0090   -2.4900 c3        1 PDN     -0.088100
     20 C20         0.1190   -0.0830    4.3420 c2        1 PDN      0.014900
     21 C21         1.1990   -0.6450    4.9310 c2        1 PDN     -0.100900
     22 O1          0.4160   -1.3000   -6.3740 o         1 PDN     -0.534100
     23 O2          2.4540    0.6010   -0.5250 o         1 PDN     -0.540100
     24 O3         -0.1980   -2.0380    3.0060 oh        1 PDN     -0.599800
     25 O4         -0.5100    1.0380    4.8360 oh        1 PDN     -0.501100
     26 O5          1.6660   -0.0870    6.1070 oh        1 PDN     -0.525100
     27 HC1         2.5580   -0.0110   -2.6330 ha        1 PDN      0.158000
     28 HC2         2.5500   -1.1030   -4.8640 ha        1 PDN      0.152000
     29 HC4        -1.7470   -0.4890   -5.1690 ha        1 PDN      0.149000
     30 HC61       -2.9890    0.3860   -3.4050 hc        1 PDN      0.057700
     31 HC62       -2.1280    1.7960   -2.6690 hc        1 PDN      0.057700
     32 HC71       -2.4010   -1.0610   -1.4910 hc        1 PDN      0.051200
     33 HC72       -3.2100    0.4460   -0.8990 hc        1 PDN      0.051200
     34 HC8        -1.0320    1.4700   -0.3510 hc        1 PDN      0.064700
     35 HC9         0.1300   -1.2420   -1.3250 hc        1 PDN      0.080700
     36 H121        2.1060   -0.2830    1.8000 hc        1 PDN      0.081200
     37 H122        1.1580   -1.6560    1.0880 hc        1 PDN      0.081200
     38 HC41       -1.1690   -1.4530    0.6470 hc        1 PDN      0.064700
     39 H151       -2.7820    0.9840    1.6120 hc        1 PDN      0.048700
     40 H152       -3.3260   -0.7120    1.3060 hc        1 PDN      0.048700
     41 H161       -2.3740    0.3350    3.8110 hc        1 PDN      0.063700
     42 H162       -2.5660   -1.4210    3.4050 hc        1 PDN      0.063700
     43 H181        0.3870    2.0310    1.0700 hc        1 PDN      0.047033
     44 H182       -0.8500    1.9450    2.4070 hc        1 PDN      0.047033
     45 H183        0.9060    1.6970    2.7700 hc        1 PDN      0.047033
     46 H191        0.7530    2.4300   -3.5180 hc        1 PDN      0.051367
     47 H192       -0.1950    2.5190   -1.9760 hc        1 PDN      0.051367
     48 H193        1.5950    2.2140   -1.9230 hc        1 PDN      0.051367
     49 HC12        1.7060   -1.5400    4.5490 h4        1 PDN      0.156000
     50 HO3        -0.5900   -2.4790    3.7700 ho        1 PDN      0.410000
     51 HO4         0.0240    1.3780    5.5720 ho        1 PDN      0.434000
     52 HO5         2.6240   -0.2160    6.1120 ho        1 PDN      0.421000
@<TRIPOS>BOND
     1    1    2 2   
     2    1   10 1   
     3    1   27 1   
     4    2    3 1   
     5    2   28 1   
     6    3    4 1   
     7    3   22 2   
     8    4    5 2   
     9    4   29 1   
    10    5    6 1   
    11    5   10 1   
    12    6    7 1   
    13    6   30 1   
    14    6   31 1   
    15    7    8 1   
    16    7   32 1   
    17    7   33 1   
    18    8    9 1   
    19    8   14 1   
    20    8   34 1   
    21    9   10 1   
    22    9   11 1   
    23    9   35 1   
    24   10   19 1   
    25   11   12 1   
    26   11   23 2   
    27   12   13 1   
    28   12   36 1   
    29   12   37 1   
    30   13   14 1   
    31   13   17 1   
    32   13   18 1   
    33   14   15 1   
    34   14   38 1   
    35   15   16 1   
    36   15   39 1   
    37   15   40 1   
    38   16   17 1   
    39   16   41 1   
    40   16   42 1   
    41   17   20 1   
    42   17   24 1   
    43   18   43 1   
    44   18   44 1   
    45   18   45 1   
    46   19   46 1   
    47   19   47 1   
    48   19   48 1   
    49   20   21 2   
    50   20   25 1   
    51   21   26 1   
    52   21   49 1   
    53   24   50 1   
    54   25   51 1   
    55   26   52 1   
@<TRIPOS>SUBSTRUCTURE
     1 PDN         1 TEMP              0 ****  ****    0 ROOT
