@<TRIPOS>MOLECULE
PDN
   52    55     1     0     0
SMALL
bcc


@<TRIPOS>ATOM
      1 C1         -0.0230    0.0350   -0.0520 c2        1 PDN     -0.105200
      2 C2          1.2840    0.3060   -0.1190 ce        1 PDN     -0.247200
      3 C3          2.1050    0.5010    1.0850 c         1 PDN      0.560500
      4 C4          1.3680    0.4640    2.3570 ce        1 PDN     -0.246200
      5 C5          0.0530    0.1990    2.4320 c2        1 PDN     -0.047400
      6 C6         -0.6530    0.2170    3.7440 c3        1 PDN     -0.054200
      7 C7         -1.8340    1.1640    3.6990 c3        1 PDN     -0.072400
      8 C8         -2.7660    0.8160    2.5500 c3        1 PDN     -0.044700
      9 C9         -2.0090    0.8330    1.2090 c3        1 PDN     -0.143700
     10 C10        -0.7970   -0.1260    1.2260 c3        1 PDN      0.017400
     11 C11        -2.9730    0.6320    0.0540 c         1 PDN      0.579100
     12 C12        -4.1770    1.5480    0.0290 c3        1 PDN     -0.166400
     13 C13        -4.9080    1.4440    1.3560 c3        1 PDN     -0.027000
     14 C14        -3.9010    1.8160    2.4680 c3        1 PDN     -0.073700
     15 C15        -4.7680    2.0460    3.6980 c3        1 PDN     -0.068400
     16 C16        -6.0650    2.6490    3.1540 c3        1 PDN     -0.100400
     17 C17        -6.0350    2.4920    1.6090 c3        1 PDN      0.216000
     18 C18        -5.4890    0.0480    1.5100 c3        1 PDN     -0.091100
     19 C19        -1.2320   -1.5910    1.3090 c3        1 PDN     -0.088100
     20 C20        -7.3700    2.0940    1.0340 c2        1 PDN      0.014900
     21 C21        -7.8090    2.5280   -0.1690 c2        1 PDN     -0.100900
     22 O1          3.3280    0.6950    1.0360 o         1 PDN     -0.534100
     23 O2         -2.8060   -0.1950   -0.8480 o         1 PDN     -0.540100
     24 O3         -5.6070    3.7070    0.9960 oh        1 PDN     -0.599800
     25 O4         -8.1160    1.2840    1.8610 oh        1 PDN     -0.501100
     26 O5         -9.0840    2.1700   -0.5660 oh        1 PDN     -0.525100
     27 HC1        -0.6140   -0.1270   -0.9720 ha        1 PDN      0.158000
     28 HC2         1.8130    0.3920   -1.0820 ha        1 PDN      0.152000
     29 HC4         1.9660    0.6800    3.2580 ha        1 PDN      0.149000
     30 HC61        0.0450    0.5320    4.5650 hc        1 PDN      0.057700
     31 HC62       -1.0050   -0.8220    3.9870 hc        1 PDN      0.057700
     32 HC71       -1.4700    2.2190    3.5850 hc        1 PDN      0.051200
     33 HC72       -2.4020    1.1050    4.6640 hc        1 PDN      0.051200
     34 HC8        -3.1800   -0.2150    2.7290 hc        1 PDN      0.064700
     35 HC9        -1.5900    1.8750    1.0690 hc        1 PDN      0.080700
     36 H121       -3.8360    2.6020   -0.1460 hc        1 PDN      0.081200
     37 H122       -4.8550    1.2590   -0.8160 hc        1 PDN      0.081200
     38 HC41       -3.4550    2.8170    2.1890 hc        1 PDN      0.064700
     39 H151       -4.2690    2.7400    4.4180 hc        1 PDN      0.048700
     40 H152       -4.9700    1.0840    4.2320 hc        1 PDN      0.048700
     41 H161       -6.9520    2.1210    3.5840 hc        1 PDN      0.063700
     42 H162       -6.1400    3.7320    3.4180 hc        1 PDN      0.063700
     43 H181       -6.2670   -0.1290    0.7260 hc        1 PDN      0.047033
     44 H182       -5.9720   -0.0650    2.5100 hc        1 PDN      0.047033
     45 H183       -4.6940   -0.7270    1.3910 hc        1 PDN      0.047033
     46 H191       -0.3330   -2.2510    1.3540 hc        1 PDN      0.051367
     47 H192       -1.8310   -1.8600    0.4050 hc        1 PDN      0.051367
     48 H193       -1.8510   -1.7690    2.2190 hc        1 PDN      0.051367
     49 HC12       -7.2260    3.1760   -0.8350 h4        1 PDN      0.156000
     50 HO3        -6.2450    4.3880    1.2460 ho        1 PDN      0.410000
     51 HO4        -8.9120    1.0160    1.3740 ho        1 PDN      0.434000
     52 HO5        -9.0600    2.0830   -1.5290 ho        1 PDN      0.421000
@<TRIPOS>BOND
     1    1    2 2   
     2    1   10 1   
     3    1   27 1   
     4    2    3 1   
     5    2   28 1   
     6    3    4 1   
     7    3   22 2   
     8    4    5 2   
     9    4   29 1   
    10    5    6 1   
    11    5   10 1   
    12    6    7 1   
    13    6   30 1   
    14    6   31 1   
    15    7    8 1   
    16    7   32 1   
    17    7   33 1   
    18    8    9 1   
    19    8   14 1   
    20    8   34 1   
    21    9   10 1   
    22    9   11 1   
    23    9   35 1   
    24   10   19 1   
    25   11   12 1   
    26   11   23 2   
    27   12   13 1   
    28   12   36 1   
    29   12   37 1   
    30   13   14 1   
    31   13   17 1   
    32   13   18 1   
    33   14   15 1   
    34   14   38 1   
    35   15   16 1   
    36   15   39 1   
    37   15   40 1   
    38   16   17 1   
    39   16   41 1   
    40   16   42 1   
    41   17   20 1   
    42   17   24 1   
    43   18   43 1   
    44   18   44 1   
    45   18   45 1   
    46   19   46 1   
    47   19   47 1   
    48   19   48 1   
    49   20   21 2   
    50   20   25 1   
    51   21   26 1   
    52   21   49 1   
    53   24   50 1   
    54   25   51 1   
    55   26   52 1   
@<TRIPOS>SUBSTRUCTURE
     1 PDN         1 TEMP              0 ****  ****    0 ROOT
