@<TRIPOS>MOLECULE
PDN
   52    51     1     0     0
SMALL
bcc


@<TRIPOS>ATOM
      1 C1          1.7720   -0.8090   -0.2760 c1        1 PDN     -0.166000
      2 C2          3.3260   -0.8090   -0.2760 c1        1 PDN     -0.166000
      3 C3          4.1010   -0.8090    1.2430 c1        1 PDN      0.282000
      4 C4          3.1760   -0.5760    2.5760 c2        1 PDN     -0.237000
      5 C5          1.7840   -0.2090    2.3490 c1        1 PDN     -0.023000
      6 C6          1.5260    1.0200    2.3440 c2        1 PDN     -0.137000
      7 C7          0.2510    1.1690    2.2530 c3        1 PDN     -0.150000
      8 C8         -0.4410    0.2820    0.9690 c3        1 PDN     -0.096000
      9 C9         -0.2090   -0.6990    0.9920 c3        1 PDN     -0.132000
     10 C10         1.0850   -0.9670    1.1070 c2        1 PDN      0.006000
     11 C11        -0.6320   -1.2980    0.0680 c2        1 PDN      0.250000
     12 C12        -0.1980   -0.5850   -1.5390 c3        1 PDN     -0.207000
     13 C13        -0.4370    0.3230   -1.5490 c3        1 PDN     -0.060000
     14 C14         0.0040    1.0190   -0.4770 c3        1 PDN     -0.094000
     15 C15        -0.6010    2.1660   -0.5080 c3        1 PDN     -0.152000
     16 C16        -1.5620    1.9610   -1.0220 c3        1 PDN     -0.152000
     17 C17        -1.4010    0.4730   -1.6490 c3        1 PDN      0.147000
     18 C18         0.2480    0.9490   -2.8030 c3        1 PDN     -0.200000
     19 C19         1.1730   -2.4760    1.4440 c3        1 PDN     -0.201000
     20 C20        -2.4430   -0.7960   -0.8330 c2        1 PDN     -0.054000
     21 C21        -3.5500   -0.4160   -0.1090 c1        1 PDN     -0.076000
     22 O1          5.2260   -1.2650    1.3540 o         1 PDN     -0.289000
     23 O2         -1.6440   -1.9630    0.1860 o         1 PDN     -0.325000
     24 O3         -1.8330    0.3970   -3.0040 oh        1 PDN     -0.316000
     25 O4         -2.1100   -2.1690   -0.9490 oh        1 PDN     -0.292000
     26 O5         -3.8830    0.9490    0.0060 o         1 PDN     -0.257000
     27 HC1         1.2600   -0.8120   -1.1070 ha        1 PDN      0.149500
     28 HC2         3.8310   -0.9460   -1.1000 ha        1 PDN      0.149500
     29 HC4         3.5660   -0.5640    3.4710 ha        1 PDN      0.152000
     30 HC61        1.8820    1.6280    3.0200 ha        1 PDN      0.098500
     31 HC62        1.9810    1.3590    1.5500 ha        1 PDN      0.098500
     32 HC71        0.0550    2.1160    2.1200 hc        1 PDN      0.087000
     33 HC72       -0.1590    0.8790    3.0900 hc        1 PDN      0.087000
     34 HC8        -1.4110    0.3550    1.0510 hc        1 PDN      0.116000
     35 HC9        -0.6410   -1.0680    1.7860 hc        1 PDN      0.115000
     36 H121       -0.4400   -1.0700   -2.3510 hc        1 PDN      0.120000
     37 H122        0.7750   -0.6430   -1.5950 hc        1 PDN      0.120000
     38 HC41        0.9720    1.1400   -0.5180 hc        1 PDN      0.100000
     39 H151       -0.0760    2.8140   -1.0150 hc        1 PDN      0.085000
     40 H152       -0.7630    2.4910    0.3980 hc        1 PDN      0.085000
     41 H161       -1.7110    2.6130   -1.7330 hc        1 PDN      0.109000
     42 H162       -2.2990    1.9810   -0.3820 hc        1 PDN      0.109000
     43 H181       -0.1220    1.8380   -2.9660 hc        1 PDN      0.083333
     44 H182        1.2090    1.0200   -2.6480 hc        1 PDN      0.083333
     45 H183        0.0850    0.3810   -3.5800 hc        1 PDN      0.083333
     46 H191        0.4730   -2.7070    2.0840 hc        1 PDN      0.087667
     47 H192        2.0470   -2.6720    1.8330 hc        1 PDN      0.087667
     48 H193        1.0540   -2.9990    0.6290 hc        1 PDN      0.087667
     49 HC12       -4.1050   -1.0920    0.3250 ha        1 PDN      0.138000
     50 HO3        -2.6790    0.6610   -3.0600 ho        1 PDN      0.217000
     51 HO4        -2.7600   -2.5960   -1.3760 ho        1 PDN      0.230000
     52 HO5        -4.7510    1.0280    0.1750 ho        1 PDN      0.217000
@<TRIPOS>BOND
     1    1    2 1   
     2    1   27 1   
     3    2   28 1   
     4    3    4 1   
     5    3   22 1   
     6    4    5 1   
     7    4   29 1   
     8    5   10 1   
     9    6    7 1   
    10    6   30 1   
    11    6   31 1   
    12    7    8 1   
    13    7   32 1   
    14    7   33 1   
    15    8    9 1   
    16    8   14 1   
    17    8   34 1   
    18    9   10 1   
    19    9   11 1   
    20    9   35 1   
    21   10   19 1   
    22   11   12 1   
    23   11   23 1   
    24   12   13 1   
    25   12   36 1   
    26   12   37 1   
    27   13   14 1   
    28   13   17 1   
    29   13   18 1   
    30   14   15 1   
    31   14   38 1   
    32   15   16 1   
    33   15   39 1   
    34   15   40 1   
    35   16   17 1   
    36   16   41 1   
    37   16   42 1   
    38   17   20 1   
    39   17   24 1   
    40   18   43 1   
    41   18   44 1   
    42   18   45 1   
    43   19   46 1   
    44   19   47 1   
    45   19   48 1   
    46   20   21 1   
    47   20   25 1   
    48   21   49 1   
    49   24   50 1   
    50   25   51 1   
    51   26   52 1   
@<TRIPOS>SUBSTRUCTURE
     1 PDN         1 TEMP              0 ****  ****    0 ROOT
