@<TRIPOS>MOLECULE
PDN
   52    55     1     0     0
SMALL
bcc


@<TRIPOS>ATOM
      1 C1         -0.0040    0.0800   -0.0420 c2        1 PDN     -0.105200
      2 C2          1.3030    0.3610   -0.0940 ce        1 PDN     -0.247200
      3 C3          2.1120    0.5440    1.1190 c         1 PDN      0.560500
      4 C4          1.3650    0.4830    2.3840 ce        1 PDN     -0.246200
      5 C5          0.0510    0.2090    2.4450 c2        1 PDN     -0.047400
      6 C6         -0.6650    0.2040    3.7520 c3        1 PDN     -0.054200
      7 C7         -1.8520    1.1440    3.7100 c3        1 PDN     -0.072400
      8 C8         -2.7720    0.8060    2.5490 c3        1 PDN     -0.044700
      9 C9         -2.0040    0.8480    1.2150 c3        1 PDN     -0.143700
     10 C10        -0.7860   -0.1040    1.2280 c3        1 PDN      0.017400
     11 C11        -2.9580    0.6570    0.0490 c         1 PDN      0.579100
     12 C12        -4.1680    1.5650    0.0270 c3        1 PDN     -0.166400
     13 C13        -4.9080    1.4380    1.3460 c3        1 PDN     -0.027000
     14 C14        -3.9130    1.8000    2.4720 c3        1 PDN     -0.073700
     15 C15        -4.7910    2.0070    3.6980 c3        1 PDN     -0.068400
     16 C16        -6.0880    2.6090    3.1520 c3        1 PDN     -0.100400
     17 C17        -6.0450    2.4750    1.6060 c3        1 PDN      0.216000
     18 C18        -5.4820    0.0360    1.4760 c3        1 PDN     -0.091100
     19 C19        -1.2130   -1.5730    1.2860 c3        1 PDN     -0.088100
     20 C20        -7.3720    2.0770    1.0140 c2        1 PDN      0.014900
     21 C21        -7.8040    2.5250   -0.1870 c2        1 PDN     -0.100900
     22 O1          3.3340    0.7460    1.0830 o         1 PDN     -0.534100
     23 O2         -2.7790   -0.1560   -0.8630 o         1 PDN     -0.540100
     24 O3         -5.6200    3.7010    1.0140 oh        1 PDN     -0.599800
     25 O4         -8.1190    1.2510    1.8230 oh        1 PDN     -0.501100
     26 O5         -9.0740    2.1650   -0.5990 oh        1 PDN     -0.525100
     27 HC1        -0.5860   -0.0720   -0.9690 ha        1 PDN      0.158000
     28 HC2         1.8380    0.4640   -1.0520 ha        1 PDN      0.152000
     29 HC4         1.9540    0.6900    3.2930 ha        1 PDN      0.149000
     30 HC61        0.0250    0.5110    4.5820 hc        1 PDN      0.057700
     31 HC62       -1.0130   -0.8410    3.9770 hc        1 PDN      0.057700
     32 HC71       -1.4940    2.2030    3.6150 hc        1 PDN      0.051200
     33 HC72       -2.4270    1.0670    4.6700 hc        1 PDN      0.051200
     34 HC8        -3.1810   -0.2300    2.7100 hc        1 PDN      0.064700
     35 HC9        -1.5910    1.8940    1.0920 hc        1 PDN      0.080700
     36 H121       -4.8370    1.2850   -0.8280 hc        1 PDN      0.081200
     37 H122       -3.8320    2.6240   -0.1300 hc        1 PDN      0.081200
     38 HC41       -3.4710    2.8080    2.2110 hc        1 PDN      0.064700
     39 H151       -4.9910    1.0370    4.2170 hc        1 PDN      0.048700
     40 H152       -4.3030    2.6940    4.4320 hc        1 PDN      0.048700
     41 H161       -6.9750    2.0700    3.5670 hc        1 PDN      0.063700
     42 H162       -6.1720    3.6880    3.4310 hc        1 PDN      0.063700
     43 H181       -6.2520   -0.1350    0.6830 hc        1 PDN      0.047033
     44 H182       -4.6810   -0.7320    1.3520 hc        1 PDN      0.047033
     45 H183       -5.9720   -0.0940    2.4710 hc        1 PDN      0.047033
     46 H191       -1.8030   -1.8330    0.3730 hc        1 PDN      0.051367
     47 H192       -0.3100   -2.2280    1.3290 hc        1 PDN      0.051367
     48 H193       -1.8380   -1.7680    2.1880 hc        1 PDN      0.051367
     49 HC12       -7.2200    3.1870   -0.8380 h4        1 PDN      0.156000
     50 HO3        -6.2630    4.3740    1.2680 ho        1 PDN      0.410000
     51 HO4        -8.9100    0.9850    1.3260 ho        1 PDN      0.434000
     52 HO5        -9.0410    2.0920   -1.5630 ho        1 PDN      0.421000
@<TRIPOS>BOND
     1    1    2 2   
     2    1   10 1   
     3    1   27 1   
     4    2    3 1   
     5    2   28 1   
     6    3    4 1   
     7    3   22 2   
     8    4    5 2   
     9    4   29 1   
    10    5    6 1   
    11    5   10 1   
    12    6    7 1   
    13    6   30 1   
    14    6   31 1   
    15    7    8 1   
    16    7   32 1   
    17    7   33 1   
    18    8    9 1   
    19    8   14 1   
    20    8   34 1   
    21    9   10 1   
    22    9   11 1   
    23    9   35 1   
    24   10   19 1   
    25   11   12 1   
    26   11   23 2   
    27   12   13 1   
    28   12   36 1   
    29   12   37 1   
    30   13   14 1   
    31   13   17 1   
    32   13   18 1   
    33   14   15 1   
    34   14   38 1   
    35   15   16 1   
    36   15   39 1   
    37   15   40 1   
    38   16   17 1   
    39   16   41 1   
    40   16   42 1   
    41   17   20 1   
    42   17   24 1   
    43   18   43 1   
    44   18   44 1   
    45   18   45 1   
    46   19   46 1   
    47   19   47 1   
    48   19   48 1   
    49   20   21 2   
    50   20   25 1   
    51   21   26 1   
    52   21   49 1   
    53   24   50 1   
    54   25   51 1   
    55   26   52 1   
@<TRIPOS>SUBSTRUCTURE
     1 PDN         1 TEMP              0 ****  ****    0 ROOT
