@<TRIPOS>MOLECULE
PDO
   13    12     1     0     0
SMALL
bcc


@<TRIPOS>ATOM
      1 C1         -0.0090   -0.0000   -0.0020 c3        1 PDO      0.132400
      2 O1          1.4080    0.0000    0.0670 oh        1 PDO     -0.597800
      3 C2         -0.5210    0.0000    1.4270 c3        1 PDO     -0.088400
      4 C3         -2.0390   -0.0000    1.4320 c3        1 PDO      0.132400
      5 O3         -2.4470    0.0000    2.7910 oh        1 PDO     -0.597800
      6 H11        -0.3650    0.9130   -0.5510 h1        1 PDO      0.019700
      7 H12        -0.3650   -0.9130   -0.5510 h1        1 PDO      0.019700
      8 HO1         1.7270   -0.0000   -0.8430 ho        1 PDO      0.400000
      9 H21        -0.1370    0.9010    1.9700 hc        1 PDO      0.070700
     10 H22        -0.1370   -0.9010    1.9700 hc        1 PDO      0.070700
     11 H31        -2.4380    0.9130    0.9130 h1        1 PDO      0.019700
     12 H32        -2.4380   -0.9130    0.9130 h1        1 PDO      0.019700
     13 HO3        -3.4110    0.0000    2.7880 ho        1 PDO      0.400000
@<TRIPOS>BOND
     1    1    2 1   
     2    1    3 1   
     3    1    6 1   
     4    1    7 1   
     5    2    8 1   
     6    3    4 1   
     7    3    9 1   
     8    3   10 1   
     9    4    5 1   
    10    4   11 1   
    11    4   12 1   
    12    5   13 1   
@<TRIPOS>SUBSTRUCTURE
     1 PDO         1 TEMP              0 ****  ****    0 ROOT
