@<TRIPOS>MOLECULE
PDO
   13    12     1     0     0
SMALL
bcc


@<TRIPOS>ATOM
      1 C1         -1.2430   -0.5020   -0.0000 c3        1 PDO      0.132400
      2 O1         -2.3600    0.3720    0.0000 oh        1 PDO     -0.597800
      3 C2         -0.0000    0.3690    0.0000 c3        1 PDO     -0.088400
      4 C3          1.2430   -0.5020   -0.0000 c3        1 PDO      0.132400
      5 O3          2.3600    0.3720    0.0000 oh        1 PDO     -0.597800
      6 H11        -1.2690   -1.1560    0.9130 h1        1 PDO      0.019700
      7 H12        -1.2690   -1.1560   -0.9130 h1        1 PDO      0.019700
      8 HO1        -3.1460   -0.1870    0.0000 ho        1 PDO      0.400000
      9 H21         0.0000    1.0350   -0.9010 hc        1 PDO      0.070700
     10 H22        -0.0000    1.0350    0.9010 hc        1 PDO      0.070700
     11 H31         1.2690   -1.1560    0.9130 h1        1 PDO      0.019700
     12 H32         1.2690   -1.1560   -0.9130 h1        1 PDO      0.019700
     13 HO3         3.1460   -0.1870    0.0000 ho        1 PDO      0.400000
@<TRIPOS>BOND
     1    1    2 1   
     2    1    3 1   
     3    1    6 1   
     4    1    7 1   
     5    2    8 1   
     6    3    4 1   
     7    3    9 1   
     8    3   10 1   
     9    4    5 1   
    10    4   11 1   
    11    4   12 1   
    12    5   13 1   
@<TRIPOS>SUBSTRUCTURE
     1 PDO         1 TEMP              0 ****  ****    0 ROOT
