@<TRIPOS>MOLECULE
PDQ
   52    55     1     0     0
SMALL
bcc


@<TRIPOS>ATOM
      1 C1         -0.1170    0.1280   -0.1190 c         1 PDQ      0.743100
      2 O2         -0.8550    0.4730    0.8080 o         1 PDQ     -0.548500
      3 C3          1.3470    0.2380   -0.1680 ca        1 PDQ     -0.176600
      4 C4          1.9980    0.5490    1.0270 ca        1 PDQ     -0.068000
      5 C6          3.3940    0.5780    1.0630 ca        1 PDQ      0.076900
      6 F7          4.0030    0.9120    2.2280 f         1 PDQ     -0.130900
      7 C8          4.1650    0.2320   -0.0880 ca        1 PDQ      0.122600
      8 C10         3.4950   -0.1070   -1.2890 ca        1 PDQ     -0.033300
      9 C12         2.0750   -0.0140   -1.3560 ca        1 PDQ      0.100600
     10 N13         1.3660   -0.2070   -2.5630 n         1 PDQ     -0.291000
     11 C15         0.0010   -0.5130   -2.5560 c         1 PDQ      0.817500
     12 O16        -0.6570   -0.8230   -3.5640 o         1 PDQ     -0.577500
     13 N17        -0.7040   -0.5190   -1.2710 n         1 PDQ     -0.489800
     14 C18         1.8870    0.2580   -3.8290 cx        1 PDQ     -0.003300
     15 C20         2.4170    1.6670   -4.0260 cx        1 PDQ     -0.110400
     16 C23         1.1410    1.2630   -4.6910 cx        1 PDQ     -0.110400
     17 N26        -2.0620   -0.8310   -1.2730 n4        1 PDQ     -0.580600
     18 C29         4.2620   -0.5970   -2.4630 c3        1 PDQ     -0.067800
     19 N33         5.5940    0.2080   -0.0780 nh        1 PDQ     -0.618000
     20 C34         6.2750    1.3390    0.5470 c3        1 PDQ      0.159800
     21 C37         7.1390    0.8180    1.7210 c3        1 PDQ     -0.124700
     22 C39         7.2600   -0.6910    1.4760 c3        1 PDQ     -0.088400
     23 C42         6.1860   -1.0370    0.4320 c3        1 PDQ      0.164800
     24 C45         8.5210    1.4720    1.7970 c3        1 PDQ      0.140500
     25 C47         9.3200    0.9250    2.9720 c3        1 PDQ     -0.141100
     26 N51         8.4030    2.9760    1.9090 n4        1 PDQ     -0.847600
     27 H4          1.4130    0.7640    1.9400 ha        1 PDQ      0.196000
     28 H18         2.3920   -0.5880   -4.3520 h1        1 PDQ      0.128700
     29 H20         2.3800    2.3930   -3.1930 hc        1 PDQ      0.096950
     30 H20A        3.3360    1.7850   -4.6320 hc        1 PDQ      0.096950
     31 H23         0.1870    1.6930   -4.3370 hc        1 PDQ      0.096950
     32 H23A        1.1220    1.0770   -5.7830 hc        1 PDQ      0.096950
     33 HN26       -2.1710   -1.8000   -0.9260 hn        1 PDQ      0.491467
     34 HN2A       -2.5690   -0.1760   -0.6460 hn        1 PDQ      0.491467
     35 H29         4.3750    0.2210   -3.2200 hc        1 PDQ      0.071033
     36 H29A        5.2870   -0.9490   -2.1900 hc        1 PDQ      0.071033
     37 H29B        3.7410   -1.4670   -2.9390 hc        1 PDQ      0.071033
     38 H34         6.9310    1.7790   -0.2580 h1        1 PDQ      0.057700
     39 H34A        5.5600    2.1310    0.8980 h1        1 PDQ      0.057700
     40 H37         6.5870    0.9910    2.6860 hc        1 PDQ      0.089700
     41 H39         7.0920   -1.2610    2.4220 hc        1 PDQ      0.078700
     42 H39A        8.2710   -0.9640    1.0820 hc        1 PDQ      0.078700
     43 H42         5.4130   -1.7200    0.8790 h1        1 PDQ      0.078200
     44 H42A        6.6520   -1.5630   -0.4480 h1        1 PDQ      0.078200
     45 H45         9.0820    1.2780    0.8310 hx        1 PDQ      0.117700
     46 H47         9.4420   -0.1800    2.8350 hc        1 PDQ      0.087367
     47 H47A       10.3410    1.3780    3.0210 hc        1 PDQ      0.087367
     48 H47B        8.7940    1.0960    3.9440 hc        1 PDQ      0.087367
     49 HN51        7.8710    3.3460    1.1170 hn        1 PDQ      0.461133
     50 HN5A        9.3400    3.3920    1.9170 hn        1 PDQ      0.461133
     51 H263       -2.4330   -0.7680   -2.2450 hn        1 PDQ      0.491467
     52 H513        7.9250    3.2240    2.7800 hn        1 PDQ      0.461133
@<TRIPOS>BOND
     1    1    2 2   
     2    1    3 1   
     3    1   13 1   
     4    3    4 ar  
     5    3    9 ar  
     6    4    5 ar  
     7    4   27 1   
     8    5    6 1   
     9    5    7 ar  
    10    7    8 ar  
    11    7   19 1   
    12    8    9 ar  
    13    8   18 1   
    14    9   10 1   
    15   10   11 1   
    16   10   14 1   
    17   11   12 2   
    18   11   13 1   
    19   13   17 1   
    20   14   15 1   
    21   14   16 1   
    22   14   28 1   
    23   15   16 1   
    24   15   29 1   
    25   15   30 1   
    26   16   31 1   
    27   16   32 1   
    28   17   33 1   
    29   17   34 1   
    30   17   51 1   
    31   18   35 1   
    32   18   36 1   
    33   18   37 1   
    34   19   20 1   
    35   19   23 1   
    36   20   21 1   
    37   20   38 1   
    38   20   39 1   
    39   21   22 1   
    40   21   24 1   
    41   21   40 1   
    42   22   23 1   
    43   22   41 1   
    44   22   42 1   
    45   23   43 1   
    46   23   44 1   
    47   24   25 1   
    48   24   26 1   
    49   24   45 1   
    50   25   46 1   
    51   25   47 1   
    52   25   48 1   
    53   26   49 1   
    54   26   50 1   
    55   26   52 1   
@<TRIPOS>SUBSTRUCTURE
     1 PDQ         1 TEMP              0 ****  ****    0 ROOT
