@<TRIPOS>MOLECULE
PDQ
   50    50     1     0     0
SMALL
bcc


@<TRIPOS>ATOM
      1 C1         -4.0710   -0.6370    0.4000 c1        1 PDQ      0.383000
      2 O2         -4.6420   -0.6770    1.4760 o         1 PDQ     -0.286000
      3 C3         -2.5620   -0.5320    0.3470 c1        1 PDQ     -0.159000
      4 C4         -1.8120   -0.5050    1.5450 c2        1 PDQ     -0.089000
      5 C6         -0.4190   -0.4080    1.4960 c1        1 PDQ      0.030000
      6 F7         -0.4810   -0.4740    2.8360 f         1 PDQ     -0.101000
      7 C8          0.2320   -0.3390    0.2650 c2        1 PDQ      0.031000
      8 C10        -0.5090   -0.3660   -0.9200 c1        1 PDQ     -0.049000
      9 C12        -1.9200   -0.4630   -0.8700 c1        1 PDQ      0.098000
     10 N13        -2.6990   -0.4920   -2.1130 n         1 PDQ     -0.231000
     11 C15        -4.1460   -0.5930   -2.0620 c2        1 PDQ      0.373000
     12 O16        -4.7870   -0.6660   -3.0940 o         1 PDQ     -0.358000
     13 N17        -4.8160   -0.6640   -0.7950 n         1 PDQ     -0.295000
     14 C18        -2.0270   -0.4220   -3.3880 cx        1 PDQ     -0.041000
     15 C20        -1.6010    0.9680   -3.8340 cx        1 PDQ     -0.204000
     16 C23        -2.7880    0.2880   -4.4970 cx        1 PDQ     -0.204000
     17 N26        -6.2070   -0.7690   -0.7460 n3        1 PDQ     -0.143000
     18 C29         0.4620   -0.8260   -2.0150 c3        1 PDQ     -0.179000
     19 N33         1.6720   -0.1730    0.2470 n3        1 PDQ     -0.231000
     20 C34         2.0580    1.1120    1.0420 c3        1 PDQ     -0.061000
     21 C37         2.5820    0.6670    2.1940 c3        1 PDQ     -0.152000
     22 C39         3.1860   -0.7850    1.8800 c3        1 PDQ     -0.167000
     23 C42         2.3450   -1.3590    1.0150 c3        1 PDQ     -0.067000
     24 C45         3.7100    1.6230    2.6710 c3        1 PDQ     -0.025000
     25 C47         5.0460    1.0880    2.2230 c3        1 PDQ     -0.209000
     26 N51         3.6870    1.7140    4.0760 n3        1 PDQ     -0.335000
     27 H4         -2.2710   -0.5500    2.4130 ha        1 PDQ      0.181000
     28 H18        -1.4440   -1.1590   -3.6750 h1        1 PDQ      0.143000
     29 H20        -1.8200    1.7000   -3.2160 hc        1 PDQ      0.123500
     30 H20A       -0.7790    1.0100   -4.3710 hc        1 PDQ      0.123500
     31 H23        -2.6320   -0.0520   -5.4060 hc        1 PDQ      0.123500
     32 H23A       -3.6710    0.6370   -4.2510 hc        1 PDQ      0.123500
     33 HN26       -6.5830    0.0460   -0.9380 hn        1 PDQ      0.152500
     34 HN2A       -6.4890   -1.3870   -1.3630 hn        1 PDQ      0.152500
     35 H29         0.5660   -0.1110   -2.6820 hc        1 PDQ      0.096000
     36 H29A        0.1050   -1.6320   -2.4510 hc        1 PDQ      0.096000
     37 H29B        1.3340   -1.0300   -1.6150 hc        1 PDQ      0.096000
     38 H34         1.2590    1.6570    1.2190 h1        1 PDQ      0.090000
     39 H34A        2.7260    1.6340    0.5430 h1        1 PDQ      0.090000
     40 H37         1.8810    0.6010    2.8810 hc        1 PDQ      0.093000
     41 H39         4.0780   -0.7000    1.4770 hc        1 PDQ      0.091000
     42 H39A        3.2360   -1.3180    2.7080 hc        1 PDQ      0.091000
     43 H42         2.8400   -1.9350    0.3880 h1        1 PDQ      0.089000
     44 H42A        1.6660   -1.8820    1.4960 h1        1 PDQ      0.089000
     45 H45         3.5680    2.5160    2.2830 h1        1 PDQ      0.096000
     46 H47         5.7630    1.6790    2.5510 hc        1 PDQ      0.082000
     47 H47A        5.0730    1.0550    1.2410 hc        1 PDQ      0.082000
     48 H47B        5.1750    0.1840    2.5850 hc        1 PDQ      0.082000
     49 HN51        4.1050    0.9800    4.4370 hn        1 PDQ      0.142000
     50 HN5A        2.8180    1.7440    4.3660 hn        1 PDQ      0.142000
@<TRIPOS>BOND
     1    1    2 1   
     2    1   13 1   
     3    3    4 1   
     4    3    9 1   
     5    4    5 1   
     6    4   27 1   
     7    5    7 1   
     8    7    8 1   
     9    7   19 1   
    10    8   18 1   
    11    9   10 1   
    12   10   11 1   
    13   10   14 1   
    14   11   12 1   
    15   11   13 1   
    16   13   17 1   
    17   14   15 1   
    18   14   16 1   
    19   14   28 1   
    20   15   16 1   
    21   15   29 1   
    22   15   30 1   
    23   16   31 1   
    24   16   32 1   
    25   17   33 1   
    26   17   34 1   
    27   18   35 1   
    28   18   36 1   
    29   18   37 1   
    30   19   20 1   
    31   19   23 1   
    32   20   21 1   
    33   20   38 1   
    34   20   39 1   
    35   21   22 1   
    36   21   24 1   
    37   21   40 1   
    38   22   23 1   
    39   22   41 1   
    40   22   42 1   
    41   23   43 1   
    42   23   44 1   
    43   24   25 1   
    44   24   26 1   
    45   24   45 1   
    46   25   46 1   
    47   25   47 1   
    48   25   48 1   
    49   26   49 1   
    50   26   50 1   
@<TRIPOS>SUBSTRUCTURE
     1 PDQ         1 TEMP              0 ****  ****    0 ROOT
