@<TRIPOS>MOLECULE
PDQ
   50    53     1     0     0
SMALL
bcc


@<TRIPOS>ATOM
      1 C1         -2.9710   -1.8470    0.1560 c         1 PDQ      0.704100
      2 O2         -3.1000   -3.0230    0.5460 o         1 PDQ     -0.619500
      3 C3         -1.6650   -1.1810    0.0090 ca        1 PDQ     -0.184600
      4 C4         -0.5160   -1.9580    0.1560 ca        1 PDQ     -0.085000
      5 C6          0.7410   -1.3770   -0.0170 ca        1 PDQ      0.058900
      6 F7          1.8450   -2.1420    0.1710 f         1 PDQ     -0.137900
      7 C8          0.8650   -0.0070   -0.4040 ca        1 PDQ      0.118600
      8 C10        -0.3040    0.7600   -0.5980 ca        1 PDQ     -0.060300
      9 C12        -1.5800    0.1940   -0.3060 ca        1 PDQ      0.101600
     10 N13        -2.7680    0.9420   -0.3800 n         1 PDQ     -0.344000
     11 C15        -4.0390    0.3000   -0.4890 c         1 PDQ      0.832500
     12 O16        -5.0210    0.9650   -0.8560 o         1 PDQ     -0.568500
     13 N17        -4.1270   -1.1050   -0.2030 n         1 PDQ     -0.400800
     14 C18        -2.8110    2.3040    0.0780 cx        1 PDQ      0.036700
     15 C20        -2.2340    2.7430    1.4120 cx        1 PDQ     -0.127900
     16 C23        -3.7170    2.7450    1.2150 cx        1 PDQ     -0.127900
     17 N26        -5.3810   -1.6650   -0.1740 nh        1 PDQ     -0.588800
     18 C29        -0.2090    2.1400   -1.1390 c3        1 PDQ     -0.052800
     19 N33         2.1360    0.6160   -0.6070 nh        1 PDQ     -0.627000
     20 C34         3.0330    0.5930    0.5550 c3        1 PDQ      0.174800
     21 C37         4.3690   -0.0630    0.1420 c3        1 PDQ     -0.079700
     22 C39         4.3460   -0.0690   -1.3870 c3        1 PDQ     -0.087400
     23 C42         2.8730    0.1280   -1.7800 c3        1 PDQ      0.165800
     24 C45         5.5860    0.6790    0.7110 c3        1 PDQ      0.170500
     25 C47         6.8600   -0.0450    0.2660 c3        1 PDQ     -0.136100
     26 N51         5.4780    0.8690    2.1480 n3        1 PDQ     -0.904800
     27 H4         -0.6090   -3.0270    0.4140 ha        1 PDQ      0.178000
     28 H18        -2.7180    2.9990   -0.7890 h1        1 PDQ      0.103700
     29 H20        -1.7840    1.9920    2.0870 hc        1 PDQ      0.084450
     30 H20A       -1.6860    3.7020    1.4420 hc        1 PDQ      0.084450
     31 H23        -4.2540    3.7030    1.0940 hc        1 PDQ      0.084450
     32 H23A       -4.3340    1.9950    1.7420 hc        1 PDQ      0.084450
     33 HN26       -5.4380   -2.3450   -0.9260 hn        1 PDQ      0.358800
     34 HN2A       -5.4780   -2.1790    0.6970 hn        1 PDQ      0.358800
     35 H29        -1.0020    2.3120   -1.9100 hc        1 PDQ      0.056700
     36 H29A       -0.3340    2.8870   -0.3150 hc        1 PDQ      0.056700
     37 H29B        0.7750    2.3350   -1.6310 hc        1 PDQ      0.056700
     38 H34         3.1930    1.6660    0.8520 h1        1 PDQ      0.063700
     39 H34A        2.5870    0.0450    1.4280 h1        1 PDQ      0.063700
     40 H37         4.3790   -1.1240    0.5140 hc        1 PDQ      0.057700
     41 H39         4.9680    0.7630   -1.8020 hc        1 PDQ      0.052700
     42 H39A        4.7370   -1.0320   -1.7940 hc        1 PDQ      0.052700
     43 H42         2.4480   -0.8350   -2.1760 h1        1 PDQ      0.049200
     44 H42A        2.7750    0.9110   -2.5800 h1        1 PDQ      0.049200
     45 H45         5.6030    1.7190    0.2600 h1        1 PDQ      0.062700
     46 H47         6.8960   -0.1040   -0.8480 hc        1 PDQ      0.038700
     47 H47A        7.7670    0.5030    0.6180 hc        1 PDQ      0.038700
     48 H47B        6.8910   -1.0840    0.6740 hc        1 PDQ      0.038700
     49 HN51        5.3340   -0.0070    2.6110 hn        1 PDQ      0.347300
     50 HN5A        6.3170    1.2870    2.5010 hn        1 PDQ      0.347300
@<TRIPOS>BOND
     1    1    2 2   
     2    1    3 1   
     3    1   13 1   
     4    3    4 ar  
     5    3    9 ar  
     6    4    5 ar  
     7    4   27 1   
     8    5    6 1   
     9    5    7 ar  
    10    7    8 ar  
    11    7   19 1   
    12    8    9 ar  
    13    8   18 1   
    14    9   10 1   
    15   10   11 1   
    16   10   14 1   
    17   11   12 2   
    18   11   13 1   
    19   13   17 1   
    20   14   15 1   
    21   14   16 1   
    22   14   28 1   
    23   15   16 1   
    24   15   29 1   
    25   15   30 1   
    26   16   31 1   
    27   16   32 1   
    28   17   33 1   
    29   17   34 1   
    30   18   35 1   
    31   18   36 1   
    32   18   37 1   
    33   19   20 1   
    34   19   23 1   
    35   20   21 1   
    36   20   38 1   
    37   20   39 1   
    38   21   22 1   
    39   21   24 1   
    40   21   40 1   
    41   22   23 1   
    42   22   41 1   
    43   22   42 1   
    44   23   43 1   
    45   23   44 1   
    46   24   25 1   
    47   24   26 1   
    48   24   45 1   
    49   25   46 1   
    50   25   47 1   
    51   25   48 1   
    52   26   49 1   
    53   26   50 1   
@<TRIPOS>SUBSTRUCTURE
     1 PDQ         1 TEMP              0 ****  ****    0 ROOT
