@<TRIPOS>MOLECULE
PDQ
   52    55     1     0     0
SMALL
bcc


@<TRIPOS>ATOM
      1 C1         -0.1160    0.1170   -0.1160 c         1 PDQ      0.743100
      2 O2         -0.8540    0.4590    0.8120 o         1 PDQ     -0.548500
      3 C3          1.3470    0.2320   -0.1660 ca        1 PDQ     -0.176600
      4 C4          1.9990    0.5420    1.0290 ca        1 PDQ     -0.068000
      5 C6          3.3950    0.5740    1.0640 ca        1 PDQ      0.076900
      6 F7          4.0050    0.9080    2.2280 f         1 PDQ     -0.130900
      7 C8          4.1660    0.2320   -0.0890 ca        1 PDQ      0.122600
      8 C10         3.4960   -0.1080   -1.2900 ca        1 PDQ     -0.033300
      9 C12         2.0760   -0.0170   -1.3550 ca        1 PDQ      0.100600
     10 N13         1.3660   -0.2100   -2.5620 n         1 PDQ     -0.291000
     11 C15         0.0020   -0.5190   -2.5540 c         1 PDQ      0.817500
     12 O16        -0.6570   -0.8300   -3.5620 o         1 PDQ     -0.577500
     13 N17        -0.7030   -0.5290   -1.2680 n         1 PDQ     -0.489800
     14 C18         1.8840    0.2580   -3.8280 cx        1 PDQ     -0.003300
     15 C20         2.4110    1.6680   -4.0230 cx        1 PDQ     -0.110400
     16 C23         1.1360    1.2620   -4.6880 cx        1 PDQ     -0.110400
     17 N26        -2.0590   -0.8440   -1.2700 nz        1 PDQ     -0.580600
     18 C29         4.2630   -0.5940   -2.4650 c3        1 PDQ     -0.067800
     19 N33         5.5950    0.2120   -0.0800 nh        1 PDQ     -0.618000
     20 C34         6.2740    1.3430    0.5460 c3        1 PDQ      0.159800
     21 C37         7.1400    0.8220    1.7190 c3        1 PDQ     -0.124700
     22 C39         7.2640   -0.6860    1.4720 c3        1 PDQ     -0.088400
     23 C42         6.1910   -1.0330    0.4270 c3        1 PDQ      0.164800
     24 C45         8.5200    1.4800    1.7950 c3        1 PDQ      0.140500
     25 C47         9.3200    0.9320    2.9690 c3        1 PDQ     -0.141100
     26 N51         8.3990    2.9820    1.9100 nz        1 PDQ     -0.847600
     27 H4          1.4150    0.7540    1.9430 ha        1 PDQ      0.196000
     28 H18         2.3910   -0.5860   -4.3530 h1        1 PDQ      0.128700
     29 H20         2.3730    2.3920   -3.1890 hc        1 PDQ      0.096950
     30 H20A        3.3290    1.7890   -4.6300 hc        1 PDQ      0.096950
     31 H23         1.1160    1.0770   -5.7790 hc        1 PDQ      0.096950
     32 H23A        0.1810    1.6900   -4.3320 hc        1 PDQ      0.096950
     33 HN26       -2.4320   -0.7800   -2.2410 hn        1 PDQ      0.491467
     34 HN2A       -2.1660   -1.8140   -0.9240 hn        1 PDQ      0.491467
     35 H29         5.2890   -0.9440   -2.1930 hc        1 PDQ      0.071033
     36 H29A        4.3730    0.2260   -3.2210 hc        1 PDQ      0.071033
     37 H29B        3.7430   -1.4640   -2.9410 hc        1 PDQ      0.071033
     38 H34         5.5570    2.1330    0.8980 h1        1 PDQ      0.057700
     39 H34A        6.9280    1.7860   -0.2590 h1        1 PDQ      0.057700
     40 H37         6.5870    0.9920    2.6850 hc        1 PDQ      0.089700
     41 H39         8.2760   -0.9560    1.0770 hc        1 PDQ      0.078700
     42 H39A        7.0970   -1.2580    2.4170 hc        1 PDQ      0.078700
     43 H42         5.4200   -1.7190    0.8730 h1        1 PDQ      0.078200
     44 H42A        6.6570   -1.5560   -0.4540 h1        1 PDQ      0.078200
     45 H45         9.0810    1.2880    0.8290 hx        1 PDQ      0.117700
     46 H47        10.3410    1.3870    3.0180 hc        1 PDQ      0.087367
     47 H47A        9.4450   -0.1730    2.8300 hc        1 PDQ      0.087367
     48 H47B        8.7950    1.1010    3.9420 hc        1 PDQ      0.087367
     49 HN51        7.8660    3.3530    1.1180 hn        1 PDQ      0.461133
     50 HN5A        9.3350    3.4010    1.9180 hn        1 PDQ      0.461133
     51 H263       -2.5680   -0.1920   -0.6410 hn        1 PDQ      0.491467
     52 H513        7.9200    3.2290    2.7810 hn        1 PDQ      0.461133
@<TRIPOS>BOND
     1    1    2 2   
     2    1    3 1   
     3    1   13 1   
     4    3    4 ar  
     5    3    9 ar  
     6    4    5 ar  
     7    4   27 1   
     8    5    6 1   
     9    5    7 ar  
    10    7    8 ar  
    11    7   19 1   
    12    8    9 ar  
    13    8   18 1   
    14    9   10 1   
    15   10   11 1   
    16   10   14 1   
    17   11   12 2   
    18   11   13 1   
    19   13   17 1   
    20   14   15 1   
    21   14   16 1   
    22   14   28 1   
    23   15   16 1   
    24   15   29 1   
    25   15   30 1   
    26   16   31 1   
    27   16   32 1   
    28   17   33 1   
    29   17   34 1   
    30   17   51 1   
    31   18   35 1   
    32   18   36 1   
    33   18   37 1   
    34   19   20 1   
    35   19   23 1   
    36   20   21 1   
    37   20   38 1   
    38   20   39 1   
    39   21   22 1   
    40   21   24 1   
    41   21   40 1   
    42   22   23 1   
    43   22   41 1   
    44   22   42 1   
    45   23   43 1   
    46   23   44 1   
    47   24   25 1   
    48   24   26 1   
    49   24   45 1   
    50   25   46 1   
    51   25   47 1   
    52   25   48 1   
    53   26   49 1   
    54   26   50 1   
    55   26   52 1   
@<TRIPOS>SUBSTRUCTURE
     1 PDQ         1 TEMP              0 ****  ****    0 ROOT
