@<TRIPOS>MOLECULE
PDQ
   52    55     1     0     0
SMALL
bcc


@<TRIPOS>ATOM
      1 C1         -0.1140    0.1050   -0.1150 c         1 PDQ      0.743100
      2 O2         -0.8530    0.4450    0.8130 o         1 PDQ     -0.548500
      3 C3          1.3490    0.2240   -0.1660 ca        1 PDQ     -0.176600
      4 C4          2.0000    0.5370    1.0290 ca        1 PDQ     -0.068000
      5 C6          3.3960    0.5730    1.0630 ca        1 PDQ      0.076900
      6 F7          4.0050    0.9100    2.2280 f         1 PDQ     -0.130900
      7 C8          4.1680    0.2340   -0.0900 ca        1 PDQ      0.122600
      8 C10         3.4970   -0.1090   -1.2900 ca        1 PDQ     -0.033300
      9 C12         2.0770   -0.0230   -1.3540 ca        1 PDQ      0.100600
     10 N13         1.3670   -0.2190   -2.5610 n         1 PDQ     -0.291000
     11 C15         0.0040   -0.5330   -2.5530 c         1 PDQ      0.817500
     12 O16        -0.6540   -0.8460   -3.5600 o         1 PDQ     -0.577500
     13 N17        -0.7000   -0.5440   -1.2670 n         1 PDQ     -0.489800
     14 C18         1.8840    0.2500   -3.8270 cx        1 PDQ     -0.003300
     15 C20         2.4060    1.6620   -4.0240 cx        1 PDQ     -0.110400
     16 C23         1.1310    1.2510   -4.6880 cx        1 PDQ     -0.110400
     17 N26        -2.0550   -0.8640   -1.2670 n4        1 PDQ     -0.580600
     18 C29         4.2660   -0.5930   -2.4650 c3        1 PDQ     -0.067800
     19 N33         5.5960    0.2180   -0.0810 nh        1 PDQ     -0.618000
     20 C34         6.2720    1.3510    0.5450 c3        1 PDQ      0.159800
     21 C37         7.1390    0.8320    1.7180 c3        1 PDQ     -0.124700
     22 C39         7.2680   -0.6750    1.4700 c3        1 PDQ     -0.088400
     23 C42         6.1960   -1.0260    0.4250 c3        1 PDQ      0.164800
     24 C45         8.5170    1.4940    1.7950 c3        1 PDQ      0.140500
     25 C47         9.3190    0.9480    2.9690 c3        1 PDQ     -0.141100
     26 N51         8.3920    2.9960    1.9110 n4        1 PDQ     -0.847600
     27 H4          1.4150    0.7480    1.9430 ha        1 PDQ      0.196000
     28 H18         2.3930   -0.5930   -4.3520 h1        1 PDQ      0.128700
     29 H20         3.3230    1.7850   -4.6310 hc        1 PDQ      0.096950
     30 H20A        2.3650    2.3860   -3.1910 hc        1 PDQ      0.096950
     31 H23         1.1110    1.0650   -5.7790 hc        1 PDQ      0.096950
     32 H23A        0.1750    1.6750   -4.3320 hc        1 PDQ      0.096950
     33 HN26       -2.4280   -0.8010   -2.2390 hn        1 PDQ      0.491467
     34 HN2A       -2.1590   -1.8340   -0.9210 hn        1 PDQ      0.491467
     35 H29         4.3730    0.2270   -3.2210 hc        1 PDQ      0.071033
     36 H29A        5.2930   -0.9400   -2.1940 hc        1 PDQ      0.071033
     37 H29B        3.7490   -1.4650   -2.9410 hc        1 PDQ      0.071033
     38 H34         6.9250    1.7960   -0.2590 h1        1 PDQ      0.057700
     39 H34A        5.5530    2.1380    0.8980 h1        1 PDQ      0.057700
     40 H37         6.5860    1.0000    2.6840 hc        1 PDQ      0.089700
     41 H39         7.1020   -1.2490    2.4150 hc        1 PDQ      0.078700
     42 H39A        8.2810   -0.9430    1.0760 hc        1 PDQ      0.078700
     43 H42         5.4280   -1.7150    0.8690 h1        1 PDQ      0.078200
     44 H42A        6.6650   -1.5450   -0.4570 h1        1 PDQ      0.078200
     45 H45         9.0790    1.3040    0.8290 hx        1 PDQ      0.117700
     46 H47        10.3380    1.4060    3.0190 hc        1 PDQ      0.087367
     47 H47A        9.4470   -0.1560    2.8300 hc        1 PDQ      0.087367
     48 H47B        8.7930    1.1140    3.9410 hc        1 PDQ      0.087367
     49 HN51        7.9120    3.2400    2.7830 hn        1 PDQ      0.461133
     50 HN5A        7.8570    3.3650    1.1190 hn        1 PDQ      0.461133
     51 H263       -2.5650   -0.2130   -0.6380 hn        1 PDQ      0.491467
     52 H513        9.3260    3.4180    1.9190 hn        1 PDQ      0.461133
@<TRIPOS>BOND
     1    1    2 2   
     2    1    3 1   
     3    1   13 1   
     4    3    4 ar  
     5    3    9 ar  
     6    4    5 ar  
     7    4   27 1   
     8    5    6 1   
     9    5    7 ar  
    10    7    8 ar  
    11    7   19 1   
    12    8    9 ar  
    13    8   18 1   
    14    9   10 1   
    15   10   11 1   
    16   10   14 1   
    17   11   12 2   
    18   11   13 1   
    19   13   17 1   
    20   14   15 1   
    21   14   16 1   
    22   14   28 1   
    23   15   16 1   
    24   15   29 1   
    25   15   30 1   
    26   16   31 1   
    27   16   32 1   
    28   17   33 1   
    29   17   34 1   
    30   17   51 1   
    31   18   35 1   
    32   18   36 1   
    33   18   37 1   
    34   19   20 1   
    35   19   23 1   
    36   20   21 1   
    37   20   38 1   
    38   20   39 1   
    39   21   22 1   
    40   21   24 1   
    41   21   40 1   
    42   22   23 1   
    43   22   41 1   
    44   22   42 1   
    45   23   43 1   
    46   23   44 1   
    47   24   25 1   
    48   24   26 1   
    49   24   45 1   
    50   25   46 1   
    51   25   47 1   
    52   25   48 1   
    53   26   49 1   
    54   26   50 1   
    55   26   52 1   
@<TRIPOS>SUBSTRUCTURE
     1 PDQ         1 TEMP              0 ****  ****    0 ROOT
