@<TRIPOS>MOLECULE
PDR
   39    28     1     0     0
SMALL
bcc


@<TRIPOS>ATOM
      1 CL         -5.0980   -0.6790   -3.8280 cl        1 PDR     -0.010000
      2 C1          0.1310    0.1330    0.7500 c1        1 PDR      0.008500
      3 C2          0.1900    0.4030    2.0730 c1        1 PDR     -0.047000
      4 C3          1.2940    0.0090    2.8110 c1        1 PDR     -0.163000
      5 C4          2.3370   -0.6630    2.1920 c1        1 PDR      0.078000
      6 C5          2.2750   -0.9310    0.8740 c1        1 PDR      0.078000
      7 N6          1.1750   -0.5380    0.1380 n1        1 PDR     -0.154500
      8 C7         -1.0740    0.5960    0.2790 c1        1 PDR     -0.095000
      9 C8         -1.7520    1.1540    1.3320 c1        1 PDR     -0.045000
     10 N9         -0.9780    1.0370    2.4360 n1        1 PDR     -0.146000
     11 C10        -2.6850    0.3340   -2.9220 c1        1 PDR     -0.114000
     12 C11        -1.5040    0.9980   -3.2270 c1        1 PDR      0.008500
     13 N12        -0.8450    1.2600   -2.0550 n1        1 PDR     -0.177000
     14 C13        -1.6090    0.7640   -1.0100 c2        1 PDR      0.072000
     15 C14        -2.7480    0.1910   -1.5450 c1        1 PDR     -0.196000
     16 C15        -3.1360    0.1300   -5.2670 c1        1 PDR     -0.130000
     17 C16        -1.9860    0.7770   -5.5490 c1        1 PDR     -0.130000
     18 N17        -1.1580    1.2170   -4.5180 n1        1 PDR     -0.154500
     19 C18        -3.4990   -0.0990   -3.9270 c1        1 PDR      0.014000
     20 C20        -1.3950    1.5280    3.7470 c2        1 PDR     -0.071000
     21 O21         3.3180   -1.3510   -0.0150 os        1 PDR     -0.180000
     22 C22         3.1410   -2.6940   -0.5430 c3        1 PDR     -0.075500
     23 O23         3.7500   -0.9120    2.4030 os        1 PDR     -0.180000
     24 C24         4.1940   -0.6570    3.7320 c3        1 PDR     -0.075500
     25 H3          1.3360    0.2060    3.7630 ha        1 PDR      0.148000
     26 H8         -2.6120    1.5940    1.2850 DU        1 PDR      0.205000
     27 HN12       -0.0670    1.7740   -1.9680 DU        1 PDR      0.205000
     28 H14        -3.3920   -0.3750   -1.0540 DU        1 PDR      0.205000
     29 H15        -3.7600   -0.1980   -6.0540 ha        1 PDR      0.156000
     30 H16        -1.7270    0.9400   -6.5010 ha        1 PDR      0.156000
     31 H20        -2.3110    1.8260    3.7000 ha        1 PDR      0.093667
     32 H20A       -0.8160    2.2850    4.0230 ha        1 PDR      0.093667
     33 H20B       -1.3150    0.7590    4.4480 ha        1 PDR      0.093667
     34 H22         4.0010   -3.0740   -0.7530 h1        1 PDR      0.087500
     35 H22A        2.5790   -2.6500   -1.3800 h1        1 PDR      0.087500
     36 H22B        2.7150   -3.2280    0.0910 h1        1 PDR      0.087500
     37 H24         3.6420   -1.0250    4.3020 h1        1 PDR      0.087500
     38 H24A        5.1700   -1.0670    3.8640 h1        1 PDR      0.087500
     39 H24B        4.2210    0.2270    3.8730 h1        1 PDR      0.087500
@<TRIPOS>BOND
     1    1   19 1   
     2    2    7 1   
     3    3    4 1   
     4    4   25 1   
     5    5    6 1   
     6    5   23 1   
     7    6   21 1   
     8    8    9 1   
     9    8   14 1   
    10    9   10 1   
    11   11   19 1   
    12   12   18 1   
    13   13   14 1   
    14   14   15 1   
    15   16   17 1   
    16   16   29 1   
    17   17   30 1   
    18   20   31 1   
    19   20   32 1   
    20   20   33 1   
    21   21   22 1   
    22   22   34 1   
    23   22   35 1   
    24   22   36 1   
    25   23   24 1   
    26   24   37 1   
    27   24   38 1   
    28   24   39 1   
@<TRIPOS>SUBSTRUCTURE
     1 PDR         1 TEMP              0 ****  ****    0 ROOT
