@<TRIPOS>MOLECULE
PDR
   39    42     1     0     0
SMALL
bcc


@<TRIPOS>ATOM
      1 CL         -5.6040   -1.6770    0.4780 cl        1 PDR     -0.088400
      2 C1          1.4860   -0.3420    0.0760 ca        1 PDR      0.418100
      3 C2          2.5120   -1.3690    0.0930 ca        1 PDR     -0.157500
      4 C3          3.8700   -1.0070    0.0070 ca        1 PDR     -0.163000
      5 C4          4.1470    0.3470   -0.0900 ca        1 PDR      0.021800
      6 C5          3.0610    1.3090   -0.1000 ca        1 PDR      0.612600
      7 N6          1.7630    0.9820   -0.0200 nb        1 PDR     -0.694000
      8 C7          0.2120   -1.0390    0.1770 cc        1 PDR     -0.204800
      9 C8          0.5080   -2.4080    0.2490 cd        1 PDR     -0.072100
     10 N9          1.8850   -2.6160    0.1860 na        1 PDR     -0.054400
     11 C10        -3.3680   -0.1870    0.2840 ca        1 PDR     -0.191100
     12 C11        -2.7220    1.1200    0.1720 ca        1 PDR      0.428800
     13 N12        -1.3390    0.9090    0.1240 na        1 PDR     -0.263100
     14 C13        -1.1010   -0.4720    0.2000 cc        1 PDR      0.044900
     15 C14        -2.3200   -1.1640    0.2980 cd        1 PDR     -0.184200
     16 C15        -5.4530    1.0000    0.3020 ca        1 PDR     -0.274300
     17 C16        -4.7210    2.2110    0.1930 ca        1 PDR      0.414200
     18 N17        -3.3910    2.3130    0.1270 nb        1 PDR     -0.667000
     19 C18        -4.7660   -0.2070    0.3470 ca        1 PDR      0.092400
     20 C20         2.5450   -3.8740    0.3040 c3        1 PDR      0.027600
     21 C22         2.4790    3.6320   -0.2180 c3        1 PDR      0.120700
     22 O23         5.4030    0.9000   -0.1810 os        1 PDR     -0.292900
     23 C24         6.4880   -0.0220   -0.1820 c3        1 PDR      0.107700
     24 H3          4.6620   -1.7660    0.0180 ha        1 PDR      0.148000
     25 H8         -0.1850   -3.2500    0.3320 h4        1 PDR      0.177000
     26 HN12       -0.6520    1.6150    0.0480 hn        1 PDR      0.329700
     27 H14        -2.4490   -2.2390    0.3720 ha        1 PDR      0.158000
     28 H15        -6.5500    1.0350    0.3490 ha        1 PDR      0.152000
     29 H16        -5.2660    3.1720    0.1570 h4        1 PDR      0.023100
     30 H20         2.8970   -4.0370    1.3600 h1        1 PDR      0.054367
     31 H20A        1.8370   -4.6980    0.0240 h1        1 PDR      0.054367
     32 H20B        3.4340   -3.9000   -0.3810 h1        1 PDR      0.054367
     33 H22         1.8060    3.5080   -1.1000 h1        1 PDR      0.050033
     34 H22A        1.8910    3.6220    0.7300 h1        1 PDR      0.050033
     35 H22B        3.0790    4.5740   -0.3050 h1        1 PDR      0.050033
     36 H24         7.3870    0.6390   -0.2660 h1        1 PDR      0.046367
     37 H24A        6.5130   -0.6040    0.7710 h1        1 PDR      0.046367
     38 H24B        6.4200   -0.7110   -1.0600 h1        1 PDR      0.046367
     39 O21         3.4840    2.6190   -0.2020 os        1 PDR     -0.426100
@<TRIPOS>BOND
     1    1   19 1   
     2    2    3 ar  
     3    2    7 ar  
     4    2    8 1   
     5    3    4 ar  
     6    3   10 1   
     7    4    5 ar  
     8    4   24 1   
     9    5    6 ar  
    10    5   22 1   
    11    6    7 ar  
    12    6   39 1   
    13    8    9 2   
    14    8   14 1   
    15    9   10 1   
    16    9   25 1   
    17   10   20 1   
    18   11   12 ar  
    19   11   15 1   
    20   11   19 ar  
    21   12   13 1   
    22   12   18 ar  
    23   13   14 1   
    24   13   26 1   
    25   14   15 2   
    26   15   27 1   
    27   16   17 ar  
    28   16   19 ar  
    29   16   28 1   
    30   17   18 ar  
    31   17   29 1   
    32   20   30 1   
    33   20   31 1   
    34   20   32 1   
    35   21   33 1   
    36   21   34 1   
    37   21   35 1   
    38   21   39 1   
    39   22   23 1   
    40   23   36 1   
    41   23   37 1   
    42   23   38 1   
@<TRIPOS>SUBSTRUCTURE
     1 PDR         1 TEMP              0 ****  ****    0 ROOT
