@<TRIPOS>MOLECULE
PDR
   39    40     1     0     0
SMALL
bcc


@<TRIPOS>ATOM
      1 Cl          0.9080    1.0320    0.7860 cl        1 PDR     -0.080400
      2 C1          5.6260   -0.0410    4.6130 ca        1 PDR      0.491100
      3 C2          5.4780   -0.4730    5.9620 ca        1 PDR      0.018100
      4 C3          6.4520   -1.3640    6.4830 ca        1 PDR     -0.178000
      5 C4          7.5030   -1.7840    5.6820 ca        1 PDR      0.013800
      6 C5          7.5630   -1.2960    4.3320 ca        1 PDR      0.617600
      7 N6          6.6490   -0.4540    3.8180 nb        1 PDR     -0.715000
      8 C7          4.6430    0.8900    4.0040 ce        1 PDR     -0.033500
      9 C8          4.3310    2.0680    4.5690 c2        1 PDR     -0.140000
     10 N9          4.3430   -0.0610    6.6900 ne        1 PDR     -0.557100
     11 C10         3.1520   -0.3960    0.5130 ce        1 PDR     -0.150300
     12 C11         4.0060   -1.3470   -0.2630 ce        1 PDR      0.633900
     13 N12         5.2070   -1.6930    0.2540 nv        1 PDR     -0.463100
     14 C13         4.0810    0.4630    2.7850 cg        1 PDR     -0.097300
     15 C14         3.6350    0.0780    1.7400 ch        1 PDR     -0.170300
     16 C15         1.4850   -0.5810   -1.3220 c3        1 PDR     -0.170100
     17 C16         2.4340   -1.5220   -1.9810 c1        1 PDR      0.258700
     18 N17         3.5910   -1.8640   -1.4760 n1        1 PDR     -0.843400
     19 C18         1.9460   -0.0410   -0.0170 c2        1 PDR      0.099200
     20 C20         4.3120   -0.0320    7.9690 c2        1 PDR      0.439100
     21 C22         8.7830   -1.2530    2.2690 c3        1 PDR      0.125700
     22 O23         8.5150   -2.6370    6.0520 os        1 PDR     -0.292900
     23 C24         8.4220   -3.1790    7.3670 c3        1 PDR      0.107700
     24 H3          6.3640   -1.7300    7.5170 ha        1 PDR      0.148000
     25 H8          4.7870    2.4090    5.5060 ha        1 PDR      0.128500
     26 HN12        5.8000   -2.3280   -0.2300 hn        1 PDR      0.301700
     27 H14         5.5110   -1.3220    1.1250 hn        1 PDR      0.301700
     28 H15         1.2930    0.2650   -2.0420 hc        1 PDR      0.115700
     29 H16         0.5070   -1.1240   -1.1900 hc        1 PDR      0.115700
     30 H20         3.5960    2.7490    4.1200 ha        1 PDR      0.128500
     31 H20A        5.1300   -0.2910    8.6680 h4        1 PDR     -0.010700
     32 H20B        3.3640    0.2930    8.4380 h4        1 PDR     -0.010700
     33 H22         8.9090   -0.1440    2.2810 h1        1 PDR      0.048700
     34 H22A        9.7170   -1.7600    1.9150 h1        1 PDR      0.048700
     35 H22B        7.9110   -1.5410    1.6330 h1        1 PDR      0.048700
     36 H24         8.4820   -2.3680    8.1320 h1        1 PDR      0.048700
     37 H24A        7.4780   -3.7640    7.4870 h1        1 PDR      0.048700
     38 H24B        9.3160   -3.8510    7.4300 h1        1 PDR      0.048700
     39 O21         8.6290   -1.7620    3.5940 os        1 PDR     -0.422100
@<TRIPOS>BOND
     1    1   19 1   
     2    2    3 ar  
     3    2    7 ar  
     4    2    8 1   
     5    3    4 ar  
     6    3   10 1   
     7    4    5 ar  
     8    4   24 1   
     9    5    6 ar  
    10    5   22 1   
    11    6    7 ar  
    12    6   39 1   
    13    8    9 2   
    14    8   14 1   
    15    9   25 1   
    16    9   30 1   
    17   10   20 2   
    18   11   12 1   
    19   11   15 1   
    20   11   19 2   
    21   12   13 2   
    22   12   18 1   
    23   13   26 1   
    24   13   27 1   
    25   14   15 3   
    26   16   17 1   
    27   16   19 1   
    28   16   28 1   
    29   16   29 1   
    30   17   18 3   
    31   20   31 1   
    32   20   32 1   
    33   21   33 1   
    34   21   34 1   
    35   21   35 1   
    36   21   39 1   
    37   22   23 1   
    38   23   36 1   
    39   23   37 1   
    40   23   38 1   
@<TRIPOS>SUBSTRUCTURE
     1 PDR         1 TEMP              0 ****  ****    0 ROOT
