@<TRIPOS>MOLECULE
PDS
   61    65     1     0     0
SMALL
bcc


@<TRIPOS>ATOM
      1 O14        -0.7430    2.4220    1.0660 o         1 PDS     -0.573500
      2 C6          0.2870    1.8150    1.3690 c         1 PDS      0.696700
      3 N13         1.4890    1.8880    0.6290 n         1 PDS     -0.633500
      4 C12         2.4830    1.0880    1.2360 c         1 PDS      0.698700
      5 O20         3.6270    0.9630    0.7920 o         1 PDS     -0.578500
      6 C2          0.5490    0.8770    2.5390 cc        1 PDS     -0.039200
      7 C5          1.8520    0.4680    2.4740 cd        1 PDS     -0.040200
      8 C11         2.6130   -0.3370    3.3720 cd        1 PDS     -0.119200
      9 C18         2.7430   -0.1150    4.8010 ca        1 PDS     -0.057800
     10 C24         2.2250    0.8270    5.6920 ca        1 PDS     -0.081000
     11 C29         2.5830    0.7530    7.0300 ca        1 PDS     -0.152000
     12 C31         3.4520   -0.2470    7.5010 ca        1 PDS     -0.115000
     13 C28         3.9870   -1.2030    6.6510 ca        1 PDS     -0.141000
     14 C23         3.6330   -1.1380    5.2950 ca        1 PDS     -0.047200
     15 N25         4.0060   -1.9470    4.2170 na        1 PDS     -0.183400
     16 C19         3.4000   -1.4610    3.0550 cc        1 PDS      0.004700
     17 C26         3.5760   -2.1020    1.7370 c3        1 PDS     -0.061900
     18 C1         -0.4890    0.5090    3.4450 cc        1 PDS     -0.119200
     19 C3         -0.8830   -0.8520    3.7600 ca        1 PDS     -0.057800
     20 C8         -0.4380   -2.1100    3.3510 ca        1 PDS     -0.082000
     21 C16        -1.0690   -3.2410    3.8490 ca        1 PDS     -0.152000
     22 C7         -1.9820   -0.7570    4.6910 ca        1 PDS     -0.043200
     23 C15        -2.6100   -1.9090    5.1870 ca        1 PDS     -0.139000
     24 C21        -2.1400   -3.1400    4.7530 ca        1 PDS     -0.117000
     25 N9         -2.2150    0.6020    4.9580 na        1 PDS     -0.068400
     26 C4         -1.3320    1.3650    4.1760 cd        1 PDS      0.009700
     27 C10        -1.3070    2.8410    4.2090 c3        1 PDS     -0.055900
     28 C17        -3.2910    1.1210    5.7520 c3        1 PDS      0.042300
     29 C22        -4.5920    1.3820    4.9870 c3        1 PDS     -0.110400
     30 C27        -5.6600    1.8320    5.9830 c3        1 PDS      0.173800
     31 N30        -6.8550    2.3810    5.3590 n3        1 PDS     -0.736600
     32 C32        -7.7640    2.9420    6.3350 c3        1 PDS      0.155100
     33 C33        -7.5040    1.4700    4.4440 c3        1 PDS      0.155100
     34 HN13        1.6150    2.4200   -0.1930 hn        1 PDS      0.345500
     35 H24         1.5350    1.6030    5.3300 ha        1 PDS      0.137000
     36 H29         2.1820    1.4880    7.7430 ha        1 PDS      0.128000
     37 H31         3.7110   -0.2700    8.5700 ha        1 PDS      0.129000
     38 H28         4.6650   -1.9820    7.0240 ha        1 PDS      0.132000
     39 HN25        4.6250   -2.7120    4.2600 hn        1 PDS      0.300700
     40 H261        2.6160   -2.5900    1.4280 hc        1 PDS      0.063367
     41 H262        3.8410   -1.3200    0.9780 hc        1 PDS      0.063367
     42 H263        4.3810   -2.8770    1.7440 hc        1 PDS      0.063367
     43 H8          0.4080   -2.1920    2.6530 ha        1 PDS      0.136000
     44 H16        -0.7290   -4.2380    3.5340 ha        1 PDS      0.128000
     45 H15        -3.4470   -1.8390    5.8940 ha        1 PDS      0.131000
     46 H21        -2.6150   -4.0610    5.1250 ha        1 PDS      0.129000
     47 H101       -0.7810    3.1970    5.1320 hc        1 PDS      0.061700
     48 H102       -0.7610    3.2240    3.3100 hc        1 PDS      0.061700
     49 H103       -2.3410    3.2680    4.1990 hc        1 PDS      0.061700
     50 H171       -3.4940    0.3830    6.5800 h1        1 PDS      0.059700
     51 H172       -2.9410    2.0880    6.2180 h1        1 PDS      0.059700
     52 H221       -4.9230    0.4470    4.4640 hc        1 PDS      0.064700
     53 H222       -4.4260    2.1680    4.2050 hc        1 PDS      0.064700
     54 H271       -5.9080    0.9580    6.6560 h1        1 PDS      0.028200
     55 H272       -5.2250    2.6440    6.6340 h1        1 PDS      0.028200
     56 H321       -8.1820    2.1760    7.0450 h1        1 PDS      0.032867
     57 H322       -8.6180    3.4290    5.7940 h1        1 PDS      0.032867
     58 H323       -7.2250    3.7240    6.9310 h1        1 PDS      0.032867
     59 H331       -6.8000    1.2410    3.6020 h1        1 PDS      0.032867
     60 H332       -8.4170    1.9640    4.0200 h1        1 PDS      0.032867
     61 H333       -7.8140    0.5020    4.9260 h1        1 PDS      0.032867
@<TRIPOS>BOND
     1    1    2 2   
     2    2    3 1   
     3    2    6 1   
     4    3    4 1   
     5    3   34 1   
     6    4    5 2   
     7    4    7 1   
     8    6    7 2   
     9    6   18 1   
    10    7    8 1   
    11    8    9 1   
    12    8   16 2   
    13    9   10 ar  
    14    9   14 ar  
    15   10   11 ar  
    16   10   35 1   
    17   11   12 ar  
    18   11   36 1   
    19   12   13 ar  
    20   12   37 1   
    21   13   14 ar  
    22   13   38 1   
    23   14   15 1   
    24   15   16 1   
    25   15   39 1   
    26   16   17 1   
    27   17   40 1   
    28   17   41 1   
    29   17   42 1   
    30   18   19 1   
    31   18   26 2   
    32   19   20 ar  
    33   19   22 ar  
    34   20   21 ar  
    35   20   43 1   
    36   21   24 ar  
    37   21   44 1   
    38   22   23 ar  
    39   22   25 1   
    40   23   24 ar  
    41   23   45 1   
    42   24   46 1   
    43   25   26 1   
    44   25   28 1   
    45   26   27 1   
    46   27   47 1   
    47   27   48 1   
    48   27   49 1   
    49   28   29 1   
    50   28   50 1   
    51   28   51 1   
    52   29   30 1   
    53   29   52 1   
    54   29   53 1   
    55   30   31 1   
    56   30   54 1   
    57   30   55 1   
    58   31   32 1   
    59   31   33 1   
    60   32   56 1   
    61   32   57 1   
    62   32   58 1   
    63   33   59 1   
    64   33   60 1   
    65   33   61 1   
@<TRIPOS>SUBSTRUCTURE
     1 PDS         1 TEMP              0 ****  ****    0 ROOT
