@<TRIPOS>MOLECULE
PDS
   62    66     1     0     0
SMALL
bcc


@<TRIPOS>ATOM
      1 O14        -0.3010   -1.3090   -1.1820 o         1 PDS     -0.618500
      2 C6          0.8000   -0.8460   -0.8590 c         1 PDS      0.713700
      3 N13         1.1750   -0.5350    0.4630 n         1 PDS     -0.624500
      4 C12         2.4960   -0.0280    0.4860 c         1 PDS      0.690700
      5 O20         3.0750    0.3270    1.5120 o         1 PDS     -0.553500
      6 C2          1.9820   -0.5010   -1.7460 cc        1 PDS     -0.129200
      7 C5          3.0000   -0.0350   -0.9590 cd        1 PDS      0.031800
      8 C11         4.3280    0.3450   -1.2810 cd        1 PDS     -0.161200
      9 C18         5.1990   -0.3170   -2.2390 ca        1 PDS     -0.054800
     10 C24         5.0640   -1.4200   -3.0830 ca        1 PDS     -0.093000
     11 C29         6.1430   -1.8050   -3.8660 ca        1 PDS     -0.140000
     12 C31         7.3640   -1.1110   -3.8240 ca        1 PDS     -0.113000
     13 C28         7.5440   -0.0130   -2.9960 ca        1 PDS     -0.129000
     14 C23         6.4600    0.3830   -2.1990 ca        1 PDS     -0.054200
     15 N25         6.3490    1.4270   -1.2720 na        1 PDS     -0.172400
     16 C19         5.0770    1.4010   -0.7090 cc        1 PDS      0.037700
     17 C26         4.6520    2.3740    0.3180 c3        1 PDS     -0.064900
     18 C1          1.8540   -0.6440   -3.1620 cc        1 PDS     -0.037200
     19 C3          1.9480    0.4330   -4.1430 ca        1 PDS     -0.064800
     20 C8          2.2790    1.7810   -4.0590 ca        1 PDS     -0.075000
     21 C16         2.2710    2.5460   -5.2230 ca        1 PDS     -0.137000
     22 C7          1.6180   -0.1470   -5.4190 ca        1 PDS     -0.074200
     23 C15         1.6210    0.6300   -6.5810 ca        1 PDS     -0.140000
     24 C21         1.9480    1.9780   -6.4620 ca        1 PDS     -0.108000
     25 N9          1.4130   -1.5490   -5.2570 na        1 PDS     -0.048400
     26 C4          1.5150   -1.8070   -3.8490 cd        1 PDS     -0.065300
     27 C10         1.3950   -3.1640   -3.2810 c3        1 PDS     -0.043900
     28 C17         0.3790   -2.2080   -6.0080 c3        1 PDS      0.036300
     29 C22        -1.0460   -1.9320   -5.4910 c3        1 PDS     -0.159400
     30 C27        -2.0380   -2.8090   -6.2350 c3        1 PDS      0.113800
     31 N30        -3.4200   -2.7520   -5.6410 n4        1 PDS     -0.681400
     32 C32        -4.2440   -3.8900   -6.1230 c3        1 PDS      0.081600
     33 C33        -4.0860   -1.4580   -5.9390 c3        1 PDS      0.081600
     34 HN13        0.6030   -0.6520    1.2600 hn        1 PDS      0.351500
     35 H24         4.1090   -1.9650   -3.1280 ha        1 PDS      0.135000
     36 H29         6.0470   -2.6720   -4.5370 ha        1 PDS      0.132000
     37 H31         8.1950   -1.4490   -4.4610 ha        1 PDS      0.138000
     38 H28         8.5010    0.5250   -2.9620 ha        1 PDS      0.141000
     39 HN25        7.0670    2.0610   -1.0350 hn        1 PDS      0.309700
     40 H261        4.8770    1.9640    1.3380 hc        1 PDS      0.069367
     41 H262        5.1660    3.3600    0.2030 hc        1 PDS      0.069367
     42 H263        3.5470    2.5330    0.2520 hc        1 PDS      0.069367
     43 H8          2.5550    2.2260   -3.0920 ha        1 PDS      0.148000
     44 H16         2.5320    3.6140   -5.1720 ha        1 PDS      0.143000
     45 H15         1.3950    0.1930   -7.5620 ha        1 PDS      0.132000
     46 H21         1.9620    2.6100   -7.3640 ha        1 PDS      0.140000
     47 H101        2.3760   -3.6990   -3.3700 hc        1 PDS      0.056700
     48 H102        1.1250   -3.0880   -2.1970 hc        1 PDS      0.056700
     49 H103        0.6140   -3.7730   -3.7990 hc        1 PDS      0.056700
     50 H171        0.5790   -3.3160   -5.9670 h1        1 PDS      0.070200
     51 H172        0.4540   -1.8690   -7.0800 h1        1 PDS      0.070200
     52 H221       -1.0770   -2.1410   -4.3850 hc        1 PDS      0.084200
     53 H222       -1.2860   -0.8460   -5.6390 hc        1 PDS      0.084200
     54 H271       -2.1120   -2.4950   -7.3140 hx        1 PDS      0.101700
     55 H272       -1.6990   -3.8850   -6.1960 hx        1 PDS      0.101700
     56 H321       -3.7680   -4.8570   -5.8070 hx        1 PDS      0.106200
     57 H322       -4.3150   -3.8540   -7.2420 hx        1 PDS      0.106200
     58 H323       -5.2730   -3.8180   -5.6790 hx        1 PDS      0.106200
     59 H331       -5.0930   -1.4350   -5.4420 hx        1 PDS      0.106200
     60 H332       -3.4540   -0.6160   -5.5460 hx        1 PDS      0.106200
     61 H333       -4.2130   -1.3460   -7.0490 hx        1 PDS      0.106200
     62 H301       -3.3220   -2.8300   -4.6170 hn        1 PDS      0.456800
@<TRIPOS>BOND
     1    1    2 2   
     2    2    3 1   
     3    2    6 1   
     4    3    4 1   
     5    3   34 1   
     6    4    5 2   
     7    4    7 1   
     8    6    7 2   
     9    6   18 1   
    10    7    8 1   
    11    8    9 1   
    12    8   16 2   
    13    9   10 ar  
    14    9   14 ar  
    15   10   11 ar  
    16   10   35 1   
    17   11   12 ar  
    18   11   36 1   
    19   12   13 ar  
    20   12   37 1   
    21   13   14 ar  
    22   13   38 1   
    23   14   15 1   
    24   15   16 1   
    25   15   39 1   
    26   16   17 1   
    27   17   40 1   
    28   17   41 1   
    29   17   42 1   
    30   18   19 1   
    31   18   26 2   
    32   19   20 ar  
    33   19   22 ar  
    34   20   21 ar  
    35   20   43 1   
    36   21   24 ar  
    37   21   44 1   
    38   22   23 ar  
    39   22   25 1   
    40   23   24 ar  
    41   23   45 1   
    42   24   46 1   
    43   25   26 1   
    44   25   28 1   
    45   26   27 1   
    46   27   47 1   
    47   27   48 1   
    48   27   49 1   
    49   28   29 1   
    50   28   50 1   
    51   28   51 1   
    52   29   30 1   
    53   29   52 1   
    54   29   53 1   
    55   30   31 1   
    56   30   54 1   
    57   30   55 1   
    58   31   32 1   
    59   31   33 1   
    60   31   62 1   
    61   32   56 1   
    62   32   57 1   
    63   32   58 1   
    64   33   59 1   
    65   33   60 1   
    66   33   61 1   
@<TRIPOS>SUBSTRUCTURE
     1 PDS         1 TEMP              0 ****  ****    0 ROOT
