@<TRIPOS>MOLECULE
PDS
   62    66     1     0     0
SMALL
bcc


@<TRIPOS>ATOM
      1 O14        -0.2590   -1.3780   -1.1670 o         1 PDS     -0.618500
      2 C6          0.8450   -0.9170   -0.8500 c         1 PDS      0.713700
      3 N13         1.2390   -0.6360    0.4730 ns        1 PDS     -0.624500
      4 C12         2.5580   -0.1240    0.4870 c         1 PDS      0.690700
      5 O20         3.1520    0.2100    1.5130 o         1 PDS     -0.553500
      6 C2          2.0110   -0.5460   -1.7460 cc        1 PDS     -0.129200
      7 C5          3.0400   -0.0930   -0.9650 cd        1 PDS      0.031800
      8 C11         4.3610    0.3000   -1.2980 cd        1 PDS     -0.161200
      9 C18         5.2190   -0.3350   -2.2850 ca        1 PDS     -0.054800
     10 C24         5.0770   -1.4190   -3.1520 ca        1 PDS     -0.093000
     11 C29         6.1450   -1.7800   -3.9610 ca        1 PDS     -0.140000
     12 C31         7.3630   -1.0810   -3.9210 ca        1 PDS     -0.113000
     13 C28         7.5510   -0.0020   -3.0710 ca        1 PDS     -0.129000
     14 C23         6.4780    0.3700   -2.2480 ca        1 PDS     -0.054200
     15 N25         6.3770    1.3910   -1.2940 na        1 PDS     -0.172400
     16 C19         5.1140    1.3460   -0.7130 cc        1 PDS      0.037700
     17 C26         4.7000    2.2920    0.3430 c3        1 PDS     -0.064900
     18 C1          1.8620   -0.6560   -3.1640 cc        1 PDS     -0.037200
     19 C3          1.9370    0.4440   -4.1200 ca        1 PDS     -0.064800
     20 C8          2.2630    1.7910   -4.0100 ca        1 PDS     -0.075000
     21 C16         2.2330    2.5840   -5.1550 ca        1 PDS     -0.137000
     22 C7          1.5890   -0.1070   -5.4040 ca        1 PDS     -0.074200
     23 C15         1.5710    0.6970   -6.5470 ca        1 PDS     -0.140000
     24 C21         1.8930    2.0430   -6.4020 ca        1 PDS     -0.108000
     25 N9          1.3930   -1.5140   -5.2720 na        1 PDS     -0.048400
     26 C4          1.5180   -1.8040   -3.8730 cd        1 PDS     -0.065300
     27 C10         1.4130   -3.1750   -3.3350 c3        1 PDS     -0.043900
     28 C17         0.3490   -2.1590   -6.0220 c3        1 PDS      0.036300
     29 C22        -1.0680   -1.9020   -5.4760 c3        1 PDS     -0.159400
     30 C27        -2.0690   -2.7660   -6.2240 c3        1 PDS      0.113800
     31 N30        -3.4410   -2.7290   -5.6070 nx        1 PDS     -0.681400
     32 C32        -4.2680   -3.8590   -6.1010 c3        1 PDS      0.081600
     33 C33        -4.1170   -1.4310   -5.8640 c3        1 PDS      0.081600
     34 HN13        0.6800   -0.7750    1.2760 hn        1 PDS      0.351500
     35 H24         4.1230   -1.9670   -3.1960 ha        1 PDS      0.135000
     36 H29         6.0420   -2.6310   -4.6500 ha        1 PDS      0.132000
     37 H31         8.1860   -1.4000   -4.5790 ha        1 PDS      0.138000
     38 H28         8.5060    0.5400   -3.0380 ha        1 PDS      0.141000
     39 HN25        7.0960    2.0230   -1.0540 hn        1 PDS      0.309700
     40 H261        4.9440    1.8590    1.3500 hc        1 PDS      0.069367
     41 H262        5.2080    3.2830    0.2430 hc        1 PDS      0.069367
     42 H263        3.5940    2.4480    0.2970 hc        1 PDS      0.069367
     43 H8          2.5520    2.2150   -3.0370 ha        1 PDS      0.148000
     44 H16         2.4900    3.6510   -5.0830 ha        1 PDS      0.143000
     45 H15         1.3310    0.2810   -7.5350 ha        1 PDS      0.132000
     46 H21         1.8900    2.6960   -7.2890 ha        1 PDS      0.140000
     47 H101        2.3950   -3.7030   -3.4520 hc        1 PDS      0.056700
     48 H102        1.1590   -3.1260   -2.2450 hc        1 PDS      0.056700
     49 H103        0.6260   -3.7750   -3.8550 hc        1 PDS      0.056700
     50 H171        0.5540   -3.2670   -6.0100 h1        1 PDS      0.070200
     51 H172        0.4060   -1.7950   -7.0870 h1        1 PDS      0.070200
     52 H221       -1.0810   -2.1360   -4.3750 hc        1 PDS      0.084200
     53 H222       -1.3150   -0.8140   -5.5950 hc        1 PDS      0.084200
     54 H271       -2.1620   -2.4270   -7.2940 hx        1 PDS      0.101700
     55 H272       -1.7250   -3.8410   -6.2150 hx        1 PDS      0.101700
     56 H321       -3.7830   -4.8310   -5.8160 hx        1 PDS      0.106200
     57 H322       -4.3580   -3.7980   -7.2190 hx        1 PDS      0.106200
     58 H323       -5.2900   -3.8020   -5.6390 hx        1 PDS      0.106200
     59 H331       -5.1160   -1.4240   -5.3510 hx        1 PDS      0.106200
     60 H332       -3.4830   -0.5950   -5.4620 hx        1 PDS      0.106200
     61 H333       -4.2620   -1.2940   -6.9690 hx        1 PDS      0.106200
     62 H301       -3.3270   -2.8300   -4.5870 hn        1 PDS      0.456800
@<TRIPOS>BOND
     1    1    2 2   
     2    2    3 1   
     3    2    6 1   
     4    3    4 1   
     5    3   34 1   
     6    4    5 2   
     7    4    7 1   
     8    6    7 2   
     9    6   18 1   
    10    7    8 1   
    11    8    9 1   
    12    8   16 2   
    13    9   10 ar  
    14    9   14 ar  
    15   10   11 ar  
    16   10   35 1   
    17   11   12 ar  
    18   11   36 1   
    19   12   13 ar  
    20   12   37 1   
    21   13   14 ar  
    22   13   38 1   
    23   14   15 1   
    24   15   16 1   
    25   15   39 1   
    26   16   17 1   
    27   17   40 1   
    28   17   41 1   
    29   17   42 1   
    30   18   19 1   
    31   18   26 2   
    32   19   20 ar  
    33   19   22 ar  
    34   20   21 ar  
    35   20   43 1   
    36   21   24 ar  
    37   21   44 1   
    38   22   23 ar  
    39   22   25 1   
    40   23   24 ar  
    41   23   45 1   
    42   24   46 1   
    43   25   26 1   
    44   25   28 1   
    45   26   27 1   
    46   27   47 1   
    47   27   48 1   
    48   27   49 1   
    49   28   29 1   
    50   28   50 1   
    51   28   51 1   
    52   29   30 1   
    53   29   52 1   
    54   29   53 1   
    55   30   31 1   
    56   30   54 1   
    57   30   55 1   
    58   31   32 1   
    59   31   33 1   
    60   31   62 1   
    61   32   56 1   
    62   32   57 1   
    63   32   58 1   
    64   33   59 1   
    65   33   60 1   
    66   33   61 1   
@<TRIPOS>SUBSTRUCTURE
     1 PDS         1 TEMP              0 ****  ****    0 ROOT
