@<TRIPOS>MOLECULE
PDS
   62    66     1     0     0
SMALL
bcc


@<TRIPOS>ATOM
      1 O14        -0.2720   -1.3360   -1.1610 o         1 PDS     -0.617500
      2 C6          0.8320   -0.8730   -0.8470 c         1 PDS      0.712700
      3 N13         1.2210   -0.5740    0.4730 n         1 PDS     -0.624500
      4 C12         2.5420   -0.0640    0.4860 c         1 PDS      0.690700
      5 O20         3.1310    0.2830    1.5080 o         1 PDS     -0.553500
      6 C2          2.0020   -0.5170   -1.7440 cc        1 PDS     -0.129200
      7 C5          3.0280   -0.0560   -0.9650 cd        1 PDS      0.031800
      8 C11         4.3520    0.3290   -1.2980 cd        1 PDS     -0.161200
      9 C18         5.2130   -0.3220   -2.2720 ca        1 PDS     -0.054800
     10 C24         5.0710   -1.4180   -3.1240 ca        1 PDS     -0.093000
     11 C29         6.1420   -1.7940   -3.9230 ca        1 PDS     -0.140000
     12 C31         7.3620   -1.0970   -3.8890 ca        1 PDS     -0.113000
     13 C28         7.5480   -0.0050   -3.0530 ca        1 PDS     -0.129000
     14 C23         6.4730    0.3810   -2.2410 ca        1 PDS     -0.054200
     15 N25         6.3700    1.4160   -1.3030 na        1 PDS     -0.172400
     16 C19         5.1050    1.3830   -0.7260 cc        1 PDS      0.037700
     17 C26         4.6890    2.3450    0.3140 c3        1 PDS     -0.064900
     18 C1          1.8590   -0.6480   -3.1600 cc        1 PDS     -0.037200
     19 C3          1.9400    0.4370   -4.1320 ca        1 PDS     -0.064800
     20 C8          2.2680    1.7860   -4.0400 ca        1 PDS     -0.075000
     21 C16         2.2460    2.5610   -5.1970 ca        1 PDS     -0.137000
     22 C7          1.5970   -0.1320   -5.4100 ca        1 PDS     -0.074200
     23 C15         1.5860    0.6550   -6.5640 ca        1 PDS     -0.140000
     24 C21         1.9110    2.0030   -6.4370 ca        1 PDS     -0.108000
     25 N9          1.3980   -1.5360   -5.2580 na        1 PDS     -0.048400
     26 C4          1.5150   -1.8060   -3.8530 cd        1 PDS     -0.065300
     27 C10         1.4040   -3.1680   -3.2970 c3        1 PDS     -0.043900
     28 C17         0.3580   -2.1910   -6.0050 c3        1 PDS      0.036300
     29 C22        -1.0620   -1.9240   -5.4720 c3        1 PDS     -0.159400
     30 C27        -2.0590   -2.7950   -6.2160 c3        1 PDS      0.113800
     31 N30        -3.4360   -2.7450   -5.6120 n4        1 PDS     -0.681400
     32 C32        -4.2620   -3.8810   -6.0960 c3        1 PDS      0.081600
     33 C33        -4.1070   -1.4500   -5.8960 c3        1 PDS      0.081600
     34 HN13        0.6590   -0.6990    1.2760 hn        1 PDS      0.351500
     35 H24         4.1170   -1.9640   -3.1630 ha        1 PDS      0.135000
     36 H29         6.0400   -2.6550   -4.6000 ha        1 PDS      0.132000
     37 H31         8.1870   -1.4270   -4.5390 ha        1 PDS      0.138000
     38 H28         8.5050    0.5340   -3.0260 ha        1 PDS      0.141000
     39 HN25        7.0900    2.0500   -1.0690 hn        1 PDS      0.309700
     40 H261        3.5830    2.5020    0.2620 hc        1 PDS      0.069367
     41 H262        4.9270    1.9260    1.3280 hc        1 PDS      0.069367
     42 H263        5.2000    3.3330    0.2020 hc        1 PDS      0.069367
     43 H8          2.5540    2.2230   -3.0720 ha        1 PDS      0.148000
     44 H16         2.5050    3.6290   -5.1390 ha        1 PDS      0.143000
     45 H15         1.3510    0.2260   -7.5480 ha        1 PDS      0.132000
     46 H21         1.9140    2.6430   -7.3340 ha        1 PDS      0.140000
     47 H101        0.6180   -3.7740   -3.8100 hc        1 PDS      0.056700
     48 H102        1.1460   -3.1020   -2.2080 hc        1 PDS      0.056700
     49 H103        2.3850   -3.7010   -3.4020 hc        1 PDS      0.056700
     50 H171        0.5620   -3.2990   -5.9740 h1        1 PDS      0.070200
     51 H172        0.4230   -1.8440   -7.0750 h1        1 PDS      0.070200
     52 H221       -1.0840   -2.1440   -4.3690 hc        1 PDS      0.084200
     53 H222       -1.3060   -0.8370   -5.6080 hc        1 PDS      0.084200
     54 H271       -2.1420   -2.4720   -7.2920 hx        1 PDS      0.101700
     55 H272       -1.7190   -3.8720   -6.1890 hx        1 PDS      0.101700
     56 H321       -5.2890   -3.8130   -5.6440 hx        1 PDS      0.106200
     57 H322       -4.3420   -3.8370   -7.2150 hx        1 PDS      0.106200
     58 H323       -3.7820   -4.8500   -5.7910 hx        1 PDS      0.106200
     59 H331       -4.2420   -1.3300   -7.0040 hx        1 PDS      0.106200
     60 H332       -5.1100   -1.4320   -5.3910 hx        1 PDS      0.106200
     61 H333       -3.4740   -0.6090   -5.5020 hx        1 PDS      0.106200
     62 H301       -3.3320   -2.8300   -4.5900 hn        1 PDS      0.456800
@<TRIPOS>BOND
     1    1    2 2   
     2    2    3 1   
     3    2    6 1   
     4    3    4 1   
     5    3   34 1   
     6    4    5 2   
     7    4    7 1   
     8    6    7 2   
     9    6   18 1   
    10    7    8 1   
    11    8    9 1   
    12    8   16 2   
    13    9   10 ar  
    14    9   14 ar  
    15   10   11 ar  
    16   10   35 1   
    17   11   12 ar  
    18   11   36 1   
    19   12   13 ar  
    20   12   37 1   
    21   13   14 ar  
    22   13   38 1   
    23   14   15 1   
    24   15   16 1   
    25   15   39 1   
    26   16   17 1   
    27   17   40 1   
    28   17   41 1   
    29   17   42 1   
    30   18   19 1   
    31   18   26 2   
    32   19   20 ar  
    33   19   22 ar  
    34   20   21 ar  
    35   20   43 1   
    36   21   24 ar  
    37   21   44 1   
    38   22   23 ar  
    39   22   25 1   
    40   23   24 ar  
    41   23   45 1   
    42   24   46 1   
    43   25   26 1   
    44   25   28 1   
    45   26   27 1   
    46   27   47 1   
    47   27   48 1   
    48   27   49 1   
    49   28   29 1   
    50   28   50 1   
    51   28   51 1   
    52   29   30 1   
    53   29   52 1   
    54   29   53 1   
    55   30   31 1   
    56   30   54 1   
    57   30   55 1   
    58   31   32 1   
    59   31   33 1   
    60   31   62 1   
    61   32   56 1   
    62   32   57 1   
    63   32   58 1   
    64   33   59 1   
    65   33   60 1   
    66   33   61 1   
@<TRIPOS>SUBSTRUCTURE
     1 PDS         1 TEMP              0 ****  ****    0 ROOT
