@<TRIPOS>MOLECULE
PDT
   13    12     1     0     0
SMALL
bcc


@<TRIPOS>ATOM
      1 C2         -0.1200   -0.0000   -0.0000 c3        1 PDT     -0.065400
      2 C1          0.7390   -0.0000    1.2400 c3        1 PDT      0.007700
      3 S1         -0.3570   -0.0000    2.6320 sh        1 PDT     -0.369900
      4 C3          0.7390   -0.0000   -1.2400 c3        1 PDT      0.007700
      5 S2         -0.3570   -0.0000   -2.6320 sh        1 PDT     -0.369900
      6 H21        -0.7850   -0.9060   -0.0000 hc        1 PDT      0.074700
      7 H22        -0.7850    0.9060    0.0000 hc        1 PDT      0.074700
      8 H11         1.3960    0.9030    1.2620 h1        1 PDT      0.059700
      9 H12         1.3960   -0.9030    1.2620 h1        1 PDT      0.059700
     10 HS1         0.5400    0.0000    3.6010 hs        1 PDT      0.199800
     11 H31         1.3960    0.9030   -1.2620 h1        1 PDT      0.059700
     12 H32         1.3960   -0.9030   -1.2620 h1        1 PDT      0.059700
     13 HS2         0.5400    0.0000   -3.6010 hs        1 PDT      0.199800
@<TRIPOS>BOND
     1    1    2 1   
     2    1    4 1   
     3    1    6 1   
     4    1    7 1   
     5    2    3 1   
     6    2    8 1   
     7    2    9 1   
     8    3   10 1   
     9    4    5 1   
    10    4   11 1   
    11    4   12 1   
    12    5   13 1   
@<TRIPOS>SUBSTRUCTURE
     1 PDT         1 TEMP              0 ****  ****    0 ROOT
