@<TRIPOS>MOLECULE
PDU
   40    41     1     0     0
SMALL
bcc


@<TRIPOS>ATOM
      1 OP3        -4.1040    3.7500   -0.3780 o         1 PDU     -0.923833
      2 P          -4.4370    2.5670    0.4990 p5        1 PDU      1.330900
      3 OP1        -5.9350    2.4660    0.6610 o         1 PDU     -0.923833
      4 OP2        -3.7960    2.7480    1.8520 o         1 PDU     -0.923833
      5 O5'        -3.8880    1.2430   -0.1710 os        1 PDU     -0.578200
      6 C5'        -2.5190    1.1760   -0.5080 c3        1 PDU      0.209400
      7 C4'        -2.3760    0.7880   -1.9610 c3        1 PDU      0.062100
      8 O4'        -0.8780    1.1040   -2.4750 os        1 PDU     -0.437600
      9 C3'        -2.5480   -0.4820   -2.0990 c3        1 PDU      0.119100
     10 O3'        -3.1390   -0.7780   -3.4270 oh        1 PDU     -0.659800
     11 C2'        -1.1100   -1.0990   -1.9950 c3        1 PDU     -0.121400
     12 C1'        -0.1410    0.0980   -2.0870 c3        1 PDU      0.306500
     13 N1          0.4400    0.3710   -0.7980 n         1 PDU     -0.369000
     14 C2          0.5940    1.7520   -0.3480 c         1 PDU      0.797500
     15 O2          0.0110    2.6470   -0.9270 o         1 PDU     -0.710500
     16 N3          1.5070    2.0660    0.7510 n         1 PDU     -0.599500
     17 C4          2.1310    1.0170    1.4770 c         1 PDU      0.722700
     18 O4          2.8160    1.2730    2.4460 o         1 PDU     -0.679500
     19 C5          1.8910   -0.3830    1.0950 cc        1 PDU     -0.296400
     20 C5A         2.4420   -1.5100    1.9530 c3        1 PDU     -0.014200
     21 C5B         3.9470   -1.5950    1.7730 c3        1 PDU     -0.059400
     22 C5M         4.4830   -2.7890    2.5430 c3        1 PDU     -0.129100
     23 C6          1.0040   -0.6870   -0.0400 cd        1 PDU      0.068600
     24 H5'        -2.0770    0.5070    0.0540 h1        1 PDU      0.014200
     25 H5''       -2.1050    2.0500   -0.3620 h1        1 PDU      0.014200
     26 H4'        -3.0260    1.2750   -2.5040 h1        1 PDU      0.037700
     27 H3'        -3.1200   -0.8280   -1.3860 h1        1 PDU      0.149700
     28 HO3'       -3.7630   -1.4020   -3.3400 ho        1 PDU      0.482000
     29 H2''       -1.0000   -1.5590   -1.1370 hc        1 PDU      0.051200
     30 H2'        -0.9530   -1.7190   -2.7340 hc        1 PDU      0.051200
     31 H1'         0.5580   -0.0830   -2.7430 h2        1 PDU      0.082700
     32 H3          1.6660    2.9340    0.9770 hn        1 PDU      0.321500
     33 H5A1        2.0330   -2.3560    1.6820 hc        1 PDU      0.065200
     34 H5A2        2.2350   -1.3350    2.8940 hc        1 PDU      0.065200
     35 H5B1        4.1570   -1.6990    0.8220 hc        1 PDU      0.018200
     36 H5B2        4.3620   -0.7770    2.1110 hc        1 PDU      0.018200
     37 H71         4.2620   -2.6910    3.4930 hc        1 PDU      0.053033
     38 H72         4.0760   -3.6120    2.1960 hc        1 PDU      0.053033
     39 H73         5.4580   -2.8360    2.4370 hc        1 PDU      0.053033
     40 H6          0.8420   -1.6140   -0.2980 h4        1 PDU      0.277000
@<TRIPOS>BOND
     1    1    2 1   
     2    2    3 1   
     3    2    4 1   
     4    2    5 1   
     5    5    6 1   
     6    6    7 1   
     7    6   24 1   
     8    6   25 1   
     9    7    8 1   
    10    7    9 1   
    11    7   26 1   
    12    8   12 1   
    13    9   10 1   
    14    9   11 1   
    15    9   27 1   
    16   10   28 1   
    17   11   12 1   
    18   11   29 1   
    19   11   30 1   
    20   12   13 1   
    21   12   31 1   
    22   13   14 1   
    23   13   23 1   
    24   14   15 2   
    25   14   16 1   
    26   16   17 1   
    27   16   32 1   
    28   17   18 2   
    29   17   19 1   
    30   19   20 1   
    31   19   23 2   
    32   20   21 1   
    33   20   33 1   
    34   20   34 1   
    35   21   22 1   
    36   21   35 1   
    37   21   36 1   
    38   22   37 1   
    39   22   38 1   
    40   22   39 1   
    41   23   40 1   
@<TRIPOS>SUBSTRUCTURE
     1 PDU         1 TEMP              0 ****  ****    0 ROOT
