@<TRIPOS>MOLECULE
PDU
   40    41     1     0     0
SMALL
bcc


@<TRIPOS>ATOM
      1 OP3         2.8640   -2.7790   -1.3050 o         1 PDU     -0.926833
      2 P           1.7540   -1.7820   -1.2560 p5        1 PDU      1.342900
      3 OP1         1.4970   -1.0780    0.0660 o         1 PDU     -0.926833
      4 OP2         1.5240   -0.8420   -2.4140 o         1 PDU     -0.926833
      5 O5'         0.2980   -2.7080   -1.4200 os        1 PDU     -0.567200
      6 C5'        -0.7010   -2.5020   -0.5120 c3        1 PDU      0.225400
      7 C4'        -1.7370   -1.4480   -0.9760 c3        1 PDU      0.063100
      8 O4'        -2.6830   -1.2370    0.1020 os        1 PDU     -0.439600
      9 C3'        -1.1290   -0.0740   -1.3310 c3        1 PDU      0.104100
     10 O3'        -1.1960    0.1780   -2.7160 oh        1 PDU     -0.657800
     11 C2'        -1.9620    0.9490   -0.5600 c3        1 PDU     -0.117400
     12 C1'        -2.6650    0.1210    0.5330 c3        1 PDU      0.303500
     13 N1         -2.0390    0.2510    1.8640 n         1 PDU     -0.367000
     14 C2         -2.8820    0.5720    2.9490 c         1 PDU      0.794500
     15 O2         -4.1010    0.8560    2.8150 o         1 PDU     -0.711500
     16 N3         -2.3310    0.6200    4.2400 n         1 PDU     -0.596500
     17 C4         -0.9770    0.3360    4.5060 c         1 PDU      0.718700
     18 O4         -0.6120    0.4020    5.7000 o         1 PDU     -0.687500
     19 C5         -0.1510   -0.0020    3.3480 cc        1 PDU     -0.300400
     20 C5A         1.2800   -0.3180    3.5880 c3        1 PDU      0.005800
     21 C5B         2.2130    0.4940    2.7110 c3        1 PDU     -0.120400
     22 C5M         3.6440    0.3410    3.1560 c3        1 PDU     -0.073100
     23 C6         -0.7040   -0.0520    2.0930 cd        1 PDU      0.069600
     24 H5'        -0.2910   -2.1910    0.4900 h1        1 PDU     -0.002800
     25 H5''       -1.2750   -3.4670   -0.3760 h1        1 PDU     -0.002800
     26 H4'        -2.3430   -1.8440   -1.8330 h1        1 PDU      0.048700
     27 H3'        -0.0380   -0.0580   -0.9950 h1        1 PDU      0.154700
     28 HO3'       -0.3300   -0.1260   -3.0670 ho        1 PDU      0.482000
     29 H2''       -1.3170    1.7600   -0.1490 hc        1 PDU      0.051700
     30 H2'        -2.7360    1.4110   -1.2200 hc        1 PDU      0.051700
     31 H1'        -3.7510    0.4130    0.6530 h2        1 PDU      0.085700
     32 H3         -2.9470    0.8430    4.9870 hn        1 PDU      0.321500
     33 H5A1        1.4510   -1.4090    3.3750 hc        1 PDU      0.043200
     34 H5A2        1.5190   -0.1400    4.6720 hc        1 PDU      0.043200
     35 H5B1        1.9230    1.5750    2.7450 hc        1 PDU      0.087200
     36 H5B2        2.1100    0.1300    1.6390 hc        1 PDU      0.087200
     37 H71         4.3180    0.9370    2.4950 hc        1 PDU      0.013367
     38 H72         3.7830    0.6910    4.2090 hc        1 PDU      0.013367
     39 H73         3.9540   -0.7310    3.0960 hc        1 PDU      0.013367
     40 H6         -0.0660   -0.3410    1.1950 h4        1 PDU      0.298000
@<TRIPOS>BOND
     1    1    2 1   
     2    2    3 1   
     3    2    4 1   
     4    2    5 1   
     5    5    6 1   
     6    6    7 1   
     7    6   24 1   
     8    6   25 1   
     9    7    8 1   
    10    7    9 1   
    11    7   26 1   
    12    8   12 1   
    13    9   10 1   
    14    9   11 1   
    15    9   27 1   
    16   10   28 1   
    17   11   12 1   
    18   11   29 1   
    19   11   30 1   
    20   12   13 1   
    21   12   31 1   
    22   13   14 1   
    23   13   23 1   
    24   14   15 2   
    25   14   16 1   
    26   16   17 1   
    27   16   32 1   
    28   17   18 2   
    29   17   19 1   
    30   19   20 1   
    31   19   23 2   
    32   20   21 1   
    33   20   33 1   
    34   20   34 1   
    35   21   22 1   
    36   21   35 1   
    37   21   36 1   
    38   22   37 1   
    39   22   38 1   
    40   22   39 1   
    41   23   40 1   
@<TRIPOS>SUBSTRUCTURE
     1 PDU         1 TEMP              0 ****  ****    0 ROOT
