@<TRIPOS>MOLECULE
PDW
   20    20     1     0     0
SMALL
bcc


@<TRIPOS>ATOM
      1 CM          3.2380    0.2760    0.0150 c3        1 PDW      0.125700
      2 O           1.1490   -0.3480    1.4440 o         1 PDW     -0.538000
      3 CG         -2.6210   -0.5950    0.4020 c3        1 PDW     -0.099400
      4 CB         -1.3270   -1.3930    0.3030 c3        1 PDW     -0.095400
      5 CD         -2.3110    0.7840   -0.2040 c3        1 PDW      0.150800
      6 OXT         1.9800   -0.0000   -0.6010 os        1 PDW     -0.436900
      7 C           0.9360   -0.2880    0.2340 c         1 PDW      0.642100
      8 CA         -0.3560   -0.5280   -0.5320 c3        1 PDW      0.125500
      9 N          -0.9980    0.7530   -0.8390 n3        1 PDW     -0.799200
     10 HM1         3.5860   -0.6180    0.5860 h1        1 PDW      0.050033
     11 HM2         3.9120    0.5010   -0.8470 h1        1 PDW      0.050033
     12 HM3         3.1420    1.1530    0.7000 h1        1 PDW      0.050033
     13 HG2        -3.4440   -1.0960   -0.1640 hc        1 PDW      0.051700
     14 HG3        -2.9500   -0.4900    1.4640 hc        1 PDW      0.051700
     15 HB2        -0.9030   -1.5910    1.3200 hc        1 PDW      0.066700
     16 HB3        -1.4930   -2.3750   -0.2030 hc        1 PDW      0.066700
     17 HD2        -3.1110    1.0890   -0.9300 h1        1 PDW      0.051200
     18 HD3        -2.2670    1.5610    0.6090 h1        1 PDW      0.051200
     19 HA         -0.0690   -1.0750   -1.4770 h1        1 PDW      0.067700
     20 H          -1.0630    0.8800   -1.8300 hn        1 PDW      0.367800
@<TRIPOS>BOND
     1    1    6 1   
     2    1   10 1   
     3    1   11 1   
     4    1   12 1   
     5    2    7 2   
     6    3    4 1   
     7    3    5 1   
     8    3   13 1   
     9    3   14 1   
    10    4    8 1   
    11    4   15 1   
    12    4   16 1   
    13    5    9 1   
    14    5   17 1   
    15    5   18 1   
    16    6    7 1   
    17    7    8 1   
    18    8    9 1   
    19    8   19 1   
    20    9   20 1   
@<TRIPOS>SUBSTRUCTURE
     1 PDW         1 TEMP              0 ****  ****    0 ROOT
