@<TRIPOS>MOLECULE
PDX
   30    30     1     0     0
SMALL
bcc


@<TRIPOS>ATOM
      1 C1          0.1560    0.6360   -0.1660 c3        1 PDX      0.296900
      2 C2          1.6390    0.2190    0.0400 c3        1 PDX      0.175100
      3 C3          2.0050   -0.0570    1.5200 c3        1 PDX      0.201100
      4 C4          1.3350    1.0000    2.4350 c3        1 PDX      0.098100
      5 C5         -0.1640    1.1010    2.1420 c3        1 PDX      0.107100
      6 C6         -0.8370    2.1570    3.0180 c3        1 PDX      0.141400
      7 O1         -0.7530   -0.4400   -0.0960 oh        1 PDX     -0.656800
      8 O2          1.8480   -0.9420   -0.7020 os        1 PDX     -0.604500
      9 O3          3.3840    0.0690    1.6700 os        1 PDX     -0.614500
     10 O4          1.4520    0.6740    3.8100 oh        1 PDX     -0.648800
     11 O5         -0.3520    1.5400    0.7950 os        1 PDX     -0.444600
     12 O6         -2.2310    2.2450    2.7760 oh        1 PDX     -0.636800
     13 O1S         2.9090   -1.7730   -2.8080 o         1 PDX     -0.757533
     14 O2S         0.5660   -1.5490   -2.6140 o         1 PDX     -0.757533
     15 O3S         1.9110    0.3730   -2.7750 o         1 PDX     -0.757533
     16 O1X         4.2510   -0.3090    3.8730 o         1 PDX     -0.756867
     17 O2X         5.6380   -0.8250    2.0410 o         1 PDX     -0.756867
     18 O3X         3.7870   -2.2110    2.5910 o         1 PDX     -0.756867
     19 S           1.8330   -0.9800   -2.4310 s6        1 PDX      1.695300
     20 S'          4.3850   -0.9550    2.6310 s6        1 PDX      1.703300
     21 H1          0.0420    1.1760   -1.1520 h2        1 PDX      0.078700
     22 H2          2.2930    1.0520   -0.3440 h1        1 PDX      0.060700
     23 H3          1.6660   -1.0920    1.8070 h1        1 PDX      0.065700
     24 H4          1.8280    1.9960    2.2500 h1        1 PDX      0.038700
     25 H5         -0.6590    0.1010    2.2830 h1        1 PDX      0.072700
     26 H6C1       -0.7270    1.8730    4.0970 h1        1 PDX      0.044200
     27 H6C2       -0.3720    3.1620    2.8340 h1        1 PDX      0.044200
     28 HA         -0.3330   -1.1980   -0.5360 ho        1 PDX      0.456000
     29 HB          2.3840    0.4470    3.9710 ho        1 PDX      0.455000
     30 H6         -2.3570    2.1280    1.8250 ho        1 PDX      0.416000
@<TRIPOS>BOND
     1    1    2 1   
     2    1    7 1   
     3    1   11 1   
     4    1   21 1   
     5    2    3 1   
     6    2    8 1   
     7    2   22 1   
     8    3    4 1   
     9    3    9 1   
    10    3   23 1   
    11    4    5 1   
    12    4   10 1   
    13    4   24 1   
    14    5    6 1   
    15    5   11 1   
    16    5   25 1   
    17    6   12 1   
    18    6   26 1   
    19    6   27 1   
    20    7   28 1   
    21    8   19 1   
    22    9   20 1   
    23   10   29 1   
    24   12   30 1   
    25   13   19 1   
    26   14   19 1   
    27   15   19 1   
    28   16   20 1   
    29   17   20 1   
    30   18   20 1   
@<TRIPOS>SUBSTRUCTURE
     1 PDX         1 TEMP              0 ****  ****    0 ROOT
