@<TRIPOS>MOLECULE
PDX
   30    30     1     0     0
SMALL
bcc


@<TRIPOS>ATOM
      1 C1         -1.5400    1.1280    0.9370 c3        1 PDX      0.320900
      2 C2         -0.8300    0.2410   -0.1080 c3        1 PDX      0.175100
      3 C3          0.6870    0.1800    0.2030 c3        1 PDX      0.193100
      4 C4          0.9550    0.0940    1.7260 c3        1 PDX      0.101100
      5 C5         -0.3300   -0.2600    2.4850 c3        1 PDX      0.114100
      6 C6         -0.0790   -0.3160    3.9930 c3        1 PDX      0.140400
      7 O1         -2.9370    1.1040    0.8580 oh        1 PDX     -0.634800
      8 O2         -1.3610   -1.0450   -0.0830 os        1 PDX     -0.626500
      9 O3          1.2670    1.3430   -0.3100 os        1 PDX     -0.623500
     10 O4          1.9110   -0.9050    2.0430 oh        1 PDX     -0.643800
     11 O5         -1.3040    0.7670    2.2980 os        1 PDX     -0.480600
     12 O6         -1.2500   -0.6310    4.7250 oh        1 PDX     -0.637800
     13 O1S        -2.1310   -3.0400   -1.2720 o         1 PDX     -0.755200
     14 O2S        -3.6850   -1.4110   -0.5670 o         1 PDX     -0.755200
     15 O3S        -2.2580   -0.9600   -2.3870 o         1 PDX     -0.755200
     16 O1X         3.4890    0.4040   -0.0190 o         1 PDX     -0.761867
     17 O2X         3.2350    2.7490   -0.0720 o         1 PDX     -0.761867
     18 O3X         3.0090    1.5000   -2.0550 o         1 PDX     -0.761867
     19 S          -2.4830   -1.6940   -1.2260 s6        1 PDX      1.702300
     20 S'          2.9410    1.5220   -0.6660 s6        1 PDX      1.706300
     21 H1         -1.2270    2.2040    0.8220 h2        1 PDX      0.078700
     22 H2         -0.9750    0.7100   -1.1240 h1        1 PDX      0.077700
     23 H3          1.1210   -0.7320   -0.2970 h1        1 PDX      0.057700
     24 H4          1.3390    1.0930    2.0830 h1        1 PDX      0.042700
     25 H5         -0.7430   -1.2380    2.1120 h1        1 PDX      0.093700
     26 H6C1        0.3200    0.6700    4.3540 h1        1 PDX      0.040200
     27 H6C2        0.6560   -1.1330    4.2170 h1        1 PDX      0.040200
     28 HA         -3.2220    0.1790    0.7660 ho        1 PDX      0.444000
     29 HB          2.6490   -0.7900    1.4220 ho        1 PDX      0.449000
     30 H6         -1.9860   -0.1920    4.2790 ho        1 PDX      0.418000
@<TRIPOS>BOND
     1    1    2 1   
     2    1    7 1   
     3    1   11 1   
     4    1   21 1   
     5    2    3 1   
     6    2    8 1   
     7    2   22 1   
     8    3    4 1   
     9    3    9 1   
    10    3   23 1   
    11    4    5 1   
    12    4   10 1   
    13    4   24 1   
    14    5    6 1   
    15    5   11 1   
    16    5   25 1   
    17    6   12 1   
    18    6   26 1   
    19    6   27 1   
    20    7   28 1   
    21    8   19 1   
    22    9   20 1   
    23   10   29 1   
    24   12   30 1   
    25   13   19 1   
    26   14   19 1   
    27   15   19 1   
    28   16   20 1   
    29   17   20 1   
    30   18   20 1   
@<TRIPOS>SUBSTRUCTURE
     1 PDX         1 TEMP              0 ****  ****    0 ROOT
