@<TRIPOS>MOLECULE
PDX
   30    30     1     0     0
SMALL
bcc


@<TRIPOS>ATOM
      1 C1          0.1600    0.6340   -0.1680 c3        1 PDX      0.296900
      2 C2          1.6400    0.2120    0.0410 c3        1 PDX      0.175100
      3 C3          2.0050   -0.0600    1.5220 c3        1 PDX      0.201100
      4 C4          1.3390    1.0030    2.4330 c3        1 PDX      0.098100
      5 C5         -0.1600    1.1080    2.1390 c3        1 PDX      0.107100
      6 C6         -0.8300    2.1700    3.0100 c3        1 PDX      0.141400
      7 O1         -0.7540   -0.4380   -0.0950 oh        1 PDX     -0.656800
      8 O2          1.8450   -0.9530   -0.6970 os        1 PDX     -0.604500
      9 O3          3.3840    0.0610    1.6720 os        1 PDX     -0.614500
     10 O4          1.4540    0.6810    3.8090 oh        1 PDX     -0.648800
     11 O5         -0.3450    1.5430    0.7900 os        1 PDX     -0.444600
     12 O6         -2.2230    2.2620    2.7670 oh        1 PDX     -0.636800
     13 O1S         2.9050   -1.7950   -2.7990 o         1 PDX     -0.757533
     14 O2S         0.5620   -1.5620   -2.6070 o         1 PDX     -0.757533
     15 O3S         1.9150    0.3550   -2.7750 o         1 PDX     -0.757533
     16 O1X         4.2490   -0.3110    3.8770 o         1 PDX     -0.756867
     17 O2X         5.6350   -0.8390    2.0480 o         1 PDX     -0.756867
     18 O3X         3.7780   -2.2160    2.6020 o         1 PDX     -0.756867
     19 S           1.8310   -0.9970   -2.4260 s6        1 PDX      1.695300
     20 S'          4.3810   -0.9630    2.6380 s6        1 PDX      1.703300
     21 H1          0.0490    1.1710   -1.1560 h2        1 PDX      0.078700
     22 H2          2.2980    1.0410   -0.3450 h1        1 PDX      0.060700
     23 H3          1.6620   -1.0930    1.8120 h1        1 PDX      0.065700
     24 H4          1.8350    1.9960    2.2450 h1        1 PDX      0.038700
     25 H5         -0.6590    0.1110    2.2820 h1        1 PDX      0.072700
     26 H6C1       -0.7210    1.8890    4.0900 h1        1 PDX      0.044200
     27 H6C2       -0.3610    3.1720    2.8240 h1        1 PDX      0.044200
     28 HA         -0.3360   -1.2000   -0.5310 ho        1 PDX      0.456000
     29 HB          2.3840    0.4510    3.9710 ho        1 PDX      0.455000
     30 H6         -2.3490    2.1420    1.8170 ho        1 PDX      0.416000
@<TRIPOS>BOND
     1    1    2 1   
     2    1    7 1   
     3    1   11 1   
     4    1   21 1   
     5    2    3 1   
     6    2    8 1   
     7    2   22 1   
     8    3    4 1   
     9    3    9 1   
    10    3   23 1   
    11    4    5 1   
    12    4   10 1   
    13    4   24 1   
    14    5    6 1   
    15    5   11 1   
    16    5   25 1   
    17    6   12 1   
    18    6   26 1   
    19    6   27 1   
    20    7   28 1   
    21    8   19 1   
    22    9   20 1   
    23   10   29 1   
    24   12   30 1   
    25   13   19 1   
    26   14   19 1   
    27   15   19 1   
    28   16   20 1   
    29   17   20 1   
    30   18   20 1   
@<TRIPOS>SUBSTRUCTURE
     1 PDX         1 TEMP              0 ****  ****    0 ROOT
