@<TRIPOS>MOLECULE
PDY
   53    56     1     0     0
SMALL
bcc


@<TRIPOS>ATOM
      1 C25        -0.1110   -0.4530   -0.4740 c3        1 PDY     -0.083400
      2 C26         1.3890   -0.2610   -0.4150 c3        1 PDY     -0.077400
      3 C23         1.8330    0.1810    0.9780 c3        1 PDY      0.161800
      4 N12         1.3580   -0.7030    2.0220 n7        1 PDY     -0.815200
      5 C22        -0.0690   -0.9440    1.9910 c3        1 PDY      0.136800
      6 C15        -0.5500   -1.4600    0.6050 c3        1 PDY      0.204500
      7 N10        -1.9850   -1.6750    0.5410 nu        1 PDY     -0.832900
      8 C4         -2.5970   -2.7600    1.1850 cc        1 PDY      0.671200
      9 C3         -4.0720   -2.7820    1.2170 cc        1 PDY     -0.247600
     10 C14        -4.8230   -1.6150    0.7000 c3        1 PDY     -0.045800
     11 N6         -1.8450   -3.7610    1.6750 nd        1 PDY     -0.710000
     12 C5         -2.4990   -4.8480    2.1880 cd        1 PDY      0.401500
     13 C8         -2.0240   -6.0460    2.7770 cc        1 PDY     -0.331600
     14 C11        -3.2060   -6.7800    3.1290 cc        1 PDY      0.383500
     15 N7         -4.3420   -6.1090    2.7940 nd        1 PDY     -0.586100
     16 N2         -3.9420   -4.9590    2.2240 na        1 PDY     -0.005800
     17 C1         -4.7290   -3.8980    1.7330 cd        1 PDY      0.230300
     18 N9         -6.1520   -3.9670    1.8210 nu        1 PDY     -0.584000
     19 C13        -6.8420   -4.5400    0.7170 ca        1 PDY      0.080600
     20 C17        -8.0310   -5.2720    0.9420 ca        1 PDY     -0.125000
     21 C20        -8.7830   -5.7460   -0.1210 ca        1 PDY     -0.157000
     22 C18        -6.4260   -4.3180   -0.6090 ca        1 PDY     -0.125000
     23 C19        -7.1740   -4.7980   -1.6810 ca        1 PDY     -0.157000
     24 C16        -8.3540   -5.5090   -1.4410 ca        1 PDY      0.110100
     25 O21        -9.1810   -6.0240   -2.4190 os        1 PDY     -0.329900
     26 C24        -8.7330   -5.8520   -3.7710 c3        1 PDY      0.128400
     27 C27        -9.7670   -6.5290   -4.6400 c3        1 PDY     -0.100100
     28 H25        -0.6230    0.5320   -0.3120 hc        1 PDY      0.045700
     29 H25A       -0.4030   -0.8280   -1.4880 hc        1 PDY      0.045700
     30 H26         1.9040   -1.2180   -0.6910 hc        1 PDY      0.052200
     31 H26A        1.6990    0.5210   -1.1550 hc        1 PDY      0.052200
     32 H23         2.9590    0.1770    1.0240 h1        1 PDY      0.028200
     33 H23A        1.4910    1.2480    1.1350 h1        1 PDY      0.028200
     34 HN12        1.6240   -0.3510    2.9220 hn        1 PDY      0.366800
     35 H22        -0.6620   -0.0160    2.2490 h1        1 PDY      0.034200
     36 H22A       -0.2900   -1.7260    2.7710 h1        1 PDY      0.034200
     37 H15        -0.0360   -2.4450    0.3940 h1        1 PDY      0.103700
     38 HN10       -2.5160   -0.8310    0.5850 hn        1 PDY      0.409800
     39 H14        -4.5680   -0.6990    1.2920 hc        1 PDY      0.053700
     40 H14A       -5.9300   -1.7520    0.7600 hc        1 PDY      0.053700
     41 H14B       -4.5660   -1.4320   -0.3750 hc        1 PDY      0.053700
     42 H8         -0.9910   -6.3340    2.9250 ha        1 PDY      0.178000
     43 H11        -3.2550   -7.7610    3.6060 h4        1 PDY      0.050800
     44 HN9        -6.4570   -4.3650    2.6950 hn        1 PDY      0.417800
     45 H17        -8.3740   -5.4740    1.9690 ha        1 PDY      0.141000
     46 H20        -9.7100   -6.3110    0.0510 ha        1 PDY      0.145500
     47 H18        -5.4990   -3.7570   -0.8110 ha        1 PDY      0.141000
     48 H19        -6.8220   -4.6090   -2.7050 ha        1 PDY      0.145500
     49 H24        -7.7240   -6.3260   -3.8940 h1        1 PDY      0.037700
     50 H24A       -8.6640   -4.7560   -4.0020 h1        1 PDY      0.037700
     51 H27        -9.4710   -6.4210   -5.7110 hc        1 PDY      0.049033
     52 H27A       -9.8410   -7.6130   -4.3870 hc        1 PDY      0.049033
     53 H27B      -10.7710   -6.0640   -4.4880 hc        1 PDY      0.049033
@<TRIPOS>BOND
     1    1    2 1   
     2    1    6 1   
     3    1   28 1   
     4    1   29 1   
     5    2    3 1   
     6    2   30 1   
     7    2   31 1   
     8    3    4 1   
     9    3   32 1   
    10    3   33 1   
    11    4    5 1   
    12    4   34 1   
    13    5    6 1   
    14    5   35 1   
    15    5   36 1   
    16    6    7 1   
    17    6   37 1   
    18    7    8 1   
    19    7   38 1   
    20    8    9 1   
    21    8   11 2   
    22    9   10 1   
    23    9   17 2   
    24   10   39 1   
    25   10   40 1   
    26   10   41 1   
    27   11   12 1   
    28   12   13 2   
    29   12   16 1   
    30   13   14 1   
    31   13   42 1   
    32   14   15 2   
    33   14   43 1   
    34   15   16 1   
    35   16   17 1   
    36   17   18 1   
    37   18   19 1   
    38   18   44 1   
    39   19   20 ar  
    40   19   22 ar  
    41   20   21 ar  
    42   20   45 1   
    43   21   24 ar  
    44   21   46 1   
    45   22   23 ar  
    46   22   47 1   
    47   23   24 ar  
    48   23   48 1   
    49   24   25 1   
    50   25   26 1   
    51   26   27 1   
    52   26   49 1   
    53   26   50 1   
    54   27   51 1   
    55   27   52 1   
    56   27   53 1   
@<TRIPOS>SUBSTRUCTURE
     1 PDY         1 TEMP              0 ****  ****    0 ROOT
