@<TRIPOS>MOLECULE
PDY
   53    56     1     0     0
SMALL
bcc


@<TRIPOS>ATOM
      1 C25        -4.7130   -1.2680   -1.9080 c3        1 PDY     -0.082400
      2 C26        -6.0780   -0.7770   -2.3420 c3        1 PDY     -0.114400
      3 C23        -7.0190   -0.6490   -1.1430 c3        1 PDY      0.147800
      4 N12        -6.4970    0.1210   -0.0320 n3        1 PDY     -0.794200
      5 C22        -5.1630   -0.2820    0.3570 c3        1 PDY      0.125800
      6 C15        -4.1400   -0.3440   -0.8170 c3        1 PDY      0.166500
      7 N10        -2.8170   -0.7850   -0.4160 nh        1 PDY     -0.826900
      8 C4         -1.9640    0.0470    0.3230 cc        1 PDY      0.671200
      9 C3         -0.7270   -0.5540    0.8560 cc        1 PDY     -0.247600
     10 C14        -0.5140   -2.0130    0.7120 c3        1 PDY     -0.045800
     11 N6         -2.2530    1.3540    0.4570 nd        1 PDY     -0.718000
     12 C5         -1.3280    2.1420    1.0850 cd        1 PDY      0.402500
     13 C8         -1.3170    3.5270    1.3910 cc        1 PDY     -0.333600
     14 C11        -0.0720    3.7450    2.0720 cc        1 PDY      0.384500
     15 N7          0.6530    2.5990    2.1910 nd        1 PDY     -0.584100
     16 N2         -0.0750    1.6340    1.6010 na        1 PDY     -0.004800
     17 C1          0.2140    0.2590    1.4840 cd        1 PDY      0.231300
     18 N9          1.4150   -0.2650    2.0490 nh        1 PDY     -0.584000
     19 C13         2.5630   -0.2990    1.2080 ca        1 PDY      0.079600
     20 C17         3.8460   -0.1050    1.7740 ca        1 PDY     -0.124000
     21 C20         4.9870   -0.2430    1.0000 ca        1 PDY     -0.157000
     22 C18         2.4680   -0.6170   -0.1590 ca        1 PDY     -0.124000
     23 C19         3.6120   -0.7500   -0.9420 ca        1 PDY     -0.157000
     24 C16         4.8720   -0.5670   -0.3650 ca        1 PDY      0.111100
     25 O21         6.0740   -0.6800   -1.0360 os        1 PDY     -0.329900
     26 C24         5.9830   -0.9550   -2.4400 c3        1 PDY      0.128400
     27 C27         7.4060   -0.9940   -2.9490 c3        1 PDY     -0.100100
     28 H25        -4.8010   -2.3150   -1.5140 hc        1 PDY      0.047700
     29 H25A       -4.0230   -1.2920   -2.7900 hc        1 PDY      0.047700
     30 H26        -5.9780    0.2140   -2.8560 hc        1 PDY      0.048700
     31 H26A       -6.5180   -1.4970   -3.0790 hc        1 PDY      0.048700
     32 H23        -7.9850   -0.1790   -1.4770 h1        1 PDY      0.052700
     33 H23A       -7.2530   -1.6810   -0.7560 h1        1 PDY      0.052700
     34 HN12       -6.5030    1.1000   -0.2610 hn        1 PDY      0.356800
     35 H22        -4.7930    0.4390    1.1370 h1        1 PDY      0.059700
     36 H22A       -5.2400   -1.3030    0.8260 h1        1 PDY      0.059700
     37 H15        -4.0410    0.6910   -1.2610 h1        1 PDY      0.086700
     38 HN10       -2.7860   -1.7440   -0.1360 hn        1 PDY      0.411800
     39 H14        -0.5230   -2.3020   -0.3700 hc        1 PDY      0.054033
     40 H14A        0.4620   -2.3510    1.1390 hc        1 PDY      0.054033
     41 H14B       -1.3240   -2.5750    1.2430 hc        1 PDY      0.054033
     42 H8         -2.0860    4.2520    1.1590 ha        1 PDY      0.177000
     43 H11         0.3050    4.6910    2.4670 h4        1 PDY      0.050800
     44 HN9         1.6230    0.1450    2.9440 hn        1 PDY      0.417800
     45 H17         3.9510    0.1590    2.8380 ha        1 PDY      0.141000
     46 H20         5.9860   -0.0970    1.4380 ha        1 PDY      0.145500
     47 H18         1.4800   -0.7660   -0.6250 ha        1 PDY      0.141000
     48 H19         3.5050   -0.9970   -2.0070 ha        1 PDY      0.145500
     49 H24         5.4710   -1.9420   -2.5920 h1        1 PDY      0.037700
     50 H24A        5.3930   -0.1440   -2.9420 h1        1 PDY      0.037700
     51 H27         7.9100   -0.0140   -2.7720 hc        1 PDY      0.049367
     52 H27A        7.9870   -1.7880   -2.4220 hc        1 PDY      0.049367
     53 H27B        7.3960   -1.2100   -4.0430 hc        1 PDY      0.049367
@<TRIPOS>BOND
     1    1    2 1   
     2    1    6 1   
     3    1   28 1   
     4    1   29 1   
     5    2    3 1   
     6    2   30 1   
     7    2   31 1   
     8    3    4 1   
     9    3   32 1   
    10    3   33 1   
    11    4    5 1   
    12    4   34 1   
    13    5    6 1   
    14    5   35 1   
    15    5   36 1   
    16    6    7 1   
    17    6   37 1   
    18    7    8 1   
    19    7   38 1   
    20    8    9 1   
    21    8   11 2   
    22    9   10 1   
    23    9   17 2   
    24   10   39 1   
    25   10   40 1   
    26   10   41 1   
    27   11   12 1   
    28   12   13 2   
    29   12   16 1   
    30   13   14 1   
    31   13   42 1   
    32   14   15 2   
    33   14   43 1   
    34   15   16 1   
    35   16   17 1   
    36   17   18 1   
    37   18   19 1   
    38   18   44 1   
    39   19   20 ar  
    40   19   22 ar  
    41   20   21 ar  
    42   20   45 1   
    43   21   24 ar  
    44   21   46 1   
    45   22   23 ar  
    46   22   47 1   
    47   23   24 ar  
    48   23   48 1   
    49   24   25 1   
    50   25   26 1   
    51   26   27 1   
    52   26   49 1   
    53   26   50 1   
    54   27   51 1   
    55   27   52 1   
    56   27   53 1   
@<TRIPOS>SUBSTRUCTURE
     1 PDY         1 TEMP              0 ****  ****    0 ROOT
