@<TRIPOS>MOLECULE
PDY
   53    56     1     0     0
SMALL
bcc


@<TRIPOS>ATOM
      1 C25        -0.1100   -0.4560   -0.4660 c3        1 PDY     -0.083400
      2 C26         1.3890   -0.2640   -0.4020 c3        1 PDY     -0.077400
      3 C23         1.8290    0.1840    0.9900 c3        1 PDY      0.161800
      4 N12         1.3490   -0.6960    2.0360 n3        1 PDY     -0.815200
      5 C22        -0.0770   -0.9370    2.0010 c3        1 PDY      0.136800
      6 C15        -0.5530   -1.4590    0.6140 c3        1 PDY      0.204500
      7 N10        -1.9880   -1.6740    0.5450 nh        1 PDY     -0.832900
      8 C4         -2.6020   -2.7570    1.1900 cc        1 PDY      0.671200
      9 C3         -4.0780   -2.7790    1.2160 cc        1 PDY     -0.247600
     10 C14        -4.8260   -1.6140    0.6930 c3        1 PDY     -0.045800
     11 N6         -1.8520   -3.7560    1.6870 nd        1 PDY     -0.710000
     12 C5         -2.5090   -4.8410    2.2010 cd        1 PDY      0.402500
     13 C8         -2.0350   -6.0380    2.7960 cc        1 PDY     -0.331600
     14 C11        -3.2200   -6.7710    3.1440 cc        1 PDY      0.383500
     15 N7         -4.3540   -6.1010    2.8020 nd        1 PDY     -0.586100
     16 N2         -3.9520   -4.9530    2.2310 na        1 PDY     -0.005800
     17 C1         -4.7370   -3.8940    1.7320 cd        1 PDY      0.230300
     18 N9         -6.1600   -3.9630    1.8140 nh        1 PDY     -0.584000
     19 C13        -6.8440   -4.5390    0.7080 ca        1 PDY      0.080600
     20 C17        -8.0350   -5.2710    0.9290 ca        1 PDY     -0.125000
     21 C20        -8.7810   -5.7470   -0.1370 ca        1 PDY     -0.157000
     22 C18        -6.4220   -4.3200   -0.6170 ca        1 PDY     -0.125000
     23 C19        -7.1650   -4.8030   -1.6910 ca        1 PDY     -0.157000
     24 C16        -8.3450   -5.5140   -1.4550 ca        1 PDY      0.110100
     25 O21        -9.1670   -6.0320   -2.4360 os        1 PDY     -0.329900
     26 C24        -8.7140   -5.8630   -3.7850 c3        1 PDY      0.128400
     27 C27        -9.7430   -6.5430   -4.6580 c3        1 PDY     -0.100100
     28 H25        -0.6220    0.5300   -0.3110 hc        1 PDY      0.045700
     29 H25A       -0.3980   -0.8350   -1.4810 hc        1 PDY      0.045700
     30 H26         1.7030    0.5150   -1.1440 hc        1 PDY      0.052200
     31 H26A        1.9060   -1.2220   -0.6720 hc        1 PDY      0.052200
     32 H23         1.4850    1.2510    1.1420 h1        1 PDY      0.028200
     33 H23A        2.9540    0.1800    1.0410 h1        1 PDY      0.028200
     34 HN12        1.6120   -0.3410    2.9360 hn        1 PDY      0.366800
     35 H22        -0.3010   -1.7160    2.7820 h1        1 PDY      0.034200
     36 H22A       -0.6710   -0.0080    2.2530 h1        1 PDY      0.034200
     37 H15        -0.0380   -2.4440    0.4100 h1        1 PDY      0.103700
     38 HN10       -2.5190   -0.8290    0.5840 hn        1 PDY      0.409800
     39 H14        -5.9340   -1.7510    0.7480 hc        1 PDY      0.053700
     40 H14A       -4.5650   -1.4340   -0.3820 hc        1 PDY      0.053700
     41 H14B       -4.5740   -0.6960    1.2830 hc        1 PDY      0.053700
     42 H8         -1.0030   -6.3250    2.9500 ha        1 PDY      0.178000
     43 H11        -3.2690   -7.7500    3.6250 h4        1 PDY      0.050800
     44 HN9        -6.4690   -4.3590    2.6870 hn        1 PDY      0.417800
     45 H17        -8.3830   -5.4700    1.9550 ha        1 PDY      0.141000
     46 H20        -9.7090   -6.3120    0.0330 ha        1 PDY      0.145500
     47 H18        -5.4940   -3.7600   -0.8160 ha        1 PDY      0.141000
     48 H19        -6.8080   -4.6170   -2.7130 ha        1 PDY      0.145500
     49 H24        -8.6430   -4.7680   -4.0190 h1        1 PDY      0.037700
     50 H24A       -7.7040   -6.3380   -3.9030 h1        1 PDY      0.037700
     51 H27        -9.4410   -6.4380   -5.7280 hc        1 PDY      0.049033
     52 H27A       -9.8180   -7.6270   -4.4020 hc        1 PDY      0.049033
     53 H27B      -10.7470   -6.0780   -4.5130 hc        1 PDY      0.049033
@<TRIPOS>BOND
     1    1    2 1   
     2    1    6 1   
     3    1   28 1   
     4    1   29 1   
     5    2    3 1   
     6    2   30 1   
     7    2   31 1   
     8    3    4 1   
     9    3   32 1   
    10    3   33 1   
    11    4    5 1   
    12    4   34 1   
    13    5    6 1   
    14    5   35 1   
    15    5   36 1   
    16    6    7 1   
    17    6   37 1   
    18    7    8 1   
    19    7   38 1   
    20    8    9 1   
    21    8   11 2   
    22    9   10 1   
    23    9   17 2   
    24   10   39 1   
    25   10   40 1   
    26   10   41 1   
    27   11   12 1   
    28   12   13 2   
    29   12   16 1   
    30   13   14 1   
    31   13   42 1   
    32   14   15 2   
    33   14   43 1   
    34   15   16 1   
    35   16   17 1   
    36   17   18 1   
    37   18   19 1   
    38   18   44 1   
    39   19   20 ar  
    40   19   22 ar  
    41   20   21 ar  
    42   20   45 1   
    43   21   24 ar  
    44   21   46 1   
    45   22   23 ar  
    46   22   47 1   
    47   23   24 ar  
    48   23   48 1   
    49   24   25 1   
    50   25   26 1   
    51   26   27 1   
    52   26   49 1   
    53   26   50 1   
    54   27   51 1   
    55   27   52 1   
    56   27   53 1   
@<TRIPOS>SUBSTRUCTURE
     1 PDY         1 TEMP              0 ****  ****    0 ROOT
