@<TRIPOS>MOLECULE
PDY
   55    58     1     0     0
SMALL
bcc


@<TRIPOS>ATOM
      1 C25         0.7140   -0.6720   -0.0840 c3        1 PDY     -0.104400
      2 C26         1.7160   -0.0690    0.8860 c3        1 PDY     -0.080400
      3 C23         1.0300    0.8070    1.9320 c3        1 PDY      0.148800
      4 N12        -0.0650    0.1240    2.5970 n3        1 PDY     -0.823200
      5 C22        -1.0480   -0.4220    1.6940 c3        1 PDY      0.168800
      6 C15        -0.3560   -1.4170    0.7220 c3        1 PDY      0.114500
      7 N10        -1.3650   -2.0660   -0.2080 n4        1 PDY     -0.751700
      8 C4         -2.1630   -3.1320    0.4410 cc        1 PDY      0.487200
      9 C3         -3.5820   -2.9020    0.7200 cc        1 PDY     -0.172600
     10 C14        -4.1900   -1.6070    0.3440 c3        1 PDY     -0.094800
     11 N6         -1.5100   -4.2610    0.7130 nd        1 PDY     -0.536000
     12 C5         -2.2030   -5.2670    1.3110 cd        1 PDY      0.341500
     13 C8         -1.8470   -6.5640    1.7520 cc        1 PDY     -0.172600
     14 C11        -3.0540   -7.1120    2.3130 cc        1 PDY      0.427500
     15 N7         -4.0980   -6.2380    2.2340 nd        1 PDY     -0.529100
     16 N2         -3.6300   -5.1340    1.6450 na        1 PDY      0.024200
     17 C1         -4.2870   -3.9460    1.3240 cd        1 PDY      0.129300
     18 N9         -5.7340   -3.8620    1.6420 n4        1 PDY     -0.487800
     19 C13        -6.5860   -4.4970    0.6320 ca        1 PDY     -0.158400
     20 C17        -7.0790   -5.8020    0.8620 ca        1 PDY     -0.046000
     21 C20        -7.9290   -6.3810   -0.0590 ca        1 PDY     -0.176500
     22 C18        -6.9450   -3.7910   -0.5320 ca        1 PDY     -0.046000
     23 C19        -7.8000   -4.3710   -1.4540 ca        1 PDY     -0.176500
     24 C16        -8.3030   -5.6700   -1.2290 ca        1 PDY      0.231100
     25 O21        -9.1410   -6.3350   -2.0580 os        1 PDY     -0.289900
     26 C24        -9.5970   -5.6480   -3.2490 c3        1 PDY      0.126400
     27 C27       -10.5280   -6.6190   -3.9340 c3        1 PDY     -0.109100
     28 H25         1.2500   -1.3720   -0.7780 hc        1 PDY      0.070200
     29 H25A        0.2460    0.1440   -0.6960 hc        1 PDY      0.070200
     30 H26         2.4460    0.5610    0.3110 hc        1 PDY      0.086200
     31 H26A        2.2950   -0.8860    1.3900 hc        1 PDY      0.086200
     32 H23         0.6900    1.7630    1.4350 h1        1 PDY      0.068200
     33 H23A        1.7800    1.0790    2.7290 h1        1 PDY      0.068200
     34 HN12       -0.4960    0.7050    3.2910 hn        1 PDY      0.409800
     35 H22        -1.8190   -0.9650    2.3090 h1        1 PDY      0.034700
     36 H22A       -1.5750    0.3670    1.0760 h1        1 PDY      0.034700
     37 H15         0.1360   -2.2470    1.3140 hx        1 PDY      0.143700
     38 HN10       -0.8390   -2.4770   -0.9980 hn        1 PDY      0.469300
     39 H14        -3.6230   -0.7570    0.8120 hc        1 PDY      0.081700
     40 H14A       -4.1840   -1.4850   -0.7720 hc        1 PDY      0.081700
     41 H14B       -5.2530   -1.4780    0.6640 hc        1 PDY      0.081700
     42 H8         -0.8670   -7.0390    1.6850 ha        1 PDY      0.230000
     43 H11        -3.1830   -8.1060    2.7670 h4        1 PDY      0.109800
     44 HN9        -5.9940   -2.8690    1.7250 hn        1 PDY      0.481800
     45 H17        -6.8080   -6.3680    1.7700 ha        1 PDY      0.154000
     46 H20        -8.3350   -7.3950    0.1020 ha        1 PDY      0.187000
     47 H18        -6.5650   -2.7730   -0.7210 ha        1 PDY      0.154000
     48 H19        -8.0890   -3.8080   -2.3570 ha        1 PDY      0.187000
     49 H24       -10.1270   -4.7090   -2.9430 h1        1 PDY      0.054200
     50 H24A       -8.7060   -5.4060   -3.8850 h1        1 PDY      0.054200
     51 H27       -10.9160   -6.1430   -4.8680 hc        1 PDY      0.071033
     52 H27A       -9.9910   -7.5620   -4.1990 hc        1 PDY      0.071033
     53 H27B      -11.3880   -6.8770   -3.2700 hc        1 PDY      0.071033
     54 H102       -1.9970   -1.3480   -0.5810 hn        1 PDY      0.469300
     55 H92        -5.9150   -4.3210    2.5540 hn        1 PDY      0.481800
@<TRIPOS>BOND
     1    1    2 1   
     2    1    6 1   
     3    1   28 1   
     4    1   29 1   
     5    2    3 1   
     6    2   30 1   
     7    2   31 1   
     8    3    4 1   
     9    3   32 1   
    10    3   33 1   
    11    4    5 1   
    12    4   34 1   
    13    5    6 1   
    14    5   35 1   
    15    5   36 1   
    16    6    7 1   
    17    6   37 1   
    18    7    8 1   
    19    7   38 1   
    20    7   54 1   
    21    8    9 1   
    22    8   11 2   
    23    9   10 1   
    24    9   17 2   
    25   10   39 1   
    26   10   40 1   
    27   10   41 1   
    28   11   12 1   
    29   12   13 2   
    30   12   16 1   
    31   13   14 1   
    32   13   42 1   
    33   14   15 2   
    34   14   43 1   
    35   15   16 1   
    36   16   17 1   
    37   17   18 1   
    38   18   19 1   
    39   18   44 1   
    40   18   55 1   
    41   19   20 ar  
    42   19   22 ar  
    43   20   21 ar  
    44   20   45 1   
    45   21   24 ar  
    46   21   46 1   
    47   22   23 ar  
    48   22   47 1   
    49   23   24 ar  
    50   23   48 1   
    51   24   25 1   
    52   25   26 1   
    53   26   27 1   
    54   26   49 1   
    55   26   50 1   
    56   27   51 1   
    57   27   52 1   
    58   27   53 1   
@<TRIPOS>SUBSTRUCTURE
     1 PDY         1 TEMP              0 ****  ****    0 ROOT
