@<TRIPOS>MOLECULE
PDZ
   35    37     1     0     0
SMALL
bcc


@<TRIPOS>ATOM
      1 C1          0.7310    0.2360    0.1080 ca        1 PDZ     -0.101500
      2 C2          2.0820    0.0890    0.4180 ca        1 PDZ     -0.154000
      3 C3          2.4880   -0.0160    1.7500 ca        1 PDZ     -0.101500
      4 C4          1.5520    0.0210    2.7800 ca        1 PDZ     -0.161000
      5 C5          0.1950    0.1720    2.4510 ca        1 PDZ      0.112100
      6 C6         -0.2260    0.2810    1.1220 ca        1 PDZ     -0.161000
      7 O7         -0.6630    0.2540    3.5500 os        1 PDZ     -0.235200
      8 C8         -2.0170    0.0910    3.2880 ca        1 PDZ      0.059100
      9 C9         -2.5980   -1.1710    3.0930 ca        1 PDZ      0.027400
     10 C10        -3.9890   -1.2810    2.9830 ca        1 PDZ     -0.132000
     11 C11        -4.7920   -0.1490    3.0750 ca        1 PDZ     -0.090000
     12 C12        -4.2400    1.1190    3.2770 ca        1 PDZ     -0.111300
     13 C13        -2.8380    1.2420    3.3790 ca        1 PDZ      0.134900
     14 C14        -5.1240    2.3120    3.3990 c3        1 PDZ     -0.052400
     15 Cl15       -1.6500   -2.5710    2.9900 cl        1 PDZ     -0.053400
     16 F16        -2.2660    2.4520    3.5750 f         1 PDZ     -0.123900
     17 C17        -5.4830    2.8700    2.0510 cc        1 PDZ      0.320600
     18 C18        -4.5420    3.7840    1.4210 cc        1 PDZ     -0.165600
     19 C19        -4.8500    4.3060    0.2090 cd        1 PDZ     -0.213200
     20 C20        -6.1170    3.9400   -0.4390 c         1 PDZ      0.660700
     21 N21        -6.9310    3.0350    0.2960 ns        1 PDZ     -0.284900
     22 N22        -6.6330    2.5280    1.4710 nd        1 PDZ     -0.419300
     23 O23        -6.5210    4.3450   -1.5420 o         1 PDZ     -0.613500
     24 H1          0.4120    0.3190   -0.9420 ha        1 PDZ      0.135500
     25 H2          2.8300    0.0560   -0.3870 ha        1 PDZ      0.135000
     26 H3          3.5550   -0.1320    1.9920 ha        1 PDZ      0.135500
     27 H4          1.8530   -0.0610    3.8330 ha        1 PDZ      0.147000
     28 H6         -1.2920    0.3960    0.8810 ha        1 PDZ      0.147000
     29 H10        -4.4500   -2.2690    2.8270 ha        1 PDZ      0.157000
     30 H11        -5.8870   -0.2490    2.9870 ha        1 PDZ      0.154000
     31 H14        -4.5990    3.1190    3.9810 hc        1 PDZ      0.077200
     32 H14A       -6.0480    2.0300    3.9740 hc        1 PDZ      0.077200
     33 H18        -3.6050    4.0140    1.9500 ha        1 PDZ      0.161000
     34 H19        -4.2040    5.0020   -0.3430 ha        1 PDZ      0.171000
     35 HN21       -7.8130    2.7420   -0.0830 hn        1 PDZ      0.359500
@<TRIPOS>BOND
     1    1    2 ar  
     2    1    6 ar  
     3    1   24 1   
     4    2    3 ar  
     5    2   25 1   
     6    3    4 ar  
     7    3   26 1   
     8    4    5 ar  
     9    4   27 1   
    10    5    6 ar  
    11    5    7 1   
    12    6   28 1   
    13    7    8 1   
    14    8    9 ar  
    15    8   13 ar  
    16    9   10 ar  
    17    9   15 1   
    18   10   11 ar  
    19   10   29 1   
    20   11   12 ar  
    21   11   30 1   
    22   12   13 ar  
    23   12   14 1   
    24   13   16 1   
    25   14   17 1   
    26   14   31 1   
    27   14   32 1   
    28   17   18 1   
    29   17   22 2   
    30   18   19 2   
    31   18   33 1   
    32   19   20 1   
    33   19   34 1   
    34   20   21 1   
    35   20   23 2   
    36   21   22 1   
    37   21   35 1   
@<TRIPOS>SUBSTRUCTURE
     1 PDZ         1 TEMP              0 ****  ****    0 ROOT
