@<TRIPOS>MOLECULE
PDZ
   35    37     1     0     0
SMALL
bcc


@<TRIPOS>ATOM
      1 C1          2.3280   -3.1350    0.5200 ca        1 PDZ     -0.101500
      2 C2          3.4660   -3.6770   -0.0760 ca        1 PDZ     -0.154000
      3 C3          4.1820   -2.9380   -1.0200 ca        1 PDZ     -0.101500
      4 C4          3.7720   -1.6550   -1.3730 ca        1 PDZ     -0.161000
      5 C5          2.6210   -1.1250   -0.7660 ca        1 PDZ      0.112100
      6 C6          1.8940   -1.8540    0.1790 ca        1 PDZ     -0.161000
      7 O7          2.2560    0.1430   -1.2240 os        1 PDZ     -0.235200
      8 C8          1.3330    0.8350   -0.4500 ca        1 PDZ      0.059100
      9 C9          1.6910    1.5050    0.7290 ca        1 PDZ      0.027400
     10 C10         0.7470    2.3060    1.3810 ca        1 PDZ     -0.132000
     11 C11        -0.5350    2.4460    0.8610 ca        1 PDZ     -0.091000
     12 C12        -0.9150    1.7960   -0.3160 ca        1 PDZ     -0.111300
     13 C13         0.0250    0.9770   -0.9760 ca        1 PDZ      0.134900
     14 C14        -2.2870    1.9830   -0.8680 c3        1 PDZ     -0.052400
     15 CL15        3.2480    1.3670    1.3820 cl        1 PDZ     -0.053400
     16 F16        -0.3060    0.3320   -2.1180 f         1 PDZ     -0.123900
     17 C17        -3.2690    1.0420   -0.2310 cc        1 PDZ      0.320600
     18 C18        -3.3690   -0.3050   -0.7720 cc        1 PDZ     -0.165600
     19 C19        -4.2550   -1.1680   -0.2180 cd        1 PDZ     -0.213200
     20 C20        -5.0880   -0.7290    0.9090 c         1 PDZ      0.660700
     21 N21        -4.8760    0.6120    1.3300 n         1 PDZ     -0.284900
     22 N22        -4.0170    1.4500    0.7940 nd        1 PDZ     -0.419300
     23 O23        -5.9360   -1.4140    1.5050 o         1 PDZ     -0.613500
     24 H1          1.7640   -3.7180    1.2630 ha        1 PDZ      0.135500
     25 H2          3.8010   -4.6880    0.1970 ha        1 PDZ      0.135000
     26 H3          5.0800   -3.3680   -1.4880 ha        1 PDZ      0.135500
     27 H4          4.3230   -1.0600   -2.1140 ha        1 PDZ      0.147000
     28 H6          0.9970   -1.4240    0.6460 ha        1 PDZ      0.147000
     29 H10         1.0240    2.8330    2.3090 ha        1 PDZ      0.157000
     30 H11        -1.2690    3.0810    1.3830 ha        1 PDZ      0.154000
     31 H14        -2.6030    3.0520   -0.7170 hc        1 PDZ      0.077200
     32 H14A       -2.2850    1.7870   -1.9760 hc        1 PDZ      0.077200
     33 H18        -2.7120   -0.5790   -1.6120 ha        1 PDZ      0.161000
     34 H19        -4.4000   -2.2020   -0.5580 ha        1 PDZ      0.171000
     35 HN21       -5.4120    0.9830    2.0940 hn        1 PDZ      0.359500
@<TRIPOS>BOND
     1    1    2 ar  
     2    1    6 ar  
     3    1   24 1   
     4    2    3 ar  
     5    2   25 1   
     6    3    4 ar  
     7    3   26 1   
     8    4    5 ar  
     9    4   27 1   
    10    5    6 ar  
    11    5    7 1   
    12    6   28 1   
    13    7    8 1   
    14    8    9 ar  
    15    8   13 ar  
    16    9   10 ar  
    17    9   15 1   
    18   10   11 ar  
    19   10   29 1   
    20   11   12 ar  
    21   11   30 1   
    22   12   13 ar  
    23   12   14 1   
    24   13   16 1   
    25   14   17 1   
    26   14   31 1   
    27   14   32 1   
    28   17   18 1   
    29   17   22 2   
    30   18   19 2   
    31   18   33 1   
    32   19   20 1   
    33   19   34 1   
    34   20   21 1   
    35   20   23 2   
    36   21   22 1   
    37   21   35 1   
@<TRIPOS>SUBSTRUCTURE
     1 PDZ         1 TEMP              0 ****  ****    0 ROOT
