@<TRIPOS>MOLECULE
PDZ
   35    37     1     0     0
SMALL
bcc


@<TRIPOS>ATOM
      1 C1          0.6860    0.1440    0.0750 ca        1 PDZ     -0.101500
      2 C2          2.0370   -0.0290    0.3690 ca        1 PDZ     -0.154000
      3 C3          2.4580   -0.1310    1.6970 ca        1 PDZ     -0.101500
      4 C4          1.5360   -0.0630    2.7380 ca        1 PDZ     -0.161000
      5 C5          0.1780    0.1160    2.4250 ca        1 PDZ      0.112100
      6 C6         -0.2560    0.2210    1.1000 ca        1 PDZ     -0.161000
      7 O7         -0.6620    0.2280    3.5340 os        1 PDZ     -0.235200
      8 C8         -2.0230    0.0910    3.2920 ca        1 PDZ      0.059100
      9 C9         -2.6340   -1.1600    3.1170 ca        1 PDZ      0.027400
     10 C10        -4.0290   -1.2400    3.0250 ca        1 PDZ     -0.132000
     11 C11        -4.8060   -0.0900    3.1160 ca        1 PDZ     -0.091000
     12 C12        -4.2230    1.1670    3.2970 ca        1 PDZ     -0.111300
     13 C13        -2.8180    1.2610    3.3800 ca        1 PDZ      0.134900
     14 C14        -5.0790    2.3810    3.4190 c3        1 PDZ     -0.052400
     15 CL15       -1.7180   -2.5810    3.0160 cl        1 PDZ     -0.053400
     16 F16        -2.2170    2.4600    3.5570 f         1 PDZ     -0.123900
     17 C17        -5.4440    2.9330    2.0700 cc        1 PDZ      0.320600
     18 C18        -4.4920    3.8200    1.4180 cc        1 PDZ     -0.165600
     19 C19        -4.8050    4.3360    0.2050 cd        1 PDZ     -0.213200
     20 C20        -6.0880    3.9910   -0.4220 c         1 PDZ      0.660700
     21 N21        -6.9110    3.1110    0.3320 n         1 PDZ     -0.284900
     22 N22        -6.6090    2.6100    1.5090 nd        1 PDZ     -0.419300
     23 O23        -6.4970    4.3930   -1.5240 o         1 PDZ     -0.613500
     24 H1          0.3550    0.2240   -0.9720 ha        1 PDZ      0.135500
     25 H2          2.7740   -0.0870   -0.4450 ha        1 PDZ      0.135000
     26 H3          3.5250   -0.2680    1.9260 ha        1 PDZ      0.135500
     27 H4          1.8490   -0.1410    3.7880 ha        1 PDZ      0.147000
     28 H6         -1.3230    0.3570    0.8720 ha        1 PDZ      0.147000
     29 H10        -4.5120   -2.2200    2.8860 ha        1 PDZ      0.157000
     30 H11        -5.9030   -0.1670    3.0430 ha        1 PDZ      0.154000
     31 H14        -4.5300    3.1830    3.9860 hc        1 PDZ      0.077200
     32 H14A       -6.0020    2.1250    4.0080 hc        1 PDZ      0.077200
     33 H18        -3.5430    4.0350    1.9330 ha        1 PDZ      0.161000
     34 H19        -4.1520    5.0130   -0.3620 ha        1 PDZ      0.171000
     35 HN21       -7.8040    2.8330   -0.0320 hn        1 PDZ      0.359500
@<TRIPOS>BOND
     1    1    2 ar  
     2    1    6 ar  
     3    1   24 1   
     4    2    3 ar  
     5    2   25 1   
     6    3    4 ar  
     7    3   26 1   
     8    4    5 ar  
     9    4   27 1   
    10    5    6 ar  
    11    5    7 1   
    12    6   28 1   
    13    7    8 1   
    14    8    9 ar  
    15    8   13 ar  
    16    9   10 ar  
    17    9   15 1   
    18   10   11 ar  
    19   10   29 1   
    20   11   12 ar  
    21   11   30 1   
    22   12   13 ar  
    23   12   14 1   
    24   13   16 1   
    25   14   17 1   
    26   14   31 1   
    27   14   32 1   
    28   17   18 1   
    29   17   22 2   
    30   18   19 2   
    31   18   33 1   
    32   19   20 1   
    33   19   34 1   
    34   20   21 1   
    35   20   23 2   
    36   21   22 1   
    37   21   35 1   
@<TRIPOS>SUBSTRUCTURE
     1 PDZ         1 TEMP              0 ****  ****    0 ROOT
