@<TRIPOS>MOLECULE
PE0
   17    18     1     0     0
SMALL
bcc


@<TRIPOS>ATOM
      1 C1         -0.5570   -0.0000   -0.5890 ca        1 PE0      0.164500
      2 C4         -1.4250   -0.0110    0.6120 c         1 PE0      0.622000
      3 O4         -2.6630   -0.0170    0.6290 o         1 PE0     -0.576500
      4 N2         -0.7550   -0.0040    1.8530 n         1 PE0     -0.512400
      5 C3          0.6510   -0.0300    1.9290 cc        1 PE0      0.692800
      6 N6          1.2280   -0.1610    3.2080 nh        1 PE0     -0.894800
      7 N1          1.4640    0.0080    0.8570 nd        1 PE0     -0.739700
      8 C2          0.8760    0.0040   -0.4070 ca        1 PE0      0.568000
      9 N3          1.7100    0.0130   -1.5170 nb        1 PE0     -0.624000
     10 C6          1.1130    0.0150   -2.7040 ca        1 PE0      0.333900
     11 C5         -0.3100    0.0080   -2.8680 ca        1 PE0      0.243900
     12 N4         -1.1380    0.0000   -1.8230 nb        1 PE0     -0.552000
     13 HN2        -1.3130   -0.0700    2.6770 hn        1 PE0      0.338500
     14 HN61        2.2220   -0.0780    3.2350 hn        1 PE0      0.427800
     15 HN62        0.7510    0.2940    3.9540 hn        1 PE0      0.427800
     16 H6          1.7790    0.0210   -3.5860 h4        1 PE0      0.039100
     17 H5         -0.7690    0.0090   -3.8700 h4        1 PE0      0.042100
@<TRIPOS>BOND
     1    1    2 1   
     2    1    8 ar  
     3    1   12 ar  
     4    2    3 2   
     5    2    4 1   
     6    4    5 1   
     7    4   13 1   
     8    5    6 1   
     9    5    7 2   
    10    6   14 1   
    11    6   15 1   
    12    7    8 1   
    13    8    9 ar  
    14    9   10 ar  
    15   10   11 ar  
    16   10   16 1   
    17   11   12 ar  
    18   11   17 1   
@<TRIPOS>SUBSTRUCTURE
     1 PE0         1 TEMP              0 ****  ****    0 ROOT
