@<TRIPOS>MOLECULE
PE0
   17    14     1     0     0
SMALL
bcc


@<TRIPOS>ATOM
      1 C1         -0.0760   -0.0100   -0.9370 cg        1 PE0      0.028800
      2 C4          1.3120   -0.0100   -0.9370 c1        1 PE0      0.822900
      3 O4          1.9190    0.0080   -1.9890 o         1 PE0     -0.534500
      4 N2          1.9840   -0.0100    0.2290 n2        1 PE0     -0.816800
      5 C3          1.3000   -0.0100    1.4170 c1        1 PE0      0.627600
      6 N6          1.7720    0.0300    2.7540 n3        1 PE0     -0.798400
      7 N1         -0.0670   -0.0100    1.4200 n1        1 PE0     -0.558800
      8 C2         -0.7530   -0.0100    0.2400 ch        1 PE0      0.028800
      9 N3         -2.1220   -0.0100    0.2420 n1        1 PE0     -0.467600
     10 C6         -2.7940   -0.0100   -0.9180 c1        1 PE0      0.272300
     11 C5         -2.1030   -0.0100   -2.1180 c1        1 PE0      0.272300
     12 N4         -0.7630   -0.0100   -2.1210 n1        1 PE0     -0.467600
     13 HN2         2.8960   -0.0100    0.2290 hn        1 PE0      0.496400
     14 HN61        1.9300   -0.7460    3.2060 hn        1 PE0      0.427800
     15 HN62        1.9270    0.8330    3.1590 hn        1 PE0      0.427800
     16 H6         -3.7700   -0.0100   -0.9160 ha        1 PE0      0.120000
     17 H5         -2.5930   -0.0100   -2.9630 ha        1 PE0      0.120000
@<TRIPOS>BOND
     1    1    8 3   
     2    1   12 1   
     3    2    3 2   
     4    2    4 2   
     5    4   13 1   
     6    5    6 1   
     7    5    7 3   
     8    6   14 1   
     9    6   15 1   
    10    8    9 1   
    11    9   10 3   
    12   10   16 1   
    13   11   12 3   
    14   11   17 1   
@<TRIPOS>SUBSTRUCTURE
     1 PE0         1 TEMP              0 ****  ****    0 ROOT
