@<TRIPOS>MOLECULE
PE0
   17    18     1     0     0
SMALL
bcc


@<TRIPOS>ATOM
      1 C1         -0.0150    0.0320   -0.0230 ca        1 PE0      0.164500
      2 C4          1.4660    0.0880   -0.0630 c         1 PE0      0.622000
      3 O4          2.1760    0.1560   -1.0750 o         1 PE0     -0.576500
      4 N2          2.1140    0.0710    1.1880 ns        1 PE0     -0.512400
      5 C3          1.3880   -0.0370    2.3910 cc        1 PE0      0.692800
      6 N6          2.1270   -0.1850    3.5820 nv        1 PE0     -0.894800
      7 N1          0.0440   -0.0610    2.4590 nd        1 PE0     -0.739700
      8 C2         -0.6690   -0.0470    1.2610 ca        1 PE0      0.568000
      9 N3         -2.0550   -0.1020    1.3250 nb        1 PE0     -0.624000
     10 C6         -2.7010   -0.0790    0.1630 ca        1 PE0      0.333900
     11 C5         -2.0360   -0.0040   -1.1030 ca        1 PE0      0.243900
     12 N4         -0.7080    0.0510   -1.1980 nb        1 PE0     -0.552000
     13 HN2         3.1110    0.0500    1.1890 hn        1 PE0      0.338500
     14 HN61        2.9900    0.3060    3.6280 hn        1 PE0      0.427800
     15 HN62        1.5860   -0.1610    4.4200 hn        1 PE0      0.427800
     16 H6         -3.8040   -0.1240    0.2170 h4        1 PE0      0.039100
     17 H5         -2.6060    0.0120   -2.0470 h4        1 PE0      0.042100
@<TRIPOS>BOND
     1    1    2 1   
     2    1    8 ar  
     3    1   12 ar  
     4    2    3 2   
     5    2    4 1   
     6    4    5 1   
     7    4   13 1   
     8    5    6 1   
     9    5    7 2   
    10    6   14 1   
    11    6   15 1   
    12    7    8 1   
    13    8    9 ar  
    14    9   10 ar  
    15   10   11 ar  
    16   10   16 1   
    17   11   12 ar  
    18   11   17 1   
@<TRIPOS>SUBSTRUCTURE
     1 PE0         1 TEMP              0 ****  ****    0 ROOT
