@<TRIPOS>MOLECULE
PE0
   18    19     1     0     0
SMALL
bcc


@<TRIPOS>ATOM
      1 C1         -0.0230    0.0020   -0.0370 ca        1 PE0      0.242500
      2 C4          1.4630    0.0030   -0.0800 c         1 PE0      0.621000
      3 O4          2.1900    0.0080   -1.0700 o         1 PE0     -0.482500
      4 N2          2.1130   -0.0020    1.1940 n         1 PE0     -0.511400
      5 C3          1.3420   -0.0080    2.3530 cc        1 PE0      0.540800
      6 N6          2.0710   -0.0130    3.6700 n4        1 PE0     -0.804600
      7 N1          0.0250   -0.0090    2.4430 nd        1 PE0     -0.607700
      8 C2         -0.6980   -0.0050    1.2310 ca        1 PE0      0.498000
      9 N3         -2.0780   -0.0060    1.3000 nb        1 PE0     -0.574000
     10 C6         -2.7210   -0.0020    0.1330 ca        1 PE0      0.340900
     11 C5         -2.0390    0.0040   -1.1320 ca        1 PE0      0.322900
     12 N4         -0.7080    0.0060   -1.2170 nb        1 PE0     -0.552000
     13 HN2         3.1110   -0.0010    1.2070 hn        1 PE0      0.356500
     14 HN61        2.6540    0.8290    3.7430 hn        1 PE0      0.486800
     15 HN62        2.6560   -0.8540    3.7350 hn        1 PE0      0.486800
     16 H6         -3.8290   -0.0030    0.1820 h4        1 PE0      0.074100
     17 H5         -2.6010    0.0080   -2.0860 h4        1 PE0      0.076100
     18 H63         1.3850   -0.0170    4.4440 hn        1 PE0      0.486800
@<TRIPOS>BOND
     1    1    2 1   
     2    1    8 ar  
     3    1   12 ar  
     4    2    3 2   
     5    2    4 1   
     6    4    5 1   
     7    4   13 1   
     8    5    6 1   
     9    5    7 2   
    10    6   14 1   
    11    6   15 1   
    12    6   18 1   
    13    7    8 1   
    14    8    9 ar  
    15    9   10 ar  
    16   10   11 ar  
    17   10   16 1   
    18   11   12 ar  
    19   11   17 1   
@<TRIPOS>SUBSTRUCTURE
     1 PE0         1 TEMP              0 ****  ****    0 ROOT
