@<TRIPOS>MOLECULE
PE1
   46    46     1     0     0
SMALL
bcc


@<TRIPOS>ATOM
      1 N1          1.4890   -3.2750   -0.0860 nb        1 PE1     -0.682000
      2 C2          0.4520   -3.2120   -0.9650 ca        1 PE1      0.288600
      3 C2A        -0.1760   -4.4690   -1.4660 c3        1 PE1     -0.102400
      4 C3         -0.0510   -1.9770   -1.4430 ca        1 PE1      0.013800
      5 O3         -1.0720   -2.0730   -2.3590 oh        1 PE1     -0.557100
      6 C4          0.5140   -0.7600   -0.9890 ca        1 PE1     -0.193300
      7 C4A         0.0230    0.5580   -1.5230 c3        1 PE1      0.198100
      8 C5          1.5660   -0.8380   -0.0710 ca        1 PE1     -0.143600
      9 C6          2.0230   -2.1270    0.3350 ca        1 PE1      0.358200
     10 C5A         2.2960    0.3580    0.4980 c3        1 PE1      0.242700
     11 O4P         2.7240    0.1620    1.7860 os        1 PE1     -0.566200
     12 P           4.4350   -0.0110    2.0220 p5        1 PE1      1.316900
     13 O1P         4.6320    0.4920    3.4240 o         1 PE1     -0.928167
     14 O2P         4.5900   -1.4990    1.8210 o         1 PE1     -0.928167
     15 O3P         5.0070    0.8480    0.9240 o         1 PE1     -0.928167
     16 N          -0.9920    1.2570   -0.7610 n3        1 PE1     -0.797200
     17 CA         -2.3380    0.6940   -0.8520 c3        1 PE1      0.052500
     18 C          -3.0020    0.9960   -2.2320 c         1 PE1      0.922600
     19 OXT        -2.6240    0.3000   -3.2230 o         1 PE1     -0.859800
     20 CB         -3.2360    1.2060    0.2830 c3        1 PE1     -0.060400
     21 CG         -4.5290    0.4190    0.3400 c3        1 PE1     -0.079400
     22 CD         -5.4200    0.9220    1.4550 c3        1 PE1     -0.110400
     23 CE         -6.7420    0.1560    1.4850 c3        1 PE1      0.134800
     24 O          -3.9190    1.8620   -2.3140 o         1 PE1     -0.859800
     25 NZ         -7.6830    0.5500    2.5120 n3        1 PE1     -0.909800
     26 H6          2.9150   -2.1520    1.0410 h4        1 PE1      0.141100
     27 H2A1       -1.2870   -4.3970   -1.3560 hc        1 PE1      0.016367
     28 H2A2        0.0540   -4.5930   -2.5530 hc        1 PE1      0.016367
     29 H2A3        0.1850   -5.3720   -0.9180 hc        1 PE1      0.016367
     30 H3         -1.4350   -1.1830   -2.5450 ho        1 PE1      0.469000
     31 H4A1        0.9080    1.2590   -1.5750 h1        1 PE1      0.062700
     32 H4A2       -0.3630    0.4280   -2.5760 h1        1 PE1      0.062700
     33 H          -0.7120    1.2870    0.2060 hn        1 PE1      0.349800
     34 H5A1        3.1720    0.5850   -0.1840 h1        1 PE1      0.018700
     35 H5A2        1.5870    1.2400    0.4820 h1        1 PE1      0.018700
     36 HA         -2.3000   -0.4380   -0.7650 h1        1 PE1      0.014700
     37 HB1C       -2.7120    1.1270    1.2720 hc        1 PE1      0.034200
     38 HB2C       -3.4680    2.2870    0.0930 hc        1 PE1      0.034200
     39 HG1C       -5.0500    0.5270   -0.6510 hc        1 PE1      0.054700
     40 HG2C       -4.3090   -0.6690    0.4970 hc        1 PE1      0.054700
     41 HD1C       -4.8930    0.8090    2.4390 hc        1 PE1      0.029200
     42 HD2C       -5.6190    2.0150    1.3050 hc        1 PE1      0.029200
     43 HE1C       -7.2520    0.2760    0.4870 h1        1 PE1      0.050200
     44 HE2C       -6.5240   -0.9400    1.6230 h1        1 PE1      0.050200
     45 HZ1N       -7.2660    0.4340    3.4170 hn        1 PE1      0.327300
     46 HZ2N       -7.9100    1.5220    2.4090 hn        1 PE1      0.327300
@<TRIPOS>BOND
     1    1    2 ar  
     2    1    9 ar  
     3    2    3 1   
     4    2    4 ar  
     5    3   27 1   
     6    3   28 1   
     7    3   29 1   
     8    4    5 1   
     9    4    6 ar  
    10    5   30 1   
    11    6    7 1   
    12    6    8 ar  
    13    7   16 1   
    14    7   31 1   
    15    7   32 1   
    16    8    9 ar  
    17    8   10 1   
    18    9   26 1   
    19   10   11 1   
    20   10   34 1   
    21   10   35 1   
    22   11   12 1   
    23   12   13 1   
    24   12   14 1   
    25   12   15 1   
    26   16   17 1   
    27   16   33 1   
    28   17   18 1   
    29   17   20 1   
    30   17   36 1   
    31   18   19 1   
    32   18   24 1   
    33   20   21 1   
    34   20   37 1   
    35   20   38 1   
    36   21   22 1   
    37   21   39 1   
    38   21   40 1   
    39   22   23 1   
    40   22   41 1   
    41   22   42 1   
    42   23   25 1   
    43   23   43 1   
    44   23   44 1   
    45   25   45 1   
    46   25   46 1   
@<TRIPOS>SUBSTRUCTURE
     1 PE1         1 TEMP              0 ****  ****    0 ROOT
