@<TRIPOS>MOLECULE
PE2
   34    34     1     0     0
SMALL
bcc


@<TRIPOS>ATOM
      1 C2         -0.1220    0.9590    0.4660 cc        1 PE2      0.235500
      2 C4          1.4660   -0.7070    0.2680 cd        1 PE2      0.092500
      3 C5          1.3070   -1.1140    1.6910 cd        1 PE2      0.397000
      4 C4'         8.6060   -3.5060   -1.9870 c         1 PE2      0.591700
      5 O4'         7.5740   -2.9420   -1.6230 o         1 PE2     -0.577100
      6 C3'         5.4210    0.1090   -1.0200 c3        1 PE2      0.125400
      7 O3'         5.5540   -0.7100   -2.1630 oh        1 PE2     -0.627800
      8 C2'         5.3050   -0.6740    0.2810 c3        1 PE2     -0.126400
      9 C12         4.8300   -2.1000    0.1310 c3        1 PE2     -0.107400
     10 N9          2.4070   -1.3360   -0.5060 nh        1 PE2     -0.070200
     11 N3          0.6740    0.2430   -0.3220 nc        1 PE2     -0.558000
     12 N2         -1.0990    1.8590   -0.2030 nz        1 PE2     -0.756600
     13 N1         -0.2440    0.8350    1.8790 ns        1 PE2     -0.475500
     14 C6          0.6430   -0.0440    2.5360 c         1 PE2      0.616200
     15 O6          0.8140    0.0970    3.7490 o         1 PE2     -0.522500
     16 N7          1.6360   -2.2190    2.2510 n2        1 PE2     -0.696100
     17 C8          3.0040   -1.4440   -1.6500 cu        1 PE2      0.236200
     18 H4'1        6.3170   -0.7130    0.7720 hc        1 PE2      0.065200
     19 H4'2        8.8830   -4.5160   -1.6180 h4        1 PE2     -0.005300
     20 HO4'        9.3120   -3.0340   -2.7030 h4        1 PE2     -0.005300
     21 H3'1        6.2830    0.8260   -0.9520 h1        1 PE2      0.047700
     22 H3'2        4.4820    0.6980   -1.2130 h1        1 PE2      0.047700
     23 HO3'        3.0820   -1.0600   -2.6600 h4        1 PE2      0.136800
     24 H2'         6.4020   -1.1720   -2.1010 ho        1 PE2      0.435000
     25 H121        4.6300   -0.1110    0.9780 hc        1 PE2      0.065200
     26 H122        4.7880   -2.5750    1.1510 hc        1 PE2      0.100700
     27 H1'1        5.5890   -2.6750   -0.4820 hc        1 PE2      0.100700
     28 H1'2        3.1910   -3.3880   -0.5070 h1        1 PE2      0.113700
     29 HN21       -0.9520    1.8370   -1.2200 hn        1 PE2      0.465133
     30 HN22       -2.0530    1.5460    0.0110 hn        1 PE2      0.465133
     31 HN1        -0.5330    1.6360    2.4010 hn        1 PE2      0.325500
     32 H8          2.0830   -2.9050    1.6810 hn        1 PE2      0.401400
     33 C1'         3.5160   -2.3160   -0.5530 cx        1 PE2     -0.002300
     34 H23        -0.9630    2.8140    0.1390 hn        1 PE2      0.465133
@<TRIPOS>BOND
     1    1   11 1   
     2    1   12 1   
     3    1   13 2   
     4    2    3 1   
     5    2   10 1   
     6    2   11 2   
     7    3   14 1   
     8    3   16 2   
     9    4    5 2   
    10    4   19 1   
    11    4   20 1   
    12    6    7 1   
    13    6    8 1   
    14    6   21 1   
    15    6   22 1   
    16    7   24 1   
    17    8    9 1   
    18    8   18 1   
    19    8   25 1   
    20    9   26 1   
    21    9   27 1   
    22    9   33 1   
    23   10   17 2   
    24   10   33 1   
    25   12   29 1   
    26   12   30 1   
    27   12   34 1   
    28   13   14 1   
    29   13   31 1   
    30   14   15 2   
    31   16   32 1   
    32   17   23 1   
    33   17   33 1   
    34   28   33 1   
@<TRIPOS>SUBSTRUCTURE
     1 PE2         1 TEMP              0 ****  ****    0 ROOT
