@<TRIPOS>MOLECULE
PE2
   33    34     1     0     0
SMALL
bcc


@<TRIPOS>ATOM
      1 C2          1.7020    0.3090   -2.6440 cc        1 PE2      0.677800
      2 C4         -0.2120    0.2720   -1.3670 cd        1 PE2      0.111800
      3 C5         -1.0150   -0.2260   -2.4570 cc        1 PE2      0.174800
      4 C4'        -0.6590   -0.8720    4.4600 c3        1 PE2      0.131400
      5 O4'        -0.7080   -0.2350    5.7280 oh        1 PE2     -0.607800
      6 C3'         1.1120    0.6770    3.6090 c3        1 PE2      0.131400
      7 O3'         1.9770   -0.4190    3.3480 oh        1 PE2     -0.607800
      8 C2'        -0.3300    0.2080    3.4290 c3        1 PE2     -0.063700
      9 C12        -0.5890   -0.3220    2.0300 c3        1 PE2     -0.101400
     10 N9         -1.0920    0.4380   -0.2930 na        1 PE2     -0.196900
     11 N3          1.1460    0.5290   -1.4290 nd        1 PE2     -0.670100
     12 N2          3.0590    0.6610   -2.8350 nh        1 PE2     -0.889800
     13 N1          1.0070   -0.2010   -3.7600 n         1 PE2     -0.509400
     14 C6         -0.3880   -0.4770   -3.7370 c         1 PE2      0.651000
     15 O6         -0.9050   -0.8970   -4.7820 o         1 PE2     -0.599500
     16 N7         -2.3430   -0.3750   -2.0540 nc        1 PE2     -0.584000
     17 C8         -2.3600    0.0130   -0.7660 cd        1 PE2      0.390400
     18 H4'1       -1.6590   -1.3350    4.2400 h1        1 PE2      0.034450
     19 H4'2        0.1320   -1.6680    4.4480 h1        1 PE2      0.034450
     20 HO4'       -0.7650   -0.9370    6.3860 ho        1 PE2      0.403500
     21 H3'1        1.3400    1.5140    2.8950 h1        1 PE2      0.034450
     22 H3'2        1.2540    1.0360    4.6640 h1        1 PE2      0.034450
     23 HO3'        2.8710   -0.1110    3.5380 ho        1 PE2      0.403500
     24 H2'        -0.9930    1.0970    3.6320 hc        1 PE2      0.066700
     25 H121       -1.5100   -0.9620    2.0310 hc        1 PE2      0.066200
     26 H122        0.2740   -0.9660    1.7120 hc        1 PE2      0.066200
     27 H1'1        0.1740    1.4500    1.0170 h1        1 PE2      0.068700
     28 H1'2       -1.6130    1.4980    1.4110 h1        1 PE2      0.068700
     29 HN21        3.5420    0.9110   -1.9980 hn        1 PE2      0.417800
     30 HN22        3.5760    0.0540   -3.4320 hn        1 PE2      0.417800
     31 HN1         1.4730   -0.2990   -4.6350 hn        1 PE2      0.334500
     32 H8         -3.2420    0.0320   -0.1180 h5        1 PE2      0.066100
     33 C1'        -0.7730    0.8380    1.0460 c3        1 PE2      0.043300
@<TRIPOS>BOND
     1    1   11 2   
     2    1   12 1   
     3    1   13 1   
     4    2    3 2   
     5    2   10 1   
     6    2   11 1   
     7    3   14 1   
     8    3   16 1   
     9    4    5 1   
    10    4    8 1   
    11    4   18 1   
    12    4   19 1   
    13    5   20 1   
    14    6    7 1   
    15    6    8 1   
    16    6   21 1   
    17    6   22 1   
    18    7   23 1   
    19    8    9 1   
    20    8   24 1   
    21    9   25 1   
    22    9   26 1   
    23    9   33 1   
    24   10   17 1   
    25   10   33 1   
    26   12   29 1   
    27   12   30 1   
    28   13   14 1   
    29   13   31 1   
    30   14   15 2   
    31   16   17 2   
    32   17   32 1   
    33   27   33 1   
    34   28   33 1   
@<TRIPOS>SUBSTRUCTURE
     1 PE2         1 TEMP              0 ****  ****    0 ROOT
