@<TRIPOS>MOLECULE
PE2
   34    34     1     0     0
SMALL
bcc


@<TRIPOS>ATOM
      1 C2          0.1710    0.2360    0.6330 cc        1 PE2      0.210500
      2 C4          2.1360   -0.5260   -0.2990 cd        1 PE2      0.096500
      3 C5          2.6650    0.8600   -0.4690 cd        1 PE2      0.395000
      4 C4'         6.5390    1.1920   -2.7060 c         1 PE2      0.606700
      5 O4'         6.1590    0.1160   -2.2370 o         1 PE2     -0.600100
      6 C3'         5.9360   -2.3970    0.8690 c3        1 PE2      0.127400
      7 O3'         5.7060   -1.2680    0.0360 oh        1 PE2     -0.648800
      8 C2'         4.5900   -2.8550    1.4070 c3        1 PE2     -0.095400
      9 C12         3.7870   -3.7040    0.4470 c3        1 PE2     -0.096400
     10 N9          2.8820   -1.5750   -0.7790 nh        1 PE2     -0.057200
     11 N3          0.9710   -0.7940    0.3590 nc        1 PE2     -0.547000
     12 N2         -1.0030   -0.0350    1.5010 n4        1 PE2     -0.751600
     13 N1          0.4200    1.6060    0.3240 n         1 PE2     -0.470500
     14 C6          1.5650    1.9010   -0.4450 c         1 PE2      0.614200
     15 O6          1.6130    2.9830   -1.0360 o         1 PE2     -0.534500
     16 N7          3.8790    1.2390   -0.6040 n2        1 PE2     -0.717100
     17 C8          3.8850   -1.9340   -1.5160 cu        1 PE2      0.262200
     18 H4'1        4.7880   -3.4720    2.3260 hc        1 PE2      0.070200
     19 H4'2        6.0170    1.6760   -3.5570 h4        1 PE2      0.000200
     20 HO4'        7.4210    1.7280   -2.2980 h4        1 PE2      0.000200
     21 H3'1        6.4350   -3.2120    0.2800 h1        1 PE2      0.042700
     22 H3'2        6.6050   -2.0990    1.7220 h1        1 PE2      0.042700
     23 HO3'        4.6890   -1.5520   -2.1430 h4        1 PE2      0.151800
     24 H2'         6.5570   -0.9940   -0.3300 ho        1 PE2      0.437000
     25 H121        3.9970   -1.9590    1.7280 hc        1 PE2      0.070200
     26 H122        2.9460   -4.1850    1.0180 hc        1 PE2      0.081700
     27 H1'1        4.4360   -4.5320    0.0430 hc        1 PE2      0.081700
     28 H1'2        2.4500   -3.6670   -1.2740 h1        1 PE2      0.113700
     29 HN21       -1.0630   -1.0410    1.7000 hn        1 PE2      0.462133
     30 HN22       -0.9070    0.4820    2.3820 hn        1 PE2      0.462133
     31 HN1        -0.3710    2.1960    0.1670 hn        1 PE2      0.321500
     32 H8          4.5900    0.5340   -0.6170 hn        1 PE2      0.432400
     33 C1'         3.1950   -3.0150   -0.7490 cx        1 PE2     -0.024300
     34 H23        -1.8530    0.2650    1.0160 hn        1 PE2      0.462133
@<TRIPOS>BOND
     1    1   11 1   
     2    1   12 1   
     3    1   13 2   
     4    2    3 1   
     5    2   10 1   
     6    2   11 2   
     7    3   14 1   
     8    3   16 2   
     9    4    5 2   
    10    4   19 1   
    11    4   20 1   
    12    6    7 1   
    13    6    8 1   
    14    6   21 1   
    15    6   22 1   
    16    7   24 1   
    17    8    9 1   
    18    8   18 1   
    19    8   25 1   
    20    9   26 1   
    21    9   27 1   
    22    9   33 1   
    23   10   17 2   
    24   10   33 1   
    25   12   29 1   
    26   12   30 1   
    27   12   34 1   
    28   13   14 1   
    29   13   31 1   
    30   14   15 2   
    31   16   32 1   
    32   17   23 1   
    33   17   33 1   
    34   28   33 1   
@<TRIPOS>SUBSTRUCTURE
     1 PE2         1 TEMP              0 ****  ****    0 ROOT
