@<TRIPOS>MOLECULE
PE2
   33    30     1     0     0
SMALL
bcc


@<TRIPOS>ATOM
      1 C2         -4.0830   -0.0300   -0.5700 c1        1 PE2      0.234000
      2 C4         -1.9610    0.2620    0.7600 c1        1 PE2      0.060000
      3 C5         -2.6760    0.2810    1.9210 c1        1 PE2     -0.243000
      4 C4'         2.7050   -0.2910   -2.0010 c3        1 PE2     -0.014000
      5 O4'         3.7130    0.4720   -2.6510 oh        1 PE2     -0.337000
      6 C3'         3.8810   -0.7290    0.1980 c3        1 PE2     -0.014000
      7 O3'         5.0880   -0.0870   -0.1260 oh        1 PE2     -0.337000
      8 C2'         2.7230    0.0160   -0.4560 c3        1 PE2     -0.151000
      9 C12         1.4330   -0.4250    0.1600 c3        1 PE2     -0.177000
     10 C1'         0.4930    0.8060    0.3260 c3        1 PE2     -0.014000
     11 N9         -0.6610    0.4240    1.0690 n3        1 PE2     -0.156000
     12 N3         -2.6460    0.1070   -0.5250 n1        1 PE2     -0.246000
     13 N2         -4.7510   -0.2110   -1.8440 n2        1 PE2     -0.330000
     14 N1         -4.8470   -0.0140    0.6600 n3        1 PE2     -0.349000
     15 C6         -4.1890    0.1430    1.8860 c1        1 PE2      0.398000
     16 O6         -4.8370    0.2190    2.9280 o         1 PE2     -0.322000
     17 N7         -1.8010    0.4560    2.9440 n2        1 PE2     -0.057000
     18 C8         -0.5560    0.5440    2.4180 c1        1 PE2     -0.096000
     19 H4'1        2.8810   -1.2750   -2.1490 h1        1 PE2      0.076000
     20 H4'2        1.7990   -0.0490   -2.3830 h1        1 PE2      0.076000
     21 HO4'        3.6040    0.4180   -3.5300 ho        1 PE2      0.214000
     22 H3'1        3.7630   -0.7290    1.1610 h1        1 PE2      0.076000
     23 H3'2        3.9050   -1.6600   -0.1310 h1        1 PE2      0.076000
     24 HO3'        5.7660   -0.4640    0.3400 ho        1 PE2      0.214000
     25 H2'         2.8360    0.9880   -0.3160 hc        1 PE2      0.117000
     26 H121        1.6080   -0.8180    1.0310 hc        1 PE2      0.098500
     27 H122        0.9910   -1.1100   -0.4360 hc        1 PE2      0.098500
     28 H1'1        0.9780    1.5310    0.8130 h1        1 PE2      0.111000
     29 H1'2        0.2340    1.1160   -0.5140 h1        1 PE2      0.111000
     30 HN21       -5.6460   -0.3180   -1.8730 hn        1 PE2      0.215500
     31 HN22       -4.2410   -0.1600   -2.6700 hn        1 PE2      0.215500
     32 HN1        -5.7850   -0.1020    0.6360 hn        1 PE2      0.248000
     33 H8          0.2800    0.6890    2.9250 DU        1 PE2      0.204000
@<TRIPOS>BOND
     1    1   12 1   
     2    1   14 1   
     3    2    3 1   
     4    2   11 1   
     5    3   17 1   
     6    4    5 1   
     7    4    8 1   
     8    4   19 1   
     9    4   20 1   
    10    5   21 1   
    11    6    7 1   
    12    6    8 1   
    13    6   22 1   
    14    6   23 1   
    15    7   24 1   
    16    8    9 1   
    17    8   25 1   
    18    9   10 1   
    19    9   26 1   
    20    9   27 1   
    21   10   11 1   
    22   10   28 1   
    23   10   29 1   
    24   11   18 1   
    25   13   30 1   
    26   13   31 1   
    27   14   15 1   
    28   14   32 1   
    29   15   16 1   
    30   17   18 1   
@<TRIPOS>SUBSTRUCTURE
     1 PE2         1 TEMP              0 ****  ****    0 ROOT
