@<TRIPOS>MOLECULE
PE3
  101   100     1     0     0
SMALL
bcc


@<TRIPOS>ATOM
      1 O43        -1.5750    2.2070   -1.7320 oh        1 PE3     -0.599800
      2 C42        -1.0830    2.6000   -0.4690 c3        1 PE3      0.131400
      3 C41        -1.3040    1.5170    0.5830 c3        1 PE3      0.087400
      4 O40        -0.4820    0.4170    0.1960 os        1 PE3     -0.438600
      5 C39        -0.6290   -0.7030    1.0680 c3        1 PE3      0.128400
      6 C38         0.4340   -1.7160    0.6570 c3        1 PE3      0.127400
      7 O37         1.4360   -1.6850    1.6710 os        1 PE3     -0.428600
      8 C36         2.5720   -2.4790    1.3330 c3        1 PE3      0.127400
      9 C35         3.4650   -2.5060    2.5680 c3        1 PE3      0.127400
     10 O34         3.3330   -3.8090    3.1350 os        1 PE3     -0.429600
     11 C33         3.9980   -3.9210    4.3910 c3        1 PE3      0.127400
     12 C32         3.9340   -5.3920    4.7860 c3        1 PE3      0.127400
     13 O31         5.2490   -5.9160    4.6120 os        1 PE3     -0.429600
     14 C30         5.2960   -7.3300    4.7940 c3        1 PE3      0.127400
     15 C29         6.7700   -7.7220    4.7620 c3        1 PE3      0.127400
     16 O28         7.1330   -8.0430    6.1030 os        1 PE3     -0.429600
     17 C27         8.5330   -8.2750    6.2420 c3        1 PE3      0.127400
     18 C26         8.7500   -8.7790    7.6650 c3        1 PE3      0.127400
     19 O25         9.0440  -10.1700    7.5620 os        1 PE3     -0.429600
     20 C24         9.1100  -10.8040    8.8370 c3        1 PE3      0.127400
     21 C23         9.6040  -12.2260    8.5890 c3        1 PE3      0.127400
     22 O22        10.9490  -12.2750    9.0600 os        1 PE3     -0.429600
     23 C21        11.5880  -13.5100    8.7410 c3        1 PE3      0.127400
     24 C20        12.9370  -13.4960    9.4510 c3        1 PE3      0.127400
     25 O19        12.8330  -14.4160   10.5360 os        1 PE3     -0.429600
     26 C18        13.9780  -14.3800   11.3850 c3        1 PE3      0.127400
     27 C17        13.8140  -15.5230   12.3820 c3        1 PE3      0.127400
     28 O16        14.7520  -16.5280   12.0040 os        1 PE3     -0.429600
     29 C15        14.5920  -17.7270   12.7590 c3        1 PE3      0.127400
     30 C14        15.7580  -18.6360   12.3830 c3        1 PE3      0.127400
     31 O13        16.6420  -18.6460   13.5020 os        1 PE3     -0.429600
     32 C12        17.8610  -19.3300   13.2210 c3        1 PE3      0.127400
     33 C11        18.6230  -19.4170   14.5390 c3        1 PE3      0.127400
     34 O10        18.5440  -20.7770   14.9630 os        1 PE3     -0.429600
     35 C9         19.0760  -20.9650   16.2730 c3        1 PE3      0.127400
     36 C8         19.0890  -22.4700   16.5220 c3        1 PE3      0.127400
     37 O7         20.4510  -22.8830   16.4380 os        1 PE3     -0.428600
     38 C6         20.5890  -24.3020   16.4850 c3        1 PE3      0.127400
     39 C5         22.0850  -24.5880   16.5580 c3        1 PE3      0.128400
     40 O4         22.3520  -25.0140   17.8930 os        1 PE3     -0.438600
     41 C3         23.7480  -25.1500   18.1510 c3        1 PE3      0.087400
     42 C2         23.8670  -25.6640   19.5820 c3        1 PE3      0.131400
     43 O1         23.3460  -26.9700   19.7120 oh        1 PE3     -0.599800
     44 H43        -1.1320    1.3790   -1.9610 ho        1 PE3      0.412000
     45 H421        0.0090    2.8490   -0.5390 h1        1 PE3      0.053700
     46 H422       -1.6710    3.5170   -0.1980 h1        1 PE3      0.053700
     47 H411       -2.3790    1.1960    0.6050 h1        1 PE3      0.039200
     48 H412       -0.9980    1.8830    1.5970 h1        1 PE3      0.039200
     49 H391       -1.6550   -1.1360    0.9380 h1        1 PE3      0.045200
     50 H392       -0.4850   -0.3850    2.1350 h1        1 PE3      0.045200
     51 H381       -0.0070   -2.7460    0.6040 h1        1 PE3      0.043200
     52 H382        0.8800   -1.4450   -0.3370 h1        1 PE3      0.043200
     53 H361        3.1100   -2.0020    0.4710 h1        1 PE3      0.044200
     54 H362        2.2510   -3.5170    1.0500 h1        1 PE3      0.044200
     55 H351        4.5360   -2.3360    2.2800 h1        1 PE3      0.043700
     56 H352        3.1440   -1.7260    3.3090 h1        1 PE3      0.043700
     57 H331        5.0630   -3.5790    4.3000 h1        1 PE3      0.043700
     58 H332        3.4630   -3.2890    5.1480 h1        1 PE3      0.043700
     59 H321        3.6360   -5.4960    5.8620 h1        1 PE3      0.043200
     60 H322        3.2060   -5.9480    4.1370 h1        1 PE3      0.043200
     61 H301        4.8310   -7.6100    5.7760 h1        1 PE3      0.043700
     62 H302        4.7400   -7.8270    3.9570 h1        1 PE3      0.043700
     63 H291        7.3990   -6.8750    4.3810 h1        1 PE3      0.043700
     64 H292        6.9200   -8.6250    4.1130 h1        1 PE3      0.043700
     65 H271        9.0830   -7.3100    6.0800 h1        1 PE3      0.043700
     66 H272        8.8780   -9.0360    5.4930 h1        1 PE3      0.043700
     67 H261        9.6210   -8.2530    8.1380 h1        1 PE3      0.043700
     68 H262        7.8300   -8.6210    8.2880 h1        1 PE3      0.043700
     69 H241        8.0850  -10.8200    9.2940 h1        1 PE3      0.043700
     70 H242        9.8150  -10.2490    9.5110 h1        1 PE3      0.043700
     71 H231        8.9840  -12.9610    9.1670 h1        1 PE3      0.043700
     72 H232        9.5650  -12.4760    7.4960 h1        1 PE3      0.043700
     73 H211       10.9620  -14.3730    9.0900 h1        1 PE3      0.043700
     74 H212       11.7310  -13.5730    7.6300 h1        1 PE3      0.043700
     75 H201       13.7490  -13.8380    8.7560 h1        1 PE3      0.043700
     76 H202       13.1750  -12.4690    9.8340 h1        1 PE3      0.043700
     77 H181       14.0090  -13.3950   11.9210 h1        1 PE3      0.043700
     78 H182       14.9150  -14.5110   10.7800 h1        1 PE3      0.043700
     79 H171       14.0490  -15.1720   13.4210 h1        1 PE3      0.043700
     80 H172       12.7700  -15.9340   12.3480 h1        1 PE3      0.043700
     81 H151       14.6040  -17.4990   13.8580 h1        1 PE3      0.043700
     82 H152       13.6170  -18.2080   12.4840 h1        1 PE3      0.043700
     83 H141       15.3950  -19.6800   12.1910 h1        1 PE3      0.043700
     84 H142       16.2880  -18.2470   11.4730 h1        1 PE3      0.043700
     85 H121       18.4480  -18.7410   12.4680 h1        1 PE3      0.043200
     86 H122       17.6470  -20.3540   12.8150 h1        1 PE3      0.043200
     87 H111       18.1640  -18.7420   15.3100 h1        1 PE3      0.043700
     88 H112       19.6990  -19.1410   14.3880 h1        1 PE3      0.043700
     89 H91        18.4130  -20.4510   17.0170 h1        1 PE3      0.043700
     90 H92        20.1140  -20.5420   16.3350 h1        1 PE3      0.043700
     91 H81        18.4710  -23.0060   15.7540 h1        1 PE3      0.044200
     92 H82        18.6980  -22.7000   17.5490 h1        1 PE3      0.044200
     93 H61        20.0590  -24.7130   17.3840 h1        1 PE3      0.043200
     94 H62        20.1510  -24.7460   15.5530 h1        1 PE3      0.043200
     95 H51        22.3620  -25.4120   15.8490 h1        1 PE3      0.045200
     96 H52        22.6800  -23.6670   16.3190 h1        1 PE3      0.045200
     97 H31        24.1960  -25.8810   17.4270 h1        1 PE3      0.039200
     98 H32        24.2540  -24.1550   18.0450 h1        1 PE3      0.039200
     99 H21        24.9490  -25.7510   19.8660 h1        1 PE3      0.053700
    100 H22        23.3400  -24.9650   20.2850 h1        1 PE3      0.053700
    101 HO1        22.4280  -26.9370   19.4100 ho        1 PE3      0.412000
@<TRIPOS>BOND
     1    1    2 1   
     2    1   44 1   
     3    2    3 1   
     4    2   45 1   
     5    2   46 1   
     6    3    4 1   
     7    3   47 1   
     8    3   48 1   
     9    4    5 1   
    10    5    6 1   
    11    5   49 1   
    12    5   50 1   
    13    6    7 1   
    14    6   51 1   
    15    6   52 1   
    16    7    8 1   
    17    8    9 1   
    18    8   53 1   
    19    8   54 1   
    20    9   10 1   
    21    9   55 1   
    22    9   56 1   
    23   10   11 1   
    24   11   12 1   
    25   11   57 1   
    26   11   58 1   
    27   12   13 1   
    28   12   59 1   
    29   12   60 1   
    30   13   14 1   
    31   14   15 1   
    32   14   61 1   
    33   14   62 1   
    34   15   16 1   
    35   15   63 1   
    36   15   64 1   
    37   16   17 1   
    38   17   18 1   
    39   17   65 1   
    40   17   66 1   
    41   18   19 1   
    42   18   67 1   
    43   18   68 1   
    44   19   20 1   
    45   20   21 1   
    46   20   69 1   
    47   20   70 1   
    48   21   22 1   
    49   21   71 1   
    50   21   72 1   
    51   22   23 1   
    52   23   24 1   
    53   23   73 1   
    54   23   74 1   
    55   24   25 1   
    56   24   75 1   
    57   24   76 1   
    58   25   26 1   
    59   26   27 1   
    60   26   77 1   
    61   26   78 1   
    62   27   28 1   
    63   27   79 1   
    64   27   80 1   
    65   28   29 1   
    66   29   30 1   
    67   29   81 1   
    68   29   82 1   
    69   30   31 1   
    70   30   83 1   
    71   30   84 1   
    72   31   32 1   
    73   32   33 1   
    74   32   85 1   
    75   32   86 1   
    76   33   34 1   
    77   33   87 1   
    78   33   88 1   
    79   34   35 1   
    80   35   36 1   
    81   35   89 1   
    82   35   90 1   
    83   36   37 1   
    84   36   91 1   
    85   36   92 1   
    86   37   38 1   
    87   38   39 1   
    88   38   93 1   
    89   38   94 1   
    90   39   40 1   
    91   39   95 1   
    92   39   96 1   
    93   40   41 1   
    94   41   42 1   
    95   41   97 1   
    96   41   98 1   
    97   42   43 1   
    98   42   99 1   
    99   42  100 1   
   100   43  101 1   
@<TRIPOS>SUBSTRUCTURE
     1 PE3         1 TEMP              0 ****  ****    0 ROOT
