@<TRIPOS>MOLECULE
PE3
  101   100     1     0     0
SMALL
bcc


@<TRIPOS>ATOM
      1 O43        -1.4840    2.3070   -1.6820 oh        1 PE3     -0.599800
      2 C42        -1.0160    2.6710   -0.4010 c3        1 PE3      0.131400
      3 C41        -1.2520    1.5630    0.6210 c3        1 PE3      0.087400
      4 O40        -0.4220    0.4740    0.2230 os        1 PE3     -0.438600
      5 C39        -0.5820   -0.6660    1.0660 c3        1 PE3      0.128400
      6 C38         0.4900   -1.6680    0.6490 c3        1 PE3      0.127400
      7 O37         1.4760   -1.6580    1.6790 os        1 PE3     -0.428600
      8 C36         2.6180   -2.4430    1.3420 c3        1 PE3      0.127400
      9 C35         3.4920   -2.4940    2.5910 c3        1 PE3      0.127400
     10 O34         3.3530   -3.8070    3.1300 os        1 PE3     -0.429600
     11 C33         4.0000   -3.9430    4.3930 c3        1 PE3      0.127400
     12 C32         3.9300   -5.4220    4.7590 c3        1 PE3      0.127400
     13 O31         5.2470   -5.9440    4.5910 os        1 PE3     -0.429600
     14 C30         5.2900   -7.3600    4.7510 c3        1 PE3      0.127400
     15 C29         6.7640   -7.7530    4.7270 c3        1 PE3      0.127400
     16 O28         7.1160   -8.0880    6.0680 os        1 PE3     -0.429600
     17 C27         8.5150   -8.3210    6.2160 c3        1 PE3      0.127400
     18 C26         8.7200   -8.8350    7.6380 c3        1 PE3      0.127400
     19 O25         9.0150  -10.2260    7.5270 os        1 PE3     -0.429600
     20 C24         9.0740  -10.8670    8.7990 c3        1 PE3      0.127400
     21 C23         9.5690  -12.2870    8.5460 c3        1 PE3      0.127400
     22 O22        10.9150  -12.3370    9.0160 os        1 PE3     -0.429600
     23 C21        11.5530  -13.5710    8.6960 c3        1 PE3      0.127400
     24 C20        12.9050  -13.5550    9.4020 c3        1 PE3      0.127400
     25 O19        12.8030  -14.4660   10.4940 os        1 PE3     -0.429600
     26 C18        13.9510  -14.4260   11.3400 c3        1 PE3      0.127400
     27 C17        13.7860  -15.5590   12.3480 c3        1 PE3      0.127400
     28 O16        14.7210  -16.5700   11.9770 os        1 PE3     -0.429600
     29 C15        14.5620  -17.7600   12.7470 c3        1 PE3      0.127400
     30 C14        15.7250  -18.6740   12.3760 c3        1 PE3      0.127400
     31 O13        16.6180  -18.6660   13.4880 os        1 PE3     -0.429600
     32 C12        17.8340  -19.3560   13.2100 c3        1 PE3      0.127400
     33 C11        18.6080  -19.4180   14.5220 c3        1 PE3      0.127400
     34 O10        18.5310  -20.7680   14.9760 os        1 PE3     -0.429600
     35 C9         19.0760  -20.9300   16.2830 c3        1 PE3      0.127400
     36 C8         19.0860  -22.4290   16.5650 c3        1 PE3      0.127400
     37 O7         20.4460  -22.8490   16.4740 os        1 PE3     -0.428600
     38 C6         20.5790  -24.2660   16.5520 c3        1 PE3      0.127400
     39 C5         22.0750  -24.5570   16.6120 c3        1 PE3      0.128400
     40 O4         22.3600  -24.9510   17.9530 os        1 PE3     -0.438600
     41 C3         23.7580  -25.0860   18.1950 c3        1 PE3      0.087400
     42 C2         23.8950  -25.5640   19.6370 c3        1 PE3      0.131400
     43 O1         23.3710  -26.8640   19.8070 oh        1 PE3     -0.599800
     44 H43        -1.0360    1.4860   -1.9220 ho        1 PE3      0.412000
     45 H421        0.0770    2.9230   -0.4460 h1        1 PE3      0.053700
     46 H422       -1.6090    3.5810   -0.1190 h1        1 PE3      0.053700
     47 H411       -2.3270    1.2400    0.6160 h1        1 PE3      0.039200
     48 H412       -0.9650    1.9060    1.6490 h1        1 PE3      0.039200
     49 H391       -1.6050   -1.0980    0.9080 h1        1 PE3      0.045200
     50 H392       -0.4560   -0.3730    2.1420 h1        1 PE3      0.045200
     51 H381        0.0520   -2.6970    0.5670 h1        1 PE3      0.043200
     52 H382        0.9510   -1.3740   -0.3320 h1        1 PE3      0.043200
     53 H361        3.1680   -1.9490    0.4990 h1        1 PE3      0.044200
     54 H362        2.3020   -3.4760    1.0350 h1        1 PE3      0.044200
     55 H351        4.5670   -2.3180    2.3210 h1        1 PE3      0.043700
     56 H352        3.1610   -1.7280    3.3410 h1        1 PE3      0.043700
     57 H331        5.0670   -3.6000    4.3220 h1        1 PE3      0.043700
     58 H332        3.4550   -3.3250    5.1540 h1        1 PE3      0.043700
     59 H321        3.6190   -5.5450    5.8300 h1        1 PE3      0.043200
     60 H322        3.2090   -5.9640    4.0920 h1        1 PE3      0.043200
     61 H301        4.8150   -7.6560    5.7230 h1        1 PE3      0.043700
     62 H302        4.7420   -7.8440    3.9000 h1        1 PE3      0.043700
     63 H291        7.3970   -6.9030    4.3590 h1        1 PE3      0.043700
     64 H292        6.9180   -8.6500    4.0710 h1        1 PE3      0.043700
     65 H271        9.0670   -7.3560    6.0660 h1        1 PE3      0.043700
     66 H272        8.8650   -9.0770    5.4650 h1        1 PE3      0.043700
     67 H261        9.5870   -8.3120    8.1210 h1        1 PE3      0.043700
     68 H262        7.7950   -8.6810    8.2540 h1        1 PE3      0.043700
     69 H241        8.0470  -10.8860    9.2500 h1        1 PE3      0.043700
     70 H242        9.7750  -10.3160    9.4800 h1        1 PE3      0.043700
     71 H231        8.9510  -13.0260    9.1200 h1        1 PE3      0.043700
     72 H232        9.5310  -12.5330    7.4510 h1        1 PE3      0.043700
     73 H211       10.9300  -14.4340    9.0490 h1        1 PE3      0.043700
     74 H212       11.6930  -13.6360    7.5850 h1        1 PE3      0.043700
     75 H201       13.7140  -13.9040    8.7060 h1        1 PE3      0.043700
     76 H202       13.1470  -12.5250    9.7760 h1        1 PE3      0.043700
     77 H181       13.9860  -13.4360   11.8660 h1        1 PE3      0.043700
     78 H182       14.8850  -14.5650   10.7330 h1        1 PE3      0.043700
     79 H171       14.0240  -15.1990   13.3830 h1        1 PE3      0.043700
     80 H172       12.7410  -15.9680   12.3200 h1        1 PE3      0.043700
     81 H151       14.5780  -17.5190   13.8430 h1        1 PE3      0.043700
     82 H152       13.5850  -18.2430   12.4800 h1        1 PE3      0.043700
     83 H141       15.3610  -19.7210   12.2050 h1        1 PE3      0.043700
     84 H142       16.2480  -18.3010   11.4560 h1        1 PE3      0.043700
     85 H121       18.4150  -18.7820   12.4400 h1        1 PE3      0.043200
     86 H122       17.6160  -20.3880   12.8260 h1        1 PE3      0.043200
     87 H111       18.1580  -18.7260   15.2830 h1        1 PE3      0.043700
     88 H112       19.6840  -19.1470   14.3550 h1        1 PE3      0.043700
     89 H91        18.4220  -20.3980   17.0240 h1        1 PE3      0.043700
     90 H92        20.1150  -20.5090   16.3260 h1        1 PE3      0.043700
     91 H81        18.4580  -22.9790   15.8160 h1        1 PE3      0.044200
     92 H82        18.7070  -22.6340   17.6010 h1        1 PE3      0.044200
     93 H61        20.0600  -24.6550   17.4680 h1        1 PE3      0.043200
     94 H62        20.1280  -24.7310   15.6360 h1        1 PE3      0.043200
     95 H51        22.3390  -25.3990   15.9190 h1        1 PE3      0.045200
     96 H52        22.6700  -23.6450   16.3410 h1        1 PE3      0.045200
     97 H31        24.1930  -25.8370   17.4840 h1        1 PE3      0.039200
     98 H32        24.2660  -24.0960   18.0570 h1        1 PE3      0.039200
     99 H21        24.9810  -25.6480   19.9080 h1        1 PE3      0.053700
    100 H22        23.3800  -24.8460   20.3290 h1        1 PE3      0.053700
    101 HO1        22.4500  -26.8360   19.5170 ho        1 PE3      0.412000
@<TRIPOS>BOND
     1    1    2 1   
     2    1   44 1   
     3    2    3 1   
     4    2   45 1   
     5    2   46 1   
     6    3    4 1   
     7    3   47 1   
     8    3   48 1   
     9    4    5 1   
    10    5    6 1   
    11    5   49 1   
    12    5   50 1   
    13    6    7 1   
    14    6   51 1   
    15    6   52 1   
    16    7    8 1   
    17    8    9 1   
    18    8   53 1   
    19    8   54 1   
    20    9   10 1   
    21    9   55 1   
    22    9   56 1   
    23   10   11 1   
    24   11   12 1   
    25   11   57 1   
    26   11   58 1   
    27   12   13 1   
    28   12   59 1   
    29   12   60 1   
    30   13   14 1   
    31   14   15 1   
    32   14   61 1   
    33   14   62 1   
    34   15   16 1   
    35   15   63 1   
    36   15   64 1   
    37   16   17 1   
    38   17   18 1   
    39   17   65 1   
    40   17   66 1   
    41   18   19 1   
    42   18   67 1   
    43   18   68 1   
    44   19   20 1   
    45   20   21 1   
    46   20   69 1   
    47   20   70 1   
    48   21   22 1   
    49   21   71 1   
    50   21   72 1   
    51   22   23 1   
    52   23   24 1   
    53   23   73 1   
    54   23   74 1   
    55   24   25 1   
    56   24   75 1   
    57   24   76 1   
    58   25   26 1   
    59   26   27 1   
    60   26   77 1   
    61   26   78 1   
    62   27   28 1   
    63   27   79 1   
    64   27   80 1   
    65   28   29 1   
    66   29   30 1   
    67   29   81 1   
    68   29   82 1   
    69   30   31 1   
    70   30   83 1   
    71   30   84 1   
    72   31   32 1   
    73   32   33 1   
    74   32   85 1   
    75   32   86 1   
    76   33   34 1   
    77   33   87 1   
    78   33   88 1   
    79   34   35 1   
    80   35   36 1   
    81   35   89 1   
    82   35   90 1   
    83   36   37 1   
    84   36   91 1   
    85   36   92 1   
    86   37   38 1   
    87   38   39 1   
    88   38   93 1   
    89   38   94 1   
    90   39   40 1   
    91   39   95 1   
    92   39   96 1   
    93   40   41 1   
    94   41   42 1   
    95   41   97 1   
    96   41   98 1   
    97   42   43 1   
    98   42   99 1   
    99   42  100 1   
   100   43  101 1   
@<TRIPOS>SUBSTRUCTURE
     1 PE3         1 TEMP              0 ****  ****    0 ROOT
