@<TRIPOS>MOLECULE
PE3
  101   100     1     0     0
SMALL
bcc


@<TRIPOS>ATOM
      1 O43        21.9540    1.0410   -0.1520 oh        1 PE3     -0.599800
      2 C42        21.3340    0.2770   -1.1650 c3        1 PE3      0.131400
      3 C41        20.2810   -0.6660   -0.5930 c3        1 PE3      0.087400
      4 O40        19.2440    0.1650   -0.0760 os        1 PE3     -0.438600
      5 C39        18.2040   -0.5870    0.5460 c3        1 PE3      0.128400
      6 C38        17.0890    0.4010    0.8730 c3        1 PE3      0.127400
      7 O37        16.0390    0.1490   -0.0580 os        1 PE3     -0.428600
      8 C36        14.9900    1.1110    0.0370 c3        1 PE3      0.127400
      9 C35        13.8670    0.6180   -0.8690 c3        1 PE3      0.127400
     10 O34        12.8370    0.1320   -0.0110 os        1 PE3     -0.429600
     11 C33        11.7870   -0.5070   -0.7350 c3        1 PE3      0.127400
     12 C32        10.6840   -0.8060    0.2750 c3        1 PE3      0.127400
     13 O31         9.6280    0.1130    0.0060 os        1 PE3     -0.429600
     14 C30         8.5930    0.0480    0.9840 c3        1 PE3      0.127400
     15 C29         7.4620    0.9380    0.4790 c3        1 PE3      0.127400
     16 O28         6.4210    0.0640    0.0460 os        1 PE3     -0.429600
     17 C27         5.3630    0.7650   -0.6040 c3        1 PE3      0.127400
     18 C26         4.2550   -0.2530   -0.8490 c3        1 PE3      0.127400
     19 O25         3.2090    0.0580    0.0700 os        1 PE3     -0.429600
     20 C24         2.1720   -0.9210    0.0590 c3        1 PE3      0.127400
     21 C23         1.0520   -0.3750    0.9380 c3        1 PE3      0.127400
     22 O22        -0.0000    0.0160    0.0580 os        1 PE3     -0.429600
     23 C21        -1.0520    0.6950    0.7410 c3        1 PE3      0.127400
     24 C20        -2.1730    0.8900   -0.2750 c3        1 PE3      0.127400
     25 O19        -3.2090   -0.0200    0.0860 os        1 PE3     -0.429600
     26 C18        -4.2550   -0.0590   -0.8830 c3        1 PE3      0.127400
     27 C17        -5.3630   -0.9230   -0.2910 c3        1 PE3      0.127400
     28 O16        -6.4210   -0.0370    0.0660 os        1 PE3     -0.429600
     29 C15        -7.4610   -0.6990    0.7830 c3        1 PE3      0.127400
     30 C14        -8.5930    0.3120    0.9370 c3        1 PE3      0.127400
     31 O13        -9.6290   -0.1000    0.0480 os        1 PE3     -0.429600
     32 C12       -10.6850    0.8550   -0.0290 c3        1 PE3      0.127400
     33 C11       -11.7880    0.2130   -0.8650 c3        1 PE3      0.127400
     34 O10       -12.8370   -0.1270    0.0400 os        1 PE3     -0.429600
     35 C9        -13.8660   -0.8890   -0.5880 c3        1 PE3      0.127400
     36 C8        -14.9880   -1.0270    0.4360 c3        1 PE3      0.127400
     37 O7        -16.0390   -0.1640    0.0040 os        1 PE3     -0.428600
     38 C6        -17.0880   -0.0690    0.9650 c3        1 PE3      0.127400
     39 C5        -18.2040    0.7350    0.3070 c3        1 PE3      0.128400
     40 O4        -19.2440   -0.1910   -0.0040 os        1 PE3     -0.438600
     41 C3        -20.2820    0.4000   -0.7830 c3        1 PE3      0.087400
     42 C2        -21.3340   -0.6870   -0.9800 c3        1 PE3      0.131400
     43 O1        -21.9530   -1.0400    0.2390 oh        1 PE3     -0.599800
     44 H43        21.2520    1.5160    0.3110 ho        1 PE3      0.412000
     45 H421       20.8690    0.9540   -1.9290 h1        1 PE3      0.053700
     46 H422       22.1640   -0.3180   -1.6310 h1        1 PE3      0.053700
     47 H411       19.8700   -1.3330   -1.3950 h1        1 PE3      0.039200
     48 H412       20.7120   -1.2900    0.2340 h1        1 PE3      0.039200
     49 H391       17.8350   -1.3870   -0.1490 h1        1 PE3      0.045200
     50 H392       18.6010   -1.0550    1.4850 h1        1 PE3      0.045200
     51 H381       16.7080    0.2300    1.9140 h1        1 PE3      0.043200
     52 H382       17.4510    1.4590    0.7730 h1        1 PE3      0.043200
     53 H361       14.6360    1.1960    1.0990 h1        1 PE3      0.044200
     54 H362       15.3700    2.1050   -0.3160 h1        1 PE3      0.044200
     55 H351       13.4630    1.4630   -1.4860 h1        1 PE3      0.043700
     56 H352       14.2300   -0.2030   -1.5440 h1        1 PE3      0.043700
     57 H331       11.4100    0.1670   -1.5480 h1        1 PE3      0.043700
     58 H332       12.1760   -1.4590   -1.1830 h1        1 PE3      0.043700
     59 H321       10.3040   -1.8530    0.1400 h1        1 PE3      0.043200
     60 H322       11.0580   -0.6730    1.3250 h1        1 PE3      0.043200
     61 H301        8.2410   -1.0110    1.1080 h1        1 PE3      0.043700
     62 H302        8.9860    0.4310    1.9620 h1        1 PE3      0.043700
     63 H291        7.0760    1.5880    1.3070 h1        1 PE3      0.043700
     64 H292        7.8110    1.5790   -0.3740 h1        1 PE3      0.043700
     65 H271        4.9970    1.6050    0.0440 h1        1 PE3      0.043700
     66 H272        5.7380    1.1770   -1.5780 h1        1 PE3      0.043700
     67 H261        3.8630   -0.1620   -1.8960 h1        1 PE3      0.043700
     68 H262        4.6270   -1.2970   -0.6740 h1        1 PE3      0.043700
     69 H241        1.8090   -1.0910   -0.9890 h1        1 PE3      0.043700
     70 H242        2.5680   -1.8810    0.4820 h1        1 PE3      0.043700
     71 H231        0.6740   -1.1720    1.6320 h1        1 PE3      0.043700
     72 H232        1.4070    0.5070    1.5340 h1        1 PE3      0.043700
     73 H211       -1.4070    0.0850    1.6130 h1        1 PE3      0.043700
     74 H212       -0.6740    1.6880    1.1030 h1        1 PE3      0.043700
     75 H201       -2.5690    1.9390   -0.2240 h1        1 PE3      0.043700
     76 H202       -1.8100    0.6750   -1.3150 h1        1 PE3      0.043700
     77 H181       -4.6280    0.9790   -1.0940 h1        1 PE3      0.043700
     78 H182       -3.8630   -0.5180   -1.8290 h1        1 PE3      0.043700
     79 H171       -5.7380   -1.6560   -1.0540 h1        1 PE3      0.043700
     80 H172       -4.9960   -1.4750    0.6150 h1        1 PE3      0.043700
     81 H151       -7.8090   -1.6030    0.2160 h1        1 PE3      0.043700
     82 H152       -7.0740   -1.0090    1.7890 h1        1 PE3      0.043700
     83 H141       -8.9850    0.3030    1.9880 h1        1 PE3      0.043700
     84 H142       -8.2420    1.3460    0.6730 h1        1 PE3      0.043700
     85 H121      -11.0590    1.1050    0.9990 h1        1 PE3      0.043200
     86 H122      -10.3060    1.7840   -0.5300 h1        1 PE3      0.043200
     87 H111      -12.1790    0.9410   -1.6240 h1        1 PE3      0.043700
     88 H112      -11.4100   -0.7070   -1.3850 h1        1 PE3      0.043700
     89 H91       -14.2300   -0.3640   -1.5100 h1        1 PE3      0.043700
     90 H92       -13.4610   -1.8980   -0.8620 h1        1 PE3      0.043700
     91 H81       -15.3670   -2.0830    0.4610 h1        1 PE3      0.044200
     92 H82       -14.6340   -0.7280    1.4580 h1        1 PE3      0.044200
     93 H61       -17.4480   -1.0930    1.2490 h1        1 PE3      0.043200
     94 H62       -16.7070    0.4630    1.8760 h1        1 PE3      0.043200
     95 H51       -18.6030    1.5070    1.0180 h1        1 PE3      0.045200
     96 H52       -17.8370    1.2360   -0.6280 h1        1 PE3      0.045200
     97 H31       -20.7140    1.2770   -0.2340 h1        1 PE3      0.039200
     98 H32       -19.8720    0.7370   -1.7710 h1        1 PE3      0.039200
     99 H21       -22.1640   -0.2990   -1.6280 h1        1 PE3      0.053700
    100 H22       -20.8670   -1.5910   -1.4530 h1        1 PE3      0.053700
    101 HO1       -21.2490   -1.3170    0.8410 ho        1 PE3      0.412000
@<TRIPOS>BOND
     1    1    2 1   
     2    1   44 1   
     3    2    3 1   
     4    2   45 1   
     5    2   46 1   
     6    3    4 1   
     7    3   47 1   
     8    3   48 1   
     9    4    5 1   
    10    5    6 1   
    11    5   49 1   
    12    5   50 1   
    13    6    7 1   
    14    6   51 1   
    15    6   52 1   
    16    7    8 1   
    17    8    9 1   
    18    8   53 1   
    19    8   54 1   
    20    9   10 1   
    21    9   55 1   
    22    9   56 1   
    23   10   11 1   
    24   11   12 1   
    25   11   57 1   
    26   11   58 1   
    27   12   13 1   
    28   12   59 1   
    29   12   60 1   
    30   13   14 1   
    31   14   15 1   
    32   14   61 1   
    33   14   62 1   
    34   15   16 1   
    35   15   63 1   
    36   15   64 1   
    37   16   17 1   
    38   17   18 1   
    39   17   65 1   
    40   17   66 1   
    41   18   19 1   
    42   18   67 1   
    43   18   68 1   
    44   19   20 1   
    45   20   21 1   
    46   20   69 1   
    47   20   70 1   
    48   21   22 1   
    49   21   71 1   
    50   21   72 1   
    51   22   23 1   
    52   23   24 1   
    53   23   73 1   
    54   23   74 1   
    55   24   25 1   
    56   24   75 1   
    57   24   76 1   
    58   25   26 1   
    59   26   27 1   
    60   26   77 1   
    61   26   78 1   
    62   27   28 1   
    63   27   79 1   
    64   27   80 1   
    65   28   29 1   
    66   29   30 1   
    67   29   81 1   
    68   29   82 1   
    69   30   31 1   
    70   30   83 1   
    71   30   84 1   
    72   31   32 1   
    73   32   33 1   
    74   32   85 1   
    75   32   86 1   
    76   33   34 1   
    77   33   87 1   
    78   33   88 1   
    79   34   35 1   
    80   35   36 1   
    81   35   89 1   
    82   35   90 1   
    83   36   37 1   
    84   36   91 1   
    85   36   92 1   
    86   37   38 1   
    87   38   39 1   
    88   38   93 1   
    89   38   94 1   
    90   39   40 1   
    91   39   95 1   
    92   39   96 1   
    93   40   41 1   
    94   41   42 1   
    95   41   97 1   
    96   41   98 1   
    97   42   43 1   
    98   42   99 1   
    99   42  100 1   
   100   43  101 1   
@<TRIPOS>SUBSTRUCTURE
     1 PE3         1 TEMP              0 ****  ****    0 ROOT
