@<TRIPOS>MOLECULE
PE3
  101   100     1     0     0
SMALL
bcc


@<TRIPOS>ATOM
      1 O43        10.0330    2.8910   -3.7580 oh        1 PE3     -0.597800
      2 C42         9.7480    1.7540   -4.5300 c3        1 PE3      0.126400
      3 C41         8.8220    2.1570   -5.7350 c3        1 PE3      0.111400
      4 O40         8.4310    0.9790   -6.4520 os        1 PE3     -0.428600
      5 C39         7.4140    1.2110   -7.4540 c3        1 PE3      0.128900
      6 C38         7.2980   -0.0030   -8.3420 c3        1 PE3      0.127900
      7 O37         6.2280   -0.8250   -7.8830 os        1 PE3     -0.428600
      8 C36         5.8930   -1.8640   -8.7630 c3        1 PE3      0.127900
      9 C35         4.8090   -2.7410   -8.1320 c3        1 PE3      0.128400
     10 O34         3.9410   -3.2070   -9.1340 os        1 PE3     -0.430100
     11 C33         3.5110   -4.5210   -8.9440 c3        1 PE3      0.128400
     12 C32         2.1960   -4.7380   -9.6910 c3        1 PE3      0.129400
     13 O31         1.1390   -4.9700   -8.7470 os        1 PE3     -0.429600
     14 C30         0.0130   -5.6610   -9.2960 c3        1 PE3      0.128900
     15 C29        -0.9210   -6.0990   -8.1650 c3        1 PE3      0.124400
     16 O28        -1.8650   -5.0970   -7.9290 os        1 PE3     -0.427100
     17 C27        -2.8740   -5.4680   -7.0360 c3        1 PE3      0.128400
     18 C26        -3.8200   -4.2670   -6.8010 c3        1 PE3      0.107400
     19 O25        -3.3220   -3.4690   -5.7280 os        1 PE3     -0.430100
     20 C24        -4.3500   -2.8880   -4.9150 c3        1 PE3      0.128900
     21 C23        -3.9640   -1.4620   -4.5510 c3        1 PE3      0.111400
     22 O22        -3.5390   -1.4170   -3.2010 os        1 PE3     -0.434600
     23 C21        -2.9700   -0.1690   -2.8160 c3        1 PE3      0.111400
     24 C20        -3.0750   -0.0010   -1.2720 c3        1 PE3      0.128900
     25 O19        -1.7790    0.3850   -0.7380 os        1 PE3     -0.430100
     26 C18        -1.6820    0.2930    0.7010 c3        1 PE3      0.107400
     27 C17        -0.3560    0.9410    1.1710 c3        1 PE3      0.128400
     28 O16        -0.4770    1.3380    2.5590 os        1 PE3     -0.427100
     29 C15         0.5810    0.8790    3.3850 c3        1 PE3      0.124400
     30 C14         0.6380    1.7330    4.6650 c3        1 PE3      0.128900
     31 O13        -0.0050    1.0350    5.7320 os        1 PE3     -0.429600
     32 C12         0.0440    1.7160    6.9830 c3        1 PE3      0.129400
     33 C11        -0.9560    1.0610    7.9650 c3        1 PE3      0.128400
     34 O10        -1.0800    1.8840    9.1580 os        1 PE3     -0.430100
     35 C9         -2.3490    1.7720    9.8030 c3        1 PE3      0.128400
     36 C8         -2.3310    2.5980   11.1670 c3        1 PE3      0.127900
     37 O7         -3.5610    3.2420   11.3420 os        1 PE3     -0.428600
     38 C6         -3.8210    3.6490   12.7020 c3        1 PE3      0.127900
     39 C5         -5.1720    4.3220   12.7740 c3        1 PE3      0.128900
     40 O4         -5.3480    4.8980   14.0550 os        1 PE3     -0.428600
     41 C3         -6.6540    5.4570   14.2670 c3        1 PE3      0.111400
     42 C2         -6.6850    6.2090   15.6420 c3        1 PE3      0.126400
     43 O1         -7.9860    6.7740   15.8470 oh        1 PE3     -0.597800
     44 H43        10.5340    2.6540   -3.0500 ho        1 PE3      0.401500
     45 H421       10.5840    1.3740   -4.8730 h1        1 PE3      0.047200
     46 H422        9.2850    1.0810   -3.9670 h1        1 PE3      0.047200
     47 H411        8.0220    2.6150   -5.3950 h1        1 PE3      0.037700
     48 H412        9.3110    2.7570   -6.3350 h1        1 PE3      0.037700
     49 H391        7.6620    1.9950   -8.0000 h1        1 PE3      0.043450
     50 H392        6.5490    1.3790   -7.0120 h1        1 PE3      0.043450
     51 H381        8.1400   -0.5130   -8.3120 h1        1 PE3      0.042450
     52 H382        7.1180    0.2850   -9.2770 h1        1 PE3      0.042450
     53 H361        6.6750   -2.3990   -8.9410 h1        1 PE3      0.044450
     54 H362        5.5620   -1.4890   -9.5950 h1        1 PE3      0.044450
     55 H351        4.2970   -2.2100   -7.4740 h1        1 PE3      0.044700
     56 H352        5.2310   -3.5100   -7.6770 h1        1 PE3      0.044700
     57 H331        4.1890   -5.1400   -9.2890 h1        1 PE3      0.040950
     58 H332        3.3740   -4.6850   -7.9880 h1        1 PE3      0.040950
     59 H321        2.2810   -5.5110  -10.2810 h1        1 PE3      0.041200
     60 H322        1.9860   -3.9350  -10.2280 h1        1 PE3      0.041200
     61 H301        0.3260   -6.4570   -9.7930 h1        1 PE3      0.042200
     62 H302       -0.4730   -5.0610   -9.9100 h1        1 PE3      0.042200
     63 H291       -1.3840   -6.9340   -8.4250 h1        1 PE3      0.046950
     64 H292       -0.3940   -6.2550   -7.3450 h1        1 PE3      0.046950
     65 H271       -2.4750   -5.7390   -6.1870 h1        1 PE3      0.051450
     66 H272       -3.3830   -6.2140   -7.4110 h1        1 PE3      0.051450
     67 H261       -3.8680   -3.7190   -7.6250 h1        1 PE3      0.048200
     68 H262       -4.7240   -4.6000   -6.5720 h1        1 PE3      0.048200
     69 H241       -4.4570   -3.4190   -4.0920 h1        1 PE3      0.050700
     70 H242       -5.1930   -2.8810   -5.4120 h1        1 PE3      0.050700
     71 H231       -3.2320   -1.1600   -5.1360 h1        1 PE3      0.042200
     72 H232       -4.7460   -0.8690   -4.6700 h1        1 PE3      0.042200
     73 H211       -3.4540    0.5600   -3.2570 h1        1 PE3      0.042200
     74 H212       -2.0230   -0.1440   -3.0850 h1        1 PE3      0.042200
     75 H201       -3.3570   -0.8530   -0.8660 h1        1 PE3      0.050700
     76 H202       -3.7320    0.6900   -1.0640 h1        1 PE3      0.050700
     77 H181       -2.4370    0.7630    1.1100 h1        1 PE3      0.048200
     78 H182       -1.6990   -0.6560    0.9720 h1        1 PE3      0.048200
     79 H171        0.3700    0.2970    1.0790 h1        1 PE3      0.051450
     80 H172       -0.1660    1.7220    0.6260 h1        1 PE3      0.051450
     81 H151        0.4250   -0.0650    3.6270 h1        1 PE3      0.046950
     82 H152        1.4390    0.9570    2.8970 h1        1 PE3      0.046950
     83 H141        1.5830    1.9050    4.9050 h1        1 PE3      0.042200
     84 H142        0.1830    2.5800    4.5100 h1        1 PE3      0.042200
     85 H121       -0.1970    2.6650    6.8510 h1        1 PE3      0.041200
     86 H122        0.9550    1.6570    7.3530 h1        1 PE3      0.041200
     87 H111       -0.6310    0.1700    8.2160 h1        1 PE3      0.040950
     88 H112       -1.8380    0.9790    7.5300 h1        1 PE3      0.040950
     89 H91        -3.0570    2.1340    9.2060 h1        1 PE3      0.044700
     90 H92        -2.5370    0.8220    9.9980 h1        1 PE3      0.044700
     91 H81        -2.1730    1.9830   11.9220 h1        1 PE3      0.044450
     92 H82        -1.6110    3.2700   11.1350 h1        1 PE3      0.044450
     93 H61        -3.8160    2.8580   13.2890 h1        1 PE3      0.042450
     94 H62        -3.1200    4.2820   12.9970 h1        1 PE3      0.042450
     95 H51        -5.8680    3.6660   12.6160 h1        1 PE3      0.043450
     96 H52        -5.2240    5.0220   12.0930 h1        1 PE3      0.043450
     97 H31        -7.3240    4.7350   14.2740 h1        1 PE3      0.037700
     98 H32        -6.8640    6.0950   13.5360 h1        1 PE3      0.037700
     99 H21        -6.4860    5.5770   16.3650 h1        1 PE3      0.047200
    100 H22        -6.0150    6.9230   15.6380 h1        1 PE3      0.047200
    101 HO1        -7.9210    7.6580   15.8890 ho        1 PE3      0.401500
@<TRIPOS>BOND
     1    1    2 1   
     2    1   44 1   
     3    2    3 1   
     4    2   45 1   
     5    2   46 1   
     6    3    4 1   
     7    3   47 1   
     8    3   48 1   
     9    4    5 1   
    10    5    6 1   
    11    5   49 1   
    12    5   50 1   
    13    6    7 1   
    14    6   51 1   
    15    6   52 1   
    16    7    8 1   
    17    8    9 1   
    18    8   53 1   
    19    8   54 1   
    20    9   10 1   
    21    9   55 1   
    22    9   56 1   
    23   10   11 1   
    24   11   12 1   
    25   11   57 1   
    26   11   58 1   
    27   12   13 1   
    28   12   59 1   
    29   12   60 1   
    30   13   14 1   
    31   14   15 1   
    32   14   61 1   
    33   14   62 1   
    34   15   16 1   
    35   15   63 1   
    36   15   64 1   
    37   16   17 1   
    38   17   18 1   
    39   17   65 1   
    40   17   66 1   
    41   18   19 1   
    42   18   67 1   
    43   18   68 1   
    44   19   20 1   
    45   20   21 1   
    46   20   69 1   
    47   20   70 1   
    48   21   22 1   
    49   21   71 1   
    50   21   72 1   
    51   22   23 1   
    52   23   24 1   
    53   23   73 1   
    54   23   74 1   
    55   24   25 1   
    56   24   75 1   
    57   24   76 1   
    58   25   26 1   
    59   26   27 1   
    60   26   77 1   
    61   26   78 1   
    62   27   28 1   
    63   27   79 1   
    64   27   80 1   
    65   28   29 1   
    66   29   30 1   
    67   29   81 1   
    68   29   82 1   
    69   30   31 1   
    70   30   83 1   
    71   30   84 1   
    72   31   32 1   
    73   32   33 1   
    74   32   85 1   
    75   32   86 1   
    76   33   34 1   
    77   33   87 1   
    78   33   88 1   
    79   34   35 1   
    80   35   36 1   
    81   35   89 1   
    82   35   90 1   
    83   36   37 1   
    84   36   91 1   
    85   36   92 1   
    86   37   38 1   
    87   38   39 1   
    88   38   93 1   
    89   38   94 1   
    90   39   40 1   
    91   39   95 1   
    92   39   96 1   
    93   40   41 1   
    94   41   42 1   
    95   41   97 1   
    96   41   98 1   
    97   42   43 1   
    98   42   99 1   
    99   42  100 1   
   100   43  101 1   
@<TRIPOS>SUBSTRUCTURE
     1 PE3         1 TEMP              0 ****  ****    0 ROOT
