@<TRIPOS>MOLECULE
PE4
   58    57     1     0     0
SMALL
bcc


@<TRIPOS>ATOM
      1 O1         -0.8200    2.6570    0.7870 oh        1 PE4     -0.600800
      2 C1         -1.4610    1.3990    0.7480 c3        1 PE4      0.131400
      3 C2         -0.5380    0.3140    0.2020 c3        1 PE4      0.087400
      4 O2          0.5060    0.1630    1.1610 os        1 PE4     -0.438600
      5 C3          1.4850   -0.7910    0.7530 c3        1 PE4      0.128400
      6 C4          2.4200   -0.9910    1.9420 c3        1 PE4      0.127400
      7 O3          2.1160   -2.2740    2.4830 os        1 PE4     -0.428600
      8 C5          2.8180   -2.5260    3.7000 c3        1 PE4      0.127400
      9 C6          2.5500   -3.9840    4.0600 c3        1 PE4      0.127400
     10 O4          3.7530   -4.6970    3.7820 os        1 PE4     -0.429600
     11 C7          3.5900   -6.1070    3.9260 c3        1 PE4      0.127400
     12 C8          4.9790   -6.7200    3.7800 c3        1 PE4      0.127400
     13 O5          5.3730   -7.1440    5.0840 os        1 PE4     -0.429600
     14 C9          6.7260   -7.5930    5.1190 c3        1 PE4      0.127400
     15 C10         6.9520   -8.1820    6.5070 c3        1 PE4      0.127400
     16 O6          7.0190   -9.5970    6.3410 os        1 PE4     -0.429600
     17 C11         7.0710  -10.2850    7.5890 c3        1 PE4      0.127400
     18 C12         7.3220  -11.7540    7.2640 c3        1 PE4      0.127400
     19 O7          8.6730  -12.0250    7.6290 os        1 PE4     -0.429600
     20 C13         9.0890  -13.3290    7.2290 c3        1 PE4      0.127400
     21 C14        10.4700  -13.5490    7.8400 c3        1 PE4      0.126400
     22 O8         10.3160  -14.5590    8.8330 os        1 PE4     -0.428600
     23 C15        11.5110  -14.7640    9.5850 c3        1 PE4      0.131400
     24 C16        11.2200  -15.8640   10.5800 c3        1 PE4     -0.097100
     25 HO1        -0.0240    2.5500    1.3240 ho        1 PE4      0.412000
     26 H11        -1.8210    1.1160    1.7730 h1        1 PE4      0.053200
     27 H12        -2.3350    1.5370    0.0580 h1        1 PE4      0.053200
     28 H21        -0.1020    0.6220   -0.7850 h1        1 PE4      0.039200
     29 H22        -1.0910   -0.6530    0.0860 h1        1 PE4      0.039200
     30 H31         0.9900   -1.7580    0.4690 h1        1 PE4      0.045200
     31 H32         2.0500   -0.3830   -0.1260 h1        1 PE4      0.045200
     32 H41         2.2570   -0.1940    2.7160 h1        1 PE4      0.043200
     33 H42         3.4900   -0.9760    1.6040 h1        1 PE4      0.043200
     34 H51         3.9160   -2.3460    3.5600 h1        1 PE4      0.044200
     35 H52         2.4220   -1.8470    4.5000 h1        1 PE4      0.044200
     36 H61         2.3090   -4.0780    5.1520 h1        1 PE4      0.043700
     37 H62         1.7030   -4.3960    3.4490 h1        1 PE4      0.043700
     38 H71         3.1520   -6.3470    4.9310 h1        1 PE4      0.043700
     39 H72         2.9090   -6.4830    3.1180 h1        1 PE4      0.043700
     40 H81         5.7070   -5.9670    3.3790 h1        1 PE4      0.043200
     41 H82         4.9430   -7.6110    3.0990 h1        1 PE4      0.043200
     42 H91         6.8990   -8.3670    4.3250 h1        1 PE4      0.043700
     43 H92         7.4090   -6.7190    4.9490 h1        1 PE4      0.043700
     44 H101        6.1080   -7.9120    7.1970 h1        1 PE4      0.043700
     45 H102        7.9220   -7.8150    6.9350 h1        1 PE4      0.043700
     46 H111        6.0890  -10.1640    8.1170 h1        1 PE4      0.043700
     47 H112        7.8960   -9.8720    8.2270 h1        1 PE4      0.043700
     48 H121        6.6390  -12.4100    7.8660 h1        1 PE4      0.043700
     49 H122        7.1680  -11.9520    6.1700 h1        1 PE4      0.043700
     50 H131        8.3630  -14.1000    7.6000 h1        1 PE4      0.043200
     51 H132        9.1430  -13.3700    6.1090 h1        1 PE4      0.043200
     52 H141       11.1920  -13.9050    7.0590 h1        1 PE4      0.041700
     53 H142       10.8550  -12.6020    8.3030 h1        1 PE4      0.041700
     54 H151       12.3440  -15.0570    8.8910 h1        1 PE4      0.024700
     55 H152       11.7920  -13.8100   10.1080 h1        1 PE4      0.024700
     56 H161       12.1300  -16.0550   11.1950 hc        1 PE4      0.045033
     57 H162       10.9310  -16.8020   10.0500 hc        1 PE4      0.045033
     58 H163       10.3790  -15.5680   11.2510 hc        1 PE4      0.045033
@<TRIPOS>BOND
     1    1    2 1   
     2    1   25 1   
     3    2    3 1   
     4    2   26 1   
     5    2   27 1   
     6    3    4 1   
     7    3   28 1   
     8    3   29 1   
     9    4    5 1   
    10    5    6 1   
    11    5   30 1   
    12    5   31 1   
    13    6    7 1   
    14    6   32 1   
    15    6   33 1   
    16    7    8 1   
    17    8    9 1   
    18    8   34 1   
    19    8   35 1   
    20    9   10 1   
    21    9   36 1   
    22    9   37 1   
    23   10   11 1   
    24   11   12 1   
    25   11   38 1   
    26   11   39 1   
    27   12   13 1   
    28   12   40 1   
    29   12   41 1   
    30   13   14 1   
    31   14   15 1   
    32   14   42 1   
    33   14   43 1   
    34   15   16 1   
    35   15   44 1   
    36   15   45 1   
    37   16   17 1   
    38   17   18 1   
    39   17   46 1   
    40   17   47 1   
    41   18   19 1   
    42   18   48 1   
    43   18   49 1   
    44   19   20 1   
    45   20   21 1   
    46   20   50 1   
    47   20   51 1   
    48   21   22 1   
    49   21   52 1   
    50   21   53 1   
    51   22   23 1   
    52   23   24 1   
    53   23   54 1   
    54   23   55 1   
    55   24   56 1   
    56   24   57 1   
    57   24   58 1   
@<TRIPOS>SUBSTRUCTURE
     1 PE4         1 TEMP              0 ****  ****    0 ROOT
