@<TRIPOS>MOLECULE
PE4
   58    57     1     0     0
SMALL
bcc


@<TRIPOS>ATOM
      1 O1        -10.9740   -0.6520   -0.2830 oh        1 PE4     -0.602800
      2 C1        -10.1460   -1.0730   -1.3580 c3        1 PE4      0.127400
      3 C2         -8.7980   -0.3230   -1.3000 c3        1 PE4      0.129400
      4 O2         -7.9290   -0.8330   -2.3020 os        1 PE4     -0.431600
      5 C3         -6.6480   -0.2200   -2.3200 c3        1 PE4      0.130400
      6 C4         -5.7460   -0.9610   -3.2860 c3        1 PE4      0.128400
      7 O3         -4.4540   -0.3580   -3.2900 os        1 PE4     -0.428600
      8 C5         -3.4790   -1.0910   -4.0280 c3        1 PE4      0.128400
      9 C6         -2.2400   -0.2140   -4.2520 c3        1 PE4      0.128400
     10 O4         -1.0780   -0.9510   -3.9390 os        1 PE4     -0.429600
     11 C7          0.1320   -0.2620   -4.2090 c3        1 PE4      0.128400
     12 C8          1.3230   -1.0940   -3.6910 c3        1 PE4      0.130400
     13 O5          2.2200   -0.2490   -2.9590 os        1 PE4     -0.430600
     14 C9          3.3650   -0.9490   -2.4100 c3        1 PE4      0.130400
     15 C10         4.2370    0.0240   -1.6580 c3        1 PE4      0.128400
     16 O6          4.5470   -0.5120   -0.3620 os        1 PE4     -0.429600
     17 C11         5.2570    0.3980    0.4830 c3        1 PE4      0.128400
     18 C12         5.5160   -0.2650    1.8620 c3        1 PE4      0.127400
     19 O7          5.0440    0.5950    2.9000 os        1 PE4     -0.428600
     20 C13         5.6680    0.3680    4.1710 c3        1 PE4      0.127400
     21 C14         4.7970    0.9370    5.2710 c3        1 PE4      0.126400
     22 O8          5.6220    1.5680    6.2550 os        1 PE4     -0.428600
     23 C15         4.9110    2.0020    7.4060 c3        1 PE4      0.131400
     24 C16         5.8580    2.7840    8.3290 c3        1 PE4     -0.097100
     25 HO1       -11.6950   -1.1750   -0.2410 ho        1 PE4      0.405000
     26 H11       -10.5940   -0.8760   -2.2120 h1        1 PE4      0.035700
     27 H12        -9.9860   -2.0370   -1.2880 h1        1 PE4      0.035700
     28 H21        -8.3900   -0.4510   -0.4170 h1        1 PE4      0.042700
     29 H22        -8.9480    0.6350   -1.4540 h1        1 PE4      0.042700
     30 H31        -6.7360    0.7110   -2.6070 h1        1 PE4      0.042700
     31 H32        -6.2590   -0.2490   -1.4220 h1        1 PE4      0.042700
     32 H41        -5.6680   -1.9000   -3.0070 h1        1 PE4      0.041200
     33 H42        -6.1270   -0.9190   -4.1860 h1        1 PE4      0.041200
     34 H51        -3.8530   -1.3520   -4.8920 h1        1 PE4      0.044700
     35 H52        -3.2230   -1.8970   -3.5230 h1        1 PE4      0.044700
     36 H61        -2.2050    0.0670   -5.1870 h1        1 PE4      0.044700
     37 H62        -2.2900    0.5720   -3.6780 h1        1 PE4      0.044700
     38 H71         0.2240   -0.1260   -5.1890 h1        1 PE4      0.041200
     39 H72         0.1200    0.6130   -3.7570 h1        1 PE4      0.041200
     40 H81         1.7950   -1.4920   -4.4460 h1        1 PE4      0.042200
     41 H82         0.9930   -1.8020   -3.1040 h1        1 PE4      0.042200
     42 H91         3.0580   -1.6480   -1.8020 h1        1 PE4      0.042200
     43 H92         3.8820   -1.3530   -3.1390 h1        1 PE4      0.042200
     44 H101        5.0650    0.1710   -2.1560 h1        1 PE4      0.041200
     45 H102        3.7670    0.8670   -1.5550 h1        1 PE4      0.041200
     46 H111        6.1170    0.6320    0.0640 h1        1 PE4      0.044700
     47 H112        4.7220    1.2130    0.6080 h1        1 PE4      0.044700
     48 H121        6.4770   -0.4170    1.9760 h1        1 PE4      0.044200
     49 H122        5.0450   -1.1190    1.9070 h1        1 PE4      0.044200
     50 H131        6.5420    0.8050    4.1880 h1        1 PE4      0.043200
     51 H132        5.7820   -0.6020    4.3120 h1        1 PE4      0.043200
     52 H141        4.1850    1.5920    4.8930 h1        1 PE4      0.042200
     53 H142        4.2850    0.2130    5.6900 h1        1 PE4      0.042200
     54 H151        4.5570    1.2220    7.8850 h1        1 PE4      0.024700
     55 H152        4.1700    2.5810    7.1330 h1        1 PE4      0.024700
     56 H161        6.3470    3.4560    7.8020 hc        1 PE4      0.045033
     57 H162        6.4990    2.1630    8.7440 hc        1 PE4      0.045033
     58 H163        5.3360    3.2340    9.0310 hc        1 PE4      0.045033
@<TRIPOS>BOND
     1    1    2 1   
     2    1   25 1   
     3    2    3 1   
     4    2   26 1   
     5    2   27 1   
     6    3    4 1   
     7    3   28 1   
     8    3   29 1   
     9    4    5 1   
    10    5    6 1   
    11    5   30 1   
    12    5   31 1   
    13    6    7 1   
    14    6   32 1   
    15    6   33 1   
    16    7    8 1   
    17    8    9 1   
    18    8   34 1   
    19    8   35 1   
    20    9   10 1   
    21    9   36 1   
    22    9   37 1   
    23   10   11 1   
    24   11   12 1   
    25   11   38 1   
    26   11   39 1   
    27   12   13 1   
    28   12   40 1   
    29   12   41 1   
    30   13   14 1   
    31   14   15 1   
    32   14   42 1   
    33   14   43 1   
    34   15   16 1   
    35   15   44 1   
    36   15   45 1   
    37   16   17 1   
    38   17   18 1   
    39   17   46 1   
    40   17   47 1   
    41   18   19 1   
    42   18   48 1   
    43   18   49 1   
    44   19   20 1   
    45   20   21 1   
    46   20   50 1   
    47   20   51 1   
    48   21   22 1   
    49   21   52 1   
    50   21   53 1   
    51   22   23 1   
    52   23   24 1   
    53   23   54 1   
    54   23   55 1   
    55   24   56 1   
    56   24   57 1   
    57   24   58 1   
@<TRIPOS>SUBSTRUCTURE
     1 PE4         1 TEMP              0 ****  ****    0 ROOT
