@<TRIPOS>MOLECULE
PE4
   58    57     1     0     0
SMALL
bcc


@<TRIPOS>ATOM
      1 O1         -0.8230    0.6860  -11.8490 oh        1 PE4     -0.600800
      2 C1         -0.7230   -0.5950  -11.2620 c3        1 PE4      0.131400
      3 C2          0.3800   -0.6470  -10.2090 c3        1 PE4      0.087400
      4 O2         -0.0450    0.2090   -9.1500 os        1 PE4     -0.438600
      5 C3          0.9230    0.3020   -8.1060 c3        1 PE4      0.128400
      6 C4          0.2650    1.0790   -6.9710 c3        1 PE4      0.127400
      7 O3         -0.0220    0.1310   -5.9450 os        1 PE4     -0.428600
      8 C5         -0.7830    0.7010   -4.8810 c3        1 PE4      0.127400
      9 C6         -0.8530   -0.3570   -3.7850 c3        1 PE4      0.127400
     10 O4          0.0170    0.0800   -2.7440 os        1 PE4     -0.429600
     11 C7          0.1670   -0.9000   -1.7180 c3        1 PE4      0.127400
     12 C8          0.9610   -0.2370   -0.5980 c3        1 PE4      0.127400
     13 O5          0.0390    0.0040    0.4640 os        1 PE4     -0.429600
     14 C9          0.6190    0.7680    1.5190 c3        1 PE4      0.127400
     15 C10        -0.4040    0.7900    2.6500 c3        1 PE4      0.127400
     16 O6          0.1030   -0.0650    3.6730 os        1 PE4     -0.429600
     17 C11        -0.8370   -0.2620    4.7270 c3        1 PE4      0.127400
     18 C12        -0.1060   -1.0340    5.8210 c3        1 PE4      0.127400
     19 O7          0.1270   -0.1110    6.8820 os        1 PE4     -0.429600
     20 C13         0.9460   -0.6650    7.9100 c3        1 PE4      0.127400
     21 C14         0.9540    0.3490    9.0500 c3        1 PE4      0.126400
     22 O8          0.2360   -0.2480   10.1270 os        1 PE4     -0.428600
     23 C15         0.0450    0.6550   11.2150 c3        1 PE4      0.131400
     24 C16        -0.7030   -0.1020   12.2870 c3        1 PE4     -0.097100
     25 HO1        -0.9740    1.3130  -11.1300 ho        1 PE4      0.412000
     26 H11        -0.4710   -1.2860  -12.1100 h1        1 PE4      0.053200
     27 H12        -1.7040   -0.8880  -10.8050 h1        1 PE4      0.053200
     28 H21         1.3500   -0.2740  -10.6300 h1        1 PE4      0.039200
     29 H22         0.5100   -1.6920   -9.8250 h1        1 PE4      0.039200
     30 H31         1.8230    0.8530   -8.4890 h1        1 PE4      0.045200
     31 H32         1.2250   -0.7240   -7.7640 h1        1 PE4      0.045200
     32 H41        -0.6810    1.5710   -7.3210 h1        1 PE4      0.043200
     33 H42         0.9690    1.8550   -6.5700 h1        1 PE4      0.043200
     34 H51        -1.8110    0.9460   -5.2550 h1        1 PE4      0.044200
     35 H52        -0.2850    1.6330   -4.5040 h1        1 PE4      0.044200
     36 H61        -0.5230   -1.3570   -4.1740 h1        1 PE4      0.043700
     37 H62        -1.8980   -0.4350   -3.3840 h1        1 PE4      0.043700
     38 H71         0.7300   -1.7790   -2.1290 h1        1 PE4      0.043700
     39 H72        -0.8390   -1.2340   -1.3500 h1        1 PE4      0.043700
     40 H81         1.4120    0.7300   -0.9470 h1        1 PE4      0.043200
     41 H82         1.7710   -0.9220   -0.2340 h1        1 PE4      0.043200
     42 H91         0.8200    1.8080    1.1530 h1        1 PE4      0.043700
     43 H92         1.5780    0.2950    1.8600 h1        1 PE4      0.043700
     44 H101       -1.4010    0.4190    2.2930 h1        1 PE4      0.043700
     45 H102       -0.5120    1.8290    3.0590 h1        1 PE4      0.043700
     46 H111       -1.7040   -0.8580    4.3400 h1        1 PE4      0.043700
     47 H112       -1.2010    0.7270    5.1130 h1        1 PE4      0.043700
     48 H121        0.8690   -1.4400    5.4390 h1        1 PE4      0.043700
     49 H122       -0.7430   -1.8760    6.1980 h1        1 PE4      0.043700
     50 H131        1.9830   -0.8180    7.5110 h1        1 PE4      0.043200
     51 H132        0.5260   -1.6470    8.2550 h1        1 PE4      0.043200
     52 H141        0.4600    1.3060    8.7350 h1        1 PE4      0.041700
     53 H142        2.0060    0.5610    9.3790 h1        1 PE4      0.041700
     54 H151       -0.5420    1.5450   10.8640 h1        1 PE4      0.024700
     55 H152        1.0440    1.0050   11.5900 h1        1 PE4      0.024700
     56 H161       -0.8780    0.5690   13.1600 hc        1 PE4      0.045033
     57 H162       -1.6850   -0.4600   11.8960 hc        1 PE4      0.045033
     58 H163       -0.1150   -0.9900   12.6200 hc        1 PE4      0.045033
@<TRIPOS>BOND
     1    1    2 1   
     2    1   25 1   
     3    2    3 1   
     4    2   26 1   
     5    2   27 1   
     6    3    4 1   
     7    3   28 1   
     8    3   29 1   
     9    4    5 1   
    10    5    6 1   
    11    5   30 1   
    12    5   31 1   
    13    6    7 1   
    14    6   32 1   
    15    6   33 1   
    16    7    8 1   
    17    8    9 1   
    18    8   34 1   
    19    8   35 1   
    20    9   10 1   
    21    9   36 1   
    22    9   37 1   
    23   10   11 1   
    24   11   12 1   
    25   11   38 1   
    26   11   39 1   
    27   12   13 1   
    28   12   40 1   
    29   12   41 1   
    30   13   14 1   
    31   14   15 1   
    32   14   42 1   
    33   14   43 1   
    34   15   16 1   
    35   15   44 1   
    36   15   45 1   
    37   16   17 1   
    38   17   18 1   
    39   17   46 1   
    40   17   47 1   
    41   18   19 1   
    42   18   48 1   
    43   18   49 1   
    44   19   20 1   
    45   20   21 1   
    46   20   50 1   
    47   20   51 1   
    48   21   22 1   
    49   21   52 1   
    50   21   53 1   
    51   22   23 1   
    52   23   24 1   
    53   23   54 1   
    54   23   55 1   
    55   24   56 1   
    56   24   57 1   
    57   24   58 1   
@<TRIPOS>SUBSTRUCTURE
     1 PE4         1 TEMP              0 ****  ****    0 ROOT
