@<TRIPOS>MOLECULE
PE4
   58    57     1     0     0
SMALL
bcc


@<TRIPOS>ATOM
      1 O1         -0.8690    2.6380    0.8240 oh        1 PE4     -0.600800
      2 C1         -1.4800    1.3690    0.7230 c3        1 PE4      0.131400
      3 C2         -0.5130    0.3220    0.1760 c3        1 PE4      0.087400
      4 O2          0.5000    0.1630    1.1670 os        1 PE4     -0.438600
      5 C3          1.5130   -0.7570    0.7650 c3        1 PE4      0.128400
      6 C4          2.4100   -0.9730    1.9790 c3        1 PE4      0.127400
      7 O3          2.1170   -2.2790    2.4700 os        1 PE4     -0.428600
      8 C5          2.7790   -2.5540    3.7040 c3        1 PE4      0.127400
      9 C6          2.5310   -4.0270    4.0100 c3        1 PE4      0.127400
     10 O4          3.7600   -4.7050    3.7610 os        1 PE4     -0.429600
     11 C7          3.6250   -6.1220    3.8580 c3        1 PE4      0.127400
     12 C8          5.0320   -6.7000    3.7550 c3        1 PE4      0.127400
     13 O5          5.3830   -7.1480    5.0630 os        1 PE4     -0.429600
     14 C9          6.7430   -7.5690    5.1430 c3        1 PE4      0.127400
     15 C10         6.9250   -8.1870    6.5250 c3        1 PE4      0.127400
     16 O6          7.0310   -9.5960    6.3290 os        1 PE4     -0.429600
     17 C11         7.0440  -10.3130    7.5610 c3        1 PE4      0.127400
     18 C12         7.3410  -11.7680    7.2130 c3        1 PE4      0.127400
     19 O7          8.6800  -12.0210    7.6330 os        1 PE4     -0.429600
     20 C13         9.1410  -13.3060    7.2220 c3        1 PE4      0.127400
     21 C14        10.4960  -13.5130    7.8920 c3        1 PE4      0.126400
     22 O8         10.3160  -14.5480    8.8550 os        1 PE4     -0.428600
     23 C15        11.4790  -14.7470    9.6580 c3        1 PE4      0.131400
     24 C16        11.1640  -15.8740   10.6140 c3        1 PE4     -0.097100
     25 HO1        -0.0900    2.5310    1.3850 ho        1 PE4      0.412000
     26 H11        -1.8680    1.0460    1.7250 h1        1 PE4      0.053200
     27 H12        -2.3320    1.5090    0.0060 h1        1 PE4      0.053200
     28 H21        -0.0510    0.6700   -0.7840 h1        1 PE4      0.039200
     29 H22        -1.0410   -0.6530    0.0110 h1        1 PE4      0.039200
     30 H31         1.0500   -1.7240    0.4340 h1        1 PE4      0.045200
     31 H32         2.0990   -0.3090   -0.0810 h1        1 PE4      0.045200
     32 H41         2.2030   -0.2050    2.7700 h1        1 PE4      0.043200
     33 H42         3.4910   -0.9250    1.6800 h1        1 PE4      0.043200
     34 H51         3.8780   -2.3460    3.6090 h1        1 PE4      0.044200
     35 H52         2.3400   -1.9070    4.5080 h1        1 PE4      0.044200
     36 H61         2.2490   -4.1590    5.0880 h1        1 PE4      0.043700
     37 H62         1.7200   -4.4390    3.3540 h1        1 PE4      0.043700
     38 H71         3.1510   -6.4000    4.8370 h1        1 PE4      0.043700
     39 H72         2.9880   -6.4890    3.0110 h1        1 PE4      0.043700
     40 H81         5.7590   -5.9200    3.4050 h1        1 PE4      0.043200
     41 H82         5.0460   -7.5720    3.0510 h1        1 PE4      0.043200
     42 H91         6.9660   -8.3200    4.3390 h1        1 PE4      0.043700
     43 H92         7.4120   -6.6770    5.0220 h1        1 PE4      0.043700
     44 H101        6.0480   -7.9520    7.1850 h1        1 PE4      0.043700
     45 H102        7.8680   -7.8100    7.0010 h1        1 PE4      0.043700
     46 H111        6.0380  -10.2250    8.0490 h1        1 PE4      0.043700
     47 H112        7.8330   -9.8980    8.2440 h1        1 PE4      0.043700
     48 H121        6.6450  -12.4530    7.7660 h1        1 PE4      0.043700
     49 H122        7.2410  -11.9410    6.1080 h1        1 PE4      0.043700
     50 H131        8.4140  -14.1000    7.5410 h1        1 PE4      0.043200
     51 H132        9.2470  -13.3190    6.1060 h1        1 PE4      0.043200
     52 H141       11.2610  -13.8390    7.1380 h1        1 PE4      0.041700
     53 H142       10.8410  -12.5700    8.3930 h1        1 PE4      0.041700
     54 H151       12.3490  -15.0080    8.9980 h1        1 PE4      0.024700
     55 H152       11.7170  -13.8000   10.2130 h1        1 PE4      0.024700
     56 H161       12.0490  -16.0620   11.2680 hc        1 PE4      0.045033
     57 H162       10.9190  -16.8060   10.0510 hc        1 PE4      0.045033
     58 H163       10.2870  -15.6090   11.2520 hc        1 PE4      0.045033
@<TRIPOS>BOND
     1    1    2 1   
     2    1   25 1   
     3    2    3 1   
     4    2   26 1   
     5    2   27 1   
     6    3    4 1   
     7    3   28 1   
     8    3   29 1   
     9    4    5 1   
    10    5    6 1   
    11    5   30 1   
    12    5   31 1   
    13    6    7 1   
    14    6   32 1   
    15    6   33 1   
    16    7    8 1   
    17    8    9 1   
    18    8   34 1   
    19    8   35 1   
    20    9   10 1   
    21    9   36 1   
    22    9   37 1   
    23   10   11 1   
    24   11   12 1   
    25   11   38 1   
    26   11   39 1   
    27   12   13 1   
    28   12   40 1   
    29   12   41 1   
    30   13   14 1   
    31   14   15 1   
    32   14   42 1   
    33   14   43 1   
    34   15   16 1   
    35   15   44 1   
    36   15   45 1   
    37   16   17 1   
    38   17   18 1   
    39   17   46 1   
    40   17   47 1   
    41   18   19 1   
    42   18   48 1   
    43   18   49 1   
    44   19   20 1   
    45   20   21 1   
    46   20   50 1   
    47   20   51 1   
    48   21   22 1   
    49   21   52 1   
    50   21   53 1   
    51   22   23 1   
    52   23   24 1   
    53   23   54 1   
    54   23   55 1   
    55   24   56 1   
    56   24   57 1   
    57   24   58 1   
@<TRIPOS>SUBSTRUCTURE
     1 PE4         1 TEMP              0 ****  ****    0 ROOT
