@<TRIPOS>MOLECULE
PE5
   65    64     1     0     0
SMALL
bcc


@<TRIPOS>ATOM
      1 C48        -0.3460   -0.4380   13.9020 c3        1 PE5     -0.097100
      2 C50        -0.6460    0.5560   12.8050 c3        1 PE5      0.131400
      3 O1          0.2620    0.2820   11.7380 os        1 PE5     -0.428600
      4 C1          0.0900    1.1740   10.6400 c3        1 PE5      0.126400
      5 C2          1.0050    0.6700    9.5270 c3        1 PE5      0.127400
      6 O2          0.1520    0.1850    8.4920 os        1 PE5     -0.429600
      7 C3          0.8800   -0.4700    7.4560 c3        1 PE5      0.127400
      8 C4         -0.1220   -0.7760    6.3480 c3        1 PE5      0.127400
      9 O3          0.1640    0.1270    5.2820 os        1 PE5     -0.429600
     10 C5         -0.8080    0.0590    4.2410 c3        1 PE5      0.127400
     11 C6         -0.2880    0.9320    3.1040 c3        1 PE5      0.127400
     12 O4          0.1370    0.0440    2.0730 os        1 PE5     -0.429600
     13 C7          0.8010    0.7270    1.0110 c3        1 PE5      0.127400
     14 C8          1.0360   -0.3040   -0.0870 c3        1 PE5      0.127400
     15 O5          0.1230    0.0060   -1.1370 os        1 PE5     -0.429600
     16 C9          0.1230   -0.9830   -2.1640 c3        1 PE5      0.127400
     17 C10        -0.7520   -0.4410   -3.2890 c3        1 PE5      0.127400
     18 O6          0.1310   -0.0660   -4.3450 os        1 PE5     -0.429600
     19 C11        -0.5460    0.6130   -5.3990 c3        1 PE5      0.127400
     20 C12         0.4710    0.7960   -6.5210 c3        1 PE5      0.127400
     21 O7          0.1140   -0.1300   -7.5460 os        1 PE5     -0.428600
     22 C13         1.0870   -0.1840   -8.5870 c3        1 PE5      0.127400
     23 C14         0.5010   -1.0720   -9.6800 c3        1 PE5      0.128400
     24 O8          0.1280   -0.2060  -10.7510 os        1 PE5     -0.438600
     25 C15        -0.5950   -0.8870  -11.7730 c3        1 PE5      0.087400
     26 C16        -0.8660    0.1470  -12.8610 c3        1 PE5      0.131400
     27 O52         0.3280    0.5720  -13.4840 oh        1 PE5     -0.600800
     28 H481       -1.0380   -0.2620   14.7590 hc        1 PE5      0.045033
     29 H482       -0.4810   -1.4810   13.5290 hc        1 PE5      0.045033
     30 H483        0.7080   -0.3250   14.2530 hc        1 PE5      0.045033
     31 H501       -1.7000    0.4450   12.4350 h1        1 PE5      0.024700
     32 H502       -0.4960    1.6100   13.1620 h1        1 PE5      0.024700
     33 H11        -0.9810    1.1770   10.3040 h1        1 PE5      0.041700
     34 H12         0.3880    2.2090   10.9540 h1        1 PE5      0.041700
     35 H21         1.6330    1.5080    9.1240 h1        1 PE5      0.043200
     36 H22         1.6700   -0.1530    9.9010 h1        1 PE5      0.043200
     37 H31         1.7020    0.1940    7.0780 h1        1 PE5      0.043200
     38 H32         1.3190   -1.4210    7.8600 h1        1 PE5      0.043200
     39 H41         0.0070   -1.8290    5.9830 h1        1 PE5      0.043700
     40 H42        -1.1740   -0.6280    6.7110 h1        1 PE5      0.043700
     41 H51        -0.9390   -1.0030    3.9010 h1        1 PE5      0.043200
     42 H52A       -1.7860    0.4550    4.6230 h1        1 PE5      0.043200
     43 H61        -1.1060    1.5900    2.7100 h1        1 PE5      0.043700
     44 H62         0.5720    1.5650    3.4500 h1        1 PE5      0.043700
     45 H71         0.1650    1.5720    0.6350 h1        1 PE5      0.043200
     46 H72         1.7790    1.1290    1.3870 h1        1 PE5      0.043200
     47 H81         2.0860   -0.2280   -0.4780 h1        1 PE5      0.043700
     48 H82         0.8510   -1.3430    0.2950 h1        1 PE5      0.043700
     49 H91         1.1700   -1.1670   -2.5260 h1        1 PE5      0.043200
     50 H92        -0.3080   -1.9360   -1.7570 h1        1 PE5      0.043200
     51 H101       -1.4510   -1.2370   -3.6590 h1        1 PE5      0.043700
     52 H102       -1.3420    0.4480   -2.9410 h1        1 PE5      0.043700
     53 H111       -1.4230    0.0080   -5.7510 h1        1 PE5      0.043700
     54 H112       -0.9010    1.6110   -5.0270 h1        1 PE5      0.043700
     55 H121        0.4170    1.8380   -6.9320 h1        1 PE5      0.044200
     56 H122        1.5100    0.5880   -6.1530 h1        1 PE5      0.044200
     57 H131        1.2940    0.8480   -8.9780 h1        1 PE5      0.043200
     58 H132        2.0340   -0.6320   -8.1850 h1        1 PE5      0.043200
     59 H141        1.2720   -1.7990  -10.0490 h1        1 PE5      0.045200
     60 H142       -0.3960   -1.6300   -9.3020 h1        1 PE5      0.045200
     61 H151        0.0230   -1.7340  -12.1730 h1        1 PE5      0.039200
     62 H152       -1.5580   -1.2850  -11.3580 h1        1 PE5      0.039200
     63 H161       -1.4760   -0.3160  -13.6820 h1        1 PE5      0.053200
     64 H162       -1.4100    1.0270  -12.4270 h1        1 PE5      0.053200
     65 H52         0.9010    0.9160  -12.7870 ho        1 PE5      0.412000
@<TRIPOS>BOND
     1    1    2 1   
     2    1   28 1   
     3    1   29 1   
     4    1   30 1   
     5    2    3 1   
     6    2   31 1   
     7    2   32 1   
     8    3    4 1   
     9    4    5 1   
    10    4   33 1   
    11    4   34 1   
    12    5    6 1   
    13    5   35 1   
    14    5   36 1   
    15    6    7 1   
    16    7    8 1   
    17    7   37 1   
    18    7   38 1   
    19    8    9 1   
    20    8   39 1   
    21    8   40 1   
    22    9   10 1   
    23   10   11 1   
    24   10   41 1   
    25   10   42 1   
    26   11   12 1   
    27   11   43 1   
    28   11   44 1   
    29   12   13 1   
    30   13   14 1   
    31   13   45 1   
    32   13   46 1   
    33   14   15 1   
    34   14   47 1   
    35   14   48 1   
    36   15   16 1   
    37   16   17 1   
    38   16   49 1   
    39   16   50 1   
    40   17   18 1   
    41   17   51 1   
    42   17   52 1   
    43   18   19 1   
    44   19   20 1   
    45   19   53 1   
    46   19   54 1   
    47   20   21 1   
    48   20   55 1   
    49   20   56 1   
    50   21   22 1   
    51   22   23 1   
    52   22   57 1   
    53   22   58 1   
    54   23   24 1   
    55   23   59 1   
    56   23   60 1   
    57   24   25 1   
    58   25   26 1   
    59   25   61 1   
    60   25   62 1   
    61   26   27 1   
    62   26   63 1   
    63   26   64 1   
    64   27   65 1   
@<TRIPOS>SUBSTRUCTURE
     1 PE5         1 TEMP              0 ****  ****    0 ROOT
