@<TRIPOS>MOLECULE
PE5
   65    64     1     0     0
SMALL
bcc


@<TRIPOS>ATOM
      1 C48        -0.2160    3.7340    0.0730 c3        1 PE5     -0.097100
      2 C50        -0.4010    2.6730    1.1330 c3        1 PE5      0.131400
      3 O1          0.3540    1.5360    0.7170 os        1 PE5     -0.428600
      4 C1          0.2450    0.4500    1.6340 c3        1 PE5      0.126400
      5 C2          1.2150   -0.6240    1.1500 c3        1 PE5      0.127400
      6 O2          2.2580   -0.6930    2.1200 os        1 PE5     -0.429600
      7 C3          3.3240   -1.5440    1.7060 c3        1 PE5      0.127400
      8 C4          4.2710   -1.6630    2.8960 c3        1 PE5      0.127400
      9 O3          4.0990   -2.9780    3.4200 os        1 PE5     -0.429600
     10 C5          4.8090   -3.1690    4.6420 c3        1 PE5      0.127400
     11 C6          4.6840   -4.6490    4.9890 c3        1 PE5      0.127400
     12 O4          5.9630   -5.2310    4.7470 os        1 PE5     -0.429600
     13 C7          5.9430   -6.6520    4.8760 c3        1 PE5      0.127400
     14 C8          7.3910   -7.1170    4.7700 c3        1 PE5      0.127400
     15 O5          7.7860   -7.5110    6.0830 os        1 PE5     -0.429600
     16 C9          9.1780   -7.8160    6.1590 c3        1 PE5      0.127400
     17 C10         9.4210   -8.3850    7.5530 c3        1 PE5      0.127400
     18 O6          9.6370   -9.7850    7.3860 os        1 PE5     -0.429600
     19 C11         9.7120  -10.4720    8.6340 c3        1 PE5      0.127400
     20 C12        10.1140  -11.9070    8.3150 c3        1 PE5      0.127400
     21 O7         11.4770  -12.0450    8.7140 os        1 PE5     -0.428600
     22 C13        12.0330  -13.2960    8.3150 c3        1 PE5      0.127400
     23 C14        13.4180  -13.3750    8.9480 c3        1 PE5      0.128400
     24 O8         13.3250  -14.3190   10.0130 os        1 PE5     -0.438600
     25 C15        14.5100  -14.3630   10.8050 c3        1 PE5      0.087400
     26 C16        14.2800  -15.4480   11.8520 c3        1 PE5      0.131400
     27 O52        14.1900  -16.7290   11.2630 oh        1 PE5     -0.600800
     28 H481       -0.5850    3.3650   -0.9140 hc        1 PE5      0.045033
     29 H482        0.8640    3.9950   -0.0320 hc        1 PE5      0.045033
     30 H483       -0.7890    4.6470    0.3600 hc        1 PE5      0.045033
     31 H501       -0.0230    3.0280    2.1300 h1        1 PE5      0.024700
     32 H502       -1.4820    2.3870    1.2360 h1        1 PE5      0.024700
     33 H11         0.5100    0.7880    2.6710 h1        1 PE5      0.041700
     34 H12        -0.8070    0.0620    1.6230 h1        1 PE5      0.041700
     35 H21         1.6360   -0.3550    0.1440 h1        1 PE5      0.043200
     36 H22         0.7020   -1.6190    1.0890 h1        1 PE5      0.043200
     37 H31         2.9260   -2.5510    1.4110 h1        1 PE5      0.043200
     38 H32         3.8510   -1.0760    0.8320 h1        1 PE5      0.043200
     39 H41         4.0250   -0.8970    3.6780 h1        1 PE5      0.043700
     40 H42         5.3350   -1.5360    2.5640 h1        1 PE5      0.043700
     41 H51         5.8860   -2.8800    4.5140 h1        1 PE5      0.043200
     42 H52A        4.3410   -2.5380    5.4430 h1        1 PE5      0.043200
     43 H61         4.4210   -4.7760    6.0720 h1        1 PE5      0.043700
     44 H62         3.9050   -5.1430    4.3500 h1        1 PE5      0.043700
     45 H71         5.5000   -6.9460    5.8640 h1        1 PE5      0.043200
     46 H72         5.3300   -7.0880    4.0430 h1        1 PE5      0.043200
     47 H81         8.0500   -6.2880    4.3980 h1        1 PE5      0.043700
     48 H82         7.4690   -8.0000    4.0820 h1        1 PE5      0.043700
     49 H91         9.4560   -8.5630    5.3690 h1        1 PE5      0.043200
     50 H92         9.7690   -6.8740    6.0130 h1        1 PE5      0.043200
     51 H101       10.3350   -7.9240    8.0100 h1        1 PE5      0.043700
     52 H102        8.5340   -8.2040    8.2170 h1        1 PE5      0.043700
     53 H111        8.7050  -10.4490    9.1290 h1        1 PE5      0.043700
     54 H112       10.4720   -9.9840    9.3010 h1        1 PE5      0.043700
     55 H121        9.4860  -12.6290    8.9000 h1        1 PE5      0.044200
     56 H122       10.0080  -12.1160    7.2170 h1        1 PE5      0.044200
     57 H131       12.1130  -13.3240    7.1960 h1        1 PE5      0.043200
     58 H132       11.3830  -14.1400    8.6690 h1        1 PE5      0.043200
     59 H141       13.7330  -12.3730    9.3440 h1        1 PE5      0.045200
     60 H142       14.1710  -13.7390    8.2010 h1        1 PE5      0.045200
     61 H151       15.3890  -14.6150   10.1560 h1        1 PE5      0.039200
     62 H152       14.6760  -13.3690   11.2970 h1        1 PE5      0.039200
     63 H161       13.3480  -15.2260   12.4370 h1        1 PE5      0.053200
     64 H162       15.1630  -15.5050   12.5410 h1        1 PE5      0.053200
     65 H52        13.4760  -16.6900   10.6140 ho        1 PE5      0.412000
@<TRIPOS>BOND
     1    1    2 1   
     2    1   28 1   
     3    1   29 1   
     4    1   30 1   
     5    2    3 1   
     6    2   31 1   
     7    2   32 1   
     8    3    4 1   
     9    4    5 1   
    10    4   33 1   
    11    4   34 1   
    12    5    6 1   
    13    5   35 1   
    14    5   36 1   
    15    6    7 1   
    16    7    8 1   
    17    7   37 1   
    18    7   38 1   
    19    8    9 1   
    20    8   39 1   
    21    8   40 1   
    22    9   10 1   
    23   10   11 1   
    24   10   41 1   
    25   10   42 1   
    26   11   12 1   
    27   11   43 1   
    28   11   44 1   
    29   12   13 1   
    30   13   14 1   
    31   13   45 1   
    32   13   46 1   
    33   14   15 1   
    34   14   47 1   
    35   14   48 1   
    36   15   16 1   
    37   16   17 1   
    38   16   49 1   
    39   16   50 1   
    40   17   18 1   
    41   17   51 1   
    42   17   52 1   
    43   18   19 1   
    44   19   20 1   
    45   19   53 1   
    46   19   54 1   
    47   20   21 1   
    48   20   55 1   
    49   20   56 1   
    50   21   22 1   
    51   22   23 1   
    52   22   57 1   
    53   22   58 1   
    54   23   24 1   
    55   23   59 1   
    56   23   60 1   
    57   24   25 1   
    58   25   26 1   
    59   25   61 1   
    60   25   62 1   
    61   26   27 1   
    62   26   63 1   
    63   26   64 1   
    64   27   65 1   
@<TRIPOS>SUBSTRUCTURE
     1 PE5         1 TEMP              0 ****  ****    0 ROOT
