@<TRIPOS>MOLECULE
PE5
   65    64     1     0     0
SMALL
bcc


@<TRIPOS>ATOM
      1 C48        -0.2720    3.6900    0.0540 c3        1 PE5     -0.097100
      2 C50        -0.4770    2.5870    1.0660 c3        1 PE5      0.131400
      3 O1          0.3490    1.4960    0.6610 os        1 PE5     -0.428600
      4 C1          0.2280    0.3750    1.5340 c3        1 PE5      0.126400
      5 C2          1.2680   -0.6430    1.0760 c3        1 PE5      0.127400
      6 O2          2.2520   -0.7070    2.1070 os        1 PE5     -0.429600
      7 C3          3.3760   -1.5000    1.7320 c3        1 PE5      0.127400
      8 C4          4.2510   -1.6270    2.9750 c3        1 PE5      0.127400
      9 O3          4.1010   -2.9670    3.4410 os        1 PE5     -0.429600
     10 C5          4.7450   -3.1780    4.6950 c3        1 PE5      0.127400
     11 C6          4.6580   -4.6730    4.9810 c3        1 PE5      0.127400
     12 O4          5.9690   -5.2000    4.7880 os        1 PE5     -0.429600
     13 C7          5.9940   -6.6240    4.8590 c3        1 PE5      0.127400
     14 C8          7.4620   -7.0350    4.8120 c3        1 PE5      0.127400
     15 O5          7.8010   -7.4790    6.1240 os        1 PE5     -0.429600
     16 C9          9.1960   -7.7410    6.2610 c3        1 PE5      0.127400
     17 C10         9.3840   -8.3730    7.6370 c3        1 PE5      0.127400
     18 O6          9.6510   -9.7560    7.4140 os        1 PE5     -0.429600
     19 C11         9.6840  -10.5020    8.6300 c3        1 PE5      0.127400
     20 C12        10.1430  -11.9090    8.2620 c3        1 PE5      0.127400
     21 O7         11.4880  -12.0290    8.7200 os        1 PE5     -0.428600
     22 C13        12.0990  -13.2430    8.2880 c3        1 PE5      0.127400
     23 C14        13.4540  -13.3160    8.9840 c3        1 PE5      0.128400
     24 O8         13.3400  -14.3180    9.9930 os        1 PE5     -0.438600
     25 C15        14.4860  -14.3710   10.8390 c3        1 PE5      0.087400
     26 C16        14.2410  -15.5180   11.8140 c3        1 PE5      0.131400
     27 O52        14.2200  -16.7670   11.1550 oh        1 PE5     -0.600800
     28 H481       -0.5630    3.3430   -0.9650 hc        1 PE5      0.045033
     29 H482        0.8010    3.9980    0.0270 hc        1 PE5      0.045033
     30 H483       -0.8980    4.5700    0.3350 hc        1 PE5      0.045033
     31 H501       -0.1770    2.9210    2.0950 h1        1 PE5      0.024700
     32 H502       -1.5500    2.2550    1.0910 h1        1 PE5      0.024700
     33 H11         0.4160    0.6860    2.5960 h1        1 PE5      0.041700
     34 H12        -0.8050   -0.0530    1.4460 h1        1 PE5      0.041700
     35 H21         1.7400   -0.3230    0.1090 h1        1 PE5      0.043200
     36 H22         0.8010   -1.6550    0.9510 h1        1 PE5      0.043200
     37 H31         3.0380   -2.5100    1.3780 h1        1 PE5      0.043200
     38 H32         3.9360   -0.9800    0.9110 h1        1 PE5      0.043200
     39 H41         3.9260   -0.9020    3.7670 h1        1 PE5      0.043700
     40 H42         5.3270   -1.4460    2.7160 h1        1 PE5      0.043700
     41 H51         5.8160   -2.8440    4.6430 h1        1 PE5      0.043200
     42 H52A        4.2070   -2.5950    5.4890 h1        1 PE5      0.043200
     43 H61         4.3430   -4.8510    6.0440 h1        1 PE5      0.043700
     44 H62         3.9320   -5.1700    4.2850 h1        1 PE5      0.043700
     45 H71         5.5130   -6.9740    5.8110 h1        1 PE5      0.043200
     46 H72         5.4410   -7.0470    3.9790 h1        1 PE5      0.043200
     47 H81         8.1090   -6.1660    4.5160 h1        1 PE5      0.043700
     48 H82         7.6100   -7.8790    4.0880 h1        1 PE5      0.043700
     49 H91         9.5420   -8.4380    5.4520 h1        1 PE5      0.043200
     50 H92         9.7610   -6.7740    6.1940 h1        1 PE5      0.043200
     51 H101       10.2600   -7.9100    8.1630 h1        1 PE5      0.043700
     52 H102        8.4600   -8.2510    8.2610 h1        1 PE5      0.043700
     53 H111        8.6540  -10.5300    9.0730 h1        1 PE5      0.043700
     54 H112       10.3950  -10.0280    9.3570 h1        1 PE5      0.043700
     55 H121        9.5080  -12.6750    8.7800 h1        1 PE5      0.044200
     56 H122       10.0950  -12.0660    7.1520 h1        1 PE5      0.044200
     57 H131       12.2330  -13.2130    7.1750 h1        1 PE5      0.043200
     58 H132       11.4590  -14.1210    8.5680 h1        1 PE5      0.043200
     59 H141       13.7190  -12.3280    9.4470 h1        1 PE5      0.045200
     60 H142       14.2530  -13.6190    8.2570 h1        1 PE5      0.045200
     61 H151       15.4030  -14.5630   10.2210 h1        1 PE5      0.039200
     62 H152       14.5980  -13.4010   11.3900 h1        1 PE5      0.039200
     63 H161       13.2760  -15.3540   12.3630 h1        1 PE5      0.053200
     64 H162       15.0920  -15.5860   12.5420 h1        1 PE5      0.053200
     65 H52        13.5360  -16.7130   10.4740 ho        1 PE5      0.412000
@<TRIPOS>BOND
     1    1    2 1   
     2    1   28 1   
     3    1   29 1   
     4    1   30 1   
     5    2    3 1   
     6    2   31 1   
     7    2   32 1   
     8    3    4 1   
     9    4    5 1   
    10    4   33 1   
    11    4   34 1   
    12    5    6 1   
    13    5   35 1   
    14    5   36 1   
    15    6    7 1   
    16    7    8 1   
    17    7   37 1   
    18    7   38 1   
    19    8    9 1   
    20    8   39 1   
    21    8   40 1   
    22    9   10 1   
    23   10   11 1   
    24   10   41 1   
    25   10   42 1   
    26   11   12 1   
    27   11   43 1   
    28   11   44 1   
    29   12   13 1   
    30   13   14 1   
    31   13   45 1   
    32   13   46 1   
    33   14   15 1   
    34   14   47 1   
    35   14   48 1   
    36   15   16 1   
    37   16   17 1   
    38   16   49 1   
    39   16   50 1   
    40   17   18 1   
    41   17   51 1   
    42   17   52 1   
    43   18   19 1   
    44   19   20 1   
    45   19   53 1   
    46   19   54 1   
    47   20   21 1   
    48   20   55 1   
    49   20   56 1   
    50   21   22 1   
    51   22   23 1   
    52   22   57 1   
    53   22   58 1   
    54   23   24 1   
    55   23   59 1   
    56   23   60 1   
    57   24   25 1   
    58   25   26 1   
    59   25   61 1   
    60   25   62 1   
    61   26   27 1   
    62   26   63 1   
    63   26   64 1   
    64   27   65 1   
@<TRIPOS>SUBSTRUCTURE
     1 PE5         1 TEMP              0 ****  ****    0 ROOT
