@<TRIPOS>MOLECULE
PE6
   48    47     1     0     0
SMALL
bcc


@<TRIPOS>ATOM
      1 C3         -3.4130   -1.7820   -2.1440 c3        1 PE6      0.182400
      2 O2         -2.8100   -3.0130   -2.2160 os        1 PE6     -0.582200
      3 P1         -1.5790   -3.3510   -1.0550 p5        1 PE6      1.325900
      4 OP1        -1.9940   -2.5720    0.1570 o         1 PE6     -0.924167
      5 OP2        -1.7170   -4.8540   -1.0100 o         1 PE6     -0.924167
      6 C4         -2.9220   -0.8000   -3.2180 c3        1 PE6      0.092400
      7 O5         -3.2350   -1.1650   -4.5610 os        1 PE6     -0.466600
      8 C6         -2.7050   -2.4170   -4.9820 c3        1 PE6      0.136400
      9 C7         -1.1990   -2.4990   -4.7680 c3        1 PE6      0.044400
     10 O8         -0.7030   -3.5830   -5.5580 os        1 PE6     -0.448600
     11 C9          0.2630   -4.3750   -4.8820 c3        1 PE6      0.143400
     12 C10        -0.3300   -5.3410   -3.8660 c3        1 PE6      0.078400
     13 O11        -1.0240   -6.3630   -4.5940 os        1 PE6     -0.448600
     14 O20        -4.1150   -8.1510   -5.6670 oh        1 PE6     -0.639800
     15 C19        -3.8980   -6.8430   -6.1610 c3        1 PE6      0.090400
     16 C18        -4.9020   -5.8470   -5.5840 c3        1 PE6      0.104400
     17 O17        -5.1440   -6.0970   -4.2120 os        1 PE6     -0.455600
     18 C16        -4.0900   -5.6480   -3.3440 c3        1 PE6      0.075400
     19 C15        -3.9190   -6.6760   -2.2360 c3        1 PE6      0.102400
     20 O14        -3.1390   -7.7900   -2.6770 os        1 PE6     -0.466600
     21 C13        -1.7330   -7.5890   -2.5560 c3        1 PE6      0.055400
     22 C12        -1.0860   -7.6150   -3.9360 c3        1 PE6      0.118400
     23 OP3        -0.3630   -2.8660   -1.8030 o         1 PE6     -0.924167
     24 H31        -4.5270   -1.9150   -2.2940 h1        1 PE6      0.007200
     25 H32        -3.2300   -1.3110   -1.1340 h1        1 PE6      0.007200
     26 H41        -3.4550    0.1830   -3.0980 h1        1 PE6      0.023200
     27 H42        -1.8160   -0.6380   -3.1280 h1        1 PE6      0.023200
     28 H61        -2.9660   -2.4640   -6.0740 h1        1 PE6      0.040200
     29 H62        -3.2130   -3.2520   -4.4270 h1        1 PE6      0.040200
     30 H71        -0.6970   -1.5690   -5.1460 h1        1 PE6      0.087700
     31 H72        -0.9770   -2.6410   -3.6550 h1        1 PE6      0.087700
     32 H91         0.7710   -4.9360   -5.7120 h1        1 PE6      0.033200
     33 H92         0.9940   -3.7160   -4.3400 h1        1 PE6      0.033200
     34 H101        0.5010   -5.7940   -3.2640 h1        1 PE6      0.085700
     35 H102       -1.0420   -4.8160   -3.1550 h1        1 PE6      0.085700
     36 H20        -4.0690   -8.0860   -4.6970 ho        1 PE6      0.440000
     37 H191       -4.0240   -6.9230   -7.2720 h1        1 PE6      0.050200
     38 H192       -2.8470   -6.5190   -5.9200 h1        1 PE6      0.050200
     39 H181       -4.5350   -4.7980   -5.7420 h1        1 PE6      0.034700
     40 H182       -5.9070   -5.9780   -6.0670 h1        1 PE6      0.034700
     41 H161       -3.1190   -5.5210   -3.8950 h1        1 PE6      0.088700
     42 H162       -4.3960   -4.6550   -2.9150 h1        1 PE6      0.088700
     43 H151       -3.4280   -6.1640   -1.3560 h1        1 PE6      0.084700
     44 H152       -4.9050   -7.1330   -1.9580 h1        1 PE6      0.084700
     45 H131       -1.3630   -8.4740   -1.9680 h1        1 PE6      0.091200
     46 H132       -1.4910   -6.6310   -1.9990 h1        1 PE6      0.091200
     47 H121       -1.6910   -8.2510   -4.6400 h1        1 PE6      0.019200
     48 H122       -0.0460   -8.0350   -3.8410 h1        1 PE6      0.019200
@<TRIPOS>BOND
     1    1    2 1   
     2    1    6 1   
     3    1   24 1   
     4    1   25 1   
     5    2    3 1   
     6    3    4 1   
     7    3    5 1   
     8    3   23 1   
     9    6    7 1   
    10    6   26 1   
    11    6   27 1   
    12    7    8 1   
    13    8    9 1   
    14    8   28 1   
    15    8   29 1   
    16    9   10 1   
    17    9   30 1   
    18    9   31 1   
    19   10   11 1   
    20   11   12 1   
    21   11   32 1   
    22   11   33 1   
    23   12   13 1   
    24   12   34 1   
    25   12   35 1   
    26   13   22 1   
    27   14   15 1   
    28   14   36 1   
    29   15   16 1   
    30   15   37 1   
    31   15   38 1   
    32   16   17 1   
    33   16   39 1   
    34   16   40 1   
    35   17   18 1   
    36   18   19 1   
    37   18   41 1   
    38   18   42 1   
    39   19   20 1   
    40   19   43 1   
    41   19   44 1   
    42   20   21 1   
    43   21   22 1   
    44   21   45 1   
    45   21   46 1   
    46   22   47 1   
    47   22   48 1   
@<TRIPOS>SUBSTRUCTURE
     1 PE6         1 TEMP              0 ****  ****    0 ROOT
