@<TRIPOS>MOLECULE
PE6
   48    47     1     0     0
SMALL
bcc


@<TRIPOS>ATOM
      1 C3         -2.2550   -2.6000   -1.2300 c3        1 PE6      0.227400
      2 O2         -1.5210   -3.6180   -1.7760 os        1 PE6     -0.576200
      3 P1          0.0590   -3.8410   -1.0740 p5        1 PE6      1.314900
      4 OP1        -0.2320   -4.3180    0.3170 o         1 PE6     -0.925167
      5 OP2         0.5790   -4.8400   -2.0780 o         1 PE6     -0.925167
      6 C4         -2.1480   -1.2730   -2.0040 c3        1 PE6      0.076400
      7 O5         -2.5300   -1.4530   -3.3690 os        1 PE6     -0.442600
      8 C6         -1.5420   -1.0620   -4.3090 c3        1 PE6      0.127400
      9 C7         -0.2250   -1.8290   -4.2050 c3        1 PE6      0.070400
     10 O8         -0.0480   -2.6140   -5.3840 os        1 PE6     -0.463600
     11 C9         -0.1600   -4.0180   -5.1700 c3        1 PE6      0.088400
     12 C10        -1.6170   -4.4040   -4.9440 c3        1 PE6      0.083400
     13 O11        -1.7980   -5.8150   -5.0260 os        1 PE6     -0.472600
     14 O20        -6.1910   -9.1200   -5.8930 oh        1 PE6     -0.633800
     15 C19        -4.8410   -8.7350   -5.6920 c3        1 PE6      0.100400
     16 C18        -4.6050   -7.2710   -6.0470 c3        1 PE6      0.084400
     17 O17        -5.5510   -6.4620   -5.3540 os        1 PE6     -0.456600
     18 C16        -5.0100   -5.7390   -4.2490 c3        1 PE6      0.087400
     19 C15        -4.7760   -6.6310   -3.0350 c3        1 PE6      0.109400
     20 O14        -3.5370   -7.3120   -3.1010 os        1 PE6     -0.459600
     21 C13        -2.4010   -6.5030   -2.7520 c3        1 PE6      0.080400
     22 C12        -1.3690   -6.5300   -3.8680 c3        1 PE6      0.085400
     23 OP3         0.5850   -2.4380   -1.2210 o         1 PE6     -0.925167
     24 H31        -3.3460   -2.9010   -1.2170 h1        1 PE6     -0.016800
     25 H32        -1.9200   -2.3930   -0.1730 h1        1 PE6     -0.016800
     26 H41        -2.8800   -0.5260   -1.5870 h1        1 PE6      0.030200
     27 H42        -1.1040   -0.8710   -1.9130 h1        1 PE6      0.030200
     28 H61        -1.3480    0.0400   -4.1990 h1        1 PE6      0.008700
     29 H62        -2.0300   -1.2560   -5.3030 h1        1 PE6      0.008700
     30 H71         0.6350   -1.1060   -4.2150 h1        1 PE6      0.099200
     31 H72        -0.1680   -2.4420   -3.2480 h1        1 PE6      0.099200
     32 H91         0.2300   -4.4690   -6.1210 h1        1 PE6      0.071700
     33 H92         0.4700   -4.3430   -4.2920 h1        1 PE6      0.071700
     34 H101       -1.9580   -4.0000   -3.9480 h1        1 PE6      0.065700
     35 H102       -2.2670   -4.0010   -5.7660 h1        1 PE6      0.065700
     36 H20        -6.7330   -8.4250   -5.4970 ho        1 PE6      0.409000
     37 H191       -4.2420   -9.4030   -6.3640 h1        1 PE6      0.052200
     38 H192       -4.5550   -8.9150   -4.6190 h1        1 PE6      0.052200
     39 H181       -3.5470   -6.9820   -5.7990 h1        1 PE6      0.070700
     40 H182       -4.8170   -7.0940   -7.1350 h1        1 PE6      0.070700
     41 H161       -4.0510   -5.2290   -4.5420 h1        1 PE6      0.070200
     42 H162       -5.8030   -4.9780   -4.0260 h1        1 PE6      0.070200
     43 H151       -4.8380   -6.0100   -2.1030 h1        1 PE6      0.037200
     44 H152       -5.5450   -7.4500   -3.0010 h1        1 PE6      0.037200
     45 H131       -1.9620   -6.9780   -1.8340 h1        1 PE6      0.087700
     46 H132       -2.6860   -5.4430   -2.5120 h1        1 PE6      0.087700
     47 H121       -1.2220   -7.5770   -4.2450 h1        1 PE6      0.090700
     48 H122       -0.4080   -6.0970   -3.4500 h1        1 PE6      0.090700
@<TRIPOS>BOND
     1    1    2 1   
     2    1    6 1   
     3    1   24 1   
     4    1   25 1   
     5    2    3 1   
     6    3    4 1   
     7    3    5 1   
     8    3   23 1   
     9    6    7 1   
    10    6   26 1   
    11    6   27 1   
    12    7    8 1   
    13    8    9 1   
    14    8   28 1   
    15    8   29 1   
    16    9   10 1   
    17    9   30 1   
    18    9   31 1   
    19   10   11 1   
    20   11   12 1   
    21   11   32 1   
    22   11   33 1   
    23   12   13 1   
    24   12   34 1   
    25   12   35 1   
    26   13   22 1   
    27   14   15 1   
    28   14   36 1   
    29   15   16 1   
    30   15   37 1   
    31   15   38 1   
    32   16   17 1   
    33   16   39 1   
    34   16   40 1   
    35   17   18 1   
    36   18   19 1   
    37   18   41 1   
    38   18   42 1   
    39   19   20 1   
    40   19   43 1   
    41   19   44 1   
    42   20   21 1   
    43   21   22 1   
    44   21   45 1   
    45   21   46 1   
    46   22   47 1   
    47   22   48 1   
@<TRIPOS>SUBSTRUCTURE
     1 PE6         1 TEMP              0 ****  ****    0 ROOT
