@<TRIPOS>MOLECULE
PE6
   48    47     1     0     0
SMALL
bcc


@<TRIPOS>ATOM
      1 C3         -0.7230    2.8640   -0.1280 c3        1 PE6      0.198400
      2 O2         -0.2000    1.7360    0.4550 os        1 PE6     -0.578200
      3 P1          1.2530    1.1280   -0.2390 p5        1 PE6      1.323900
      4 OP1         2.0250    2.3610   -0.5960 o         1 PE6     -0.920500
      5 OP2         1.7630    0.3100    0.9300 o         1 PE6     -0.920500
      6 C4         -1.8860    2.5800   -1.0940 c3        1 PE6      0.087400
      7 O5         -2.9910    1.9960   -0.4030 os        1 PE6     -0.437600
      8 C6         -3.3730    0.7080   -0.8540 c3        1 PE6      0.145400
      9 C7         -2.2270   -0.2850   -0.9960 c3        1 PE6      0.058400
     10 O8         -2.5840   -1.4580   -0.2550 os        1 PE6     -0.460600
     11 C9         -1.4450   -2.1680    0.2190 c3        1 PE6      0.113400
     12 C10        -0.8290   -1.4870    1.4380 c3        1 PE6      0.052400
     13 O11        -0.5000   -2.4470    2.4430 os        1 PE6     -0.443600
     14 O20        -1.0790    2.6230    4.8080 oh        1 PE6     -0.646800
     15 C19        -0.6920    1.9720    3.6030 c3        1 PE6      0.101400
     16 C18         0.8060    1.7110    3.5440 c3        1 PE6      0.047400
     17 O17         1.1950    0.9160    4.6690 os        1 PE6     -0.469600
     18 C16         1.1840   -0.4830    4.4150 c3        1 PE6      0.108400
     19 C15         2.4740   -0.9140    3.7270 c3        1 PE6      0.082400
     20 O14         2.4190   -2.3050    3.4190 os        1 PE6     -0.454600
     21 C13         1.9530   -2.5880    2.1030 c3        1 PE6      0.060400
     22 C12         0.6010   -3.2880    2.1440 c3        1 PE6      0.123400
     23 OP3         0.6870    0.3040   -1.3620 o         1 PE6     -0.920500
     24 H31         0.0750    3.4140   -0.7090 h1        1 PE6      0.007700
     25 H32        -1.1210    3.5400    0.6850 h1        1 PE6      0.007700
     26 H41        -1.5450    1.9400   -1.9480 h1        1 PE6      0.021700
     27 H42        -2.2800    3.5540   -1.5000 h1        1 PE6      0.021700
     28 H61        -3.9050    0.8180   -1.8400 h1        1 PE6      0.010200
     29 H62        -4.1060    0.3580   -0.0770 h1        1 PE6      0.010200
     30 H71        -1.2330    0.1480   -0.6430 h1        1 PE6      0.097200
     31 H72        -2.1040   -0.5960   -2.0680 h1        1 PE6      0.097200
     32 H91        -0.6820   -2.2620   -0.5980 h1        1 PE6      0.035700
     33 H92        -1.8500   -3.1800    0.4910 h1        1 PE6      0.035700
     34 H101       -1.5870   -0.8310    1.9470 h1        1 PE6      0.109700
     35 H102        0.0660   -0.8500    1.1460 h1        1 PE6      0.109700
     36 H20        -0.5880    2.1900    5.5160 ho        1 PE6      0.390000
     37 H191       -1.2560    1.0050    3.5160 h1        1 PE6      0.062200
     38 H192       -0.9950    2.6550    2.7650 h1        1 PE6      0.062200
     39 H181        1.0740    1.2320    2.5450 h1        1 PE6      0.109700
     40 H182        1.3780    2.6670    3.6780 h1        1 PE6      0.109700
     41 H161        1.0910   -0.9510    5.4310 h1        1 PE6      0.043200
     42 H162        0.3040   -0.7740    3.7790 h1        1 PE6      0.043200
     43 H151        2.6380   -0.2860    2.8020 h1        1 PE6      0.078200
     44 H152        3.3460   -0.8180    4.4270 h1        1 PE6      0.078200
     45 H131        1.9130   -1.6580    1.4610 h1        1 PE6      0.088700
     46 H132        2.7080   -3.3090    1.6810 h1        1 PE6      0.088700
     47 H121        0.4310   -3.7970    1.1570 h1        1 PE6      0.016200
     48 H122        0.5800   -4.0490    2.9710 h1        1 PE6      0.016200
@<TRIPOS>BOND
     1    1    2 1   
     2    1    6 1   
     3    1   24 1   
     4    1   25 1   
     5    2    3 1   
     6    3    4 1   
     7    3    5 1   
     8    3   23 1   
     9    6    7 1   
    10    6   26 1   
    11    6   27 1   
    12    7    8 1   
    13    8    9 1   
    14    8   28 1   
    15    8   29 1   
    16    9   10 1   
    17    9   30 1   
    18    9   31 1   
    19   10   11 1   
    20   11   12 1   
    21   11   32 1   
    22   11   33 1   
    23   12   13 1   
    24   12   34 1   
    25   12   35 1   
    26   13   22 1   
    27   14   15 1   
    28   14   36 1   
    29   15   16 1   
    30   15   37 1   
    31   15   38 1   
    32   16   17 1   
    33   16   39 1   
    34   16   40 1   
    35   17   18 1   
    36   18   19 1   
    37   18   41 1   
    38   18   42 1   
    39   19   20 1   
    40   19   43 1   
    41   19   44 1   
    42   20   21 1   
    43   21   22 1   
    44   21   45 1   
    45   21   46 1   
    46   22   47 1   
    47   22   48 1   
@<TRIPOS>SUBSTRUCTURE
     1 PE6         1 TEMP              0 ****  ****    0 ROOT
