@<TRIPOS>MOLECULE
PE6
   48    47     1     0     0
SMALL
bcc


@<TRIPOS>ATOM
      1 C3         -4.6540   -5.5710    3.0680 c3        1 PE6      0.187400
      2 O2         -5.6160   -5.6360    2.0480 os        1 PE6     -0.574200
      3 P1         -7.1590   -5.7210    2.4540 p5        1 PE6      1.348900
      4 OP1        -7.6110   -4.4040    2.9520 o         1 PE6     -0.933500
      5 OP2        -7.3420   -6.7780    3.5570 o         1 PE6     -0.933500
      6 C4         -3.2530   -5.8020    2.4600 c3        1 PE6      0.083400
      7 O5         -2.3460   -4.8000    2.9600 os        1 PE6     -0.458600
      8 C6         -1.0470   -4.8030    2.3190 c3        1 PE6      0.127400
      9 C7         -0.2380   -3.5720    2.7950 c3        1 PE6      0.075400
     10 O8          0.0940   -2.7750    1.6870 os        1 PE6     -0.459600
     11 C9          0.9340   -1.6540    2.0070 c3        1 PE6      0.074400
     12 C10         1.3590   -0.9470    0.7130 c3        1 PE6      0.108400
     13 O11         1.5400    0.4390    0.9680 os        1 PE6     -0.458600
     14 O20         2.7940    7.0470   -6.6690 oh        1 PE6     -0.674800
     15 C19         3.4960    6.5560   -5.5270 c3        1 PE6      0.140400
     16 C18         2.5590    6.5390   -4.3210 c3        1 PE6      0.087400
     17 O17         3.1130    5.7110   -3.3110 os        1 PE6     -0.462600
     18 C16         2.2550    5.4790   -2.2210 c3        1 PE6      0.082400
     19 C15         2.8580    4.4370   -1.3190 c3        1 PE6      0.094400
     20 O14         1.8610    3.4810   -0.9780 os        1 PE6     -0.454600
     21 C13         2.2930    2.4890   -0.0600 c3        1 PE6      0.128400
     22 C12         1.3770    1.2610   -0.1750 c3        1 PE6      0.058400
     23 OP3        -7.9920   -6.1160    1.2210 o         1 PE6     -0.933500
     24 H31        -4.8450   -6.2820    3.7600 h1        1 PE6      0.006700
     25 H32        -4.6840   -4.6570    3.5040 h1        1 PE6      0.006700
     26 H41        -2.9270   -6.6980    2.7130 h1        1 PE6      0.034200
     27 H42        -3.3100   -5.7340    1.4360 h1        1 PE6      0.034200
     28 H61        -0.5630   -5.6290    2.5590 h1        1 PE6      0.017200
     29 H62        -1.1600   -4.7630    1.3620 h1        1 PE6      0.017200
     30 H71         0.5870   -3.8720    3.2420 h1        1 PE6      0.097700
     31 H72        -0.7980   -3.0320    3.4450 h1        1 PE6      0.097700
     32 H91         1.7340   -1.9680    2.4870 h1        1 PE6      0.079700
     33 H92         0.4330   -1.0190    2.5800 h1        1 PE6      0.079700
     34 H101        0.6680   -1.0670    0.0340 h1        1 PE6      0.043200
     35 H102        2.1830   -1.3240    0.4000 h1        1 PE6      0.043200
     36 H20         3.3340    7.0560   -7.3650 ho        1 PE6      0.484000
     37 H191        4.2810    7.1520   -5.3350 h1        1 PE6      0.021200
     38 H192        3.8170    5.6360   -5.7060 h1        1 PE6      0.021200
     39 H181        1.6670    6.1810   -4.5970 h1        1 PE6      0.060200
     40 H182        2.4540    7.4350   -3.9820 h1        1 PE6      0.060200
     41 H161        1.3910    5.1640   -2.5480 h1        1 PE6      0.087700
     42 H162        2.1310    6.3080   -1.7220 h1        1 PE6      0.087700
     43 H151        3.1990    4.8710   -0.4940 h1        1 PE6      0.066700
     44 H152        3.5640    4.0090   -1.7630 h1        1 PE6      0.066700
     45 H131        2.2480    2.8480    0.8590 h1        1 PE6      0.024700
     46 H132        3.2460    2.2230   -0.2720 h1        1 PE6      0.024700
     47 H121        1.6130    0.7470   -0.9880 h1        1 PE6      0.091200
     48 H122        0.4620    1.5500   -0.2340 h1        1 PE6      0.091200
@<TRIPOS>BOND
     1    1    2 1   
     2    1    6 1   
     3    1   24 1   
     4    1   25 1   
     5    2    3 1   
     6    3    4 1   
     7    3    5 1   
     8    3   23 1   
     9    6    7 1   
    10    6   26 1   
    11    6   27 1   
    12    7    8 1   
    13    8    9 1   
    14    8   28 1   
    15    8   29 1   
    16    9   10 1   
    17    9   30 1   
    18    9   31 1   
    19   10   11 1   
    20   11   12 1   
    21   11   32 1   
    22   11   33 1   
    23   12   13 1   
    24   12   34 1   
    25   12   35 1   
    26   13   22 1   
    27   14   15 1   
    28   14   36 1   
    29   15   16 1   
    30   15   37 1   
    31   15   38 1   
    32   16   17 1   
    33   16   39 1   
    34   16   40 1   
    35   17   18 1   
    36   18   19 1   
    37   18   41 1   
    38   18   42 1   
    39   19   20 1   
    40   19   43 1   
    41   19   44 1   
    42   20   21 1   
    43   21   22 1   
    44   21   45 1   
    45   21   46 1   
    46   22   47 1   
    47   22   48 1   
@<TRIPOS>SUBSTRUCTURE
     1 PE6         1 TEMP              0 ****  ****    0 ROOT
