@<TRIPOS>MOLECULE
PE7
   52    51     1     0     0
SMALL
bcc


@<TRIPOS>ATOM
      1 S1          0.9140   -2.7960   -2.0750 sh        1 PE7     -0.375900
      2 C2          1.6030   -2.3440   -0.5080 c3        1 PE7      0.000700
      3 C3          1.7970   -0.8430   -0.5280 c3        1 PE7      0.141400
      4 O4          2.2900   -0.4880    0.7640 os        1 PE7     -0.428600
      5 C5          2.5100    0.9160    0.8870 c3        1 PE7      0.127400
      6 C6          3.1760    1.1310    2.2420 c3        1 PE7      0.127400
      7 O7          4.5370    1.4630    1.9750 os        1 PE7     -0.428600
      8 C8          5.3200    1.5320    3.1650 c3        1 PE7      0.127400
      9 C9          6.6870    2.0680    2.7530 c3        1 PE7      0.127400
     10 O10         6.7530    3.4130    3.2250 os        1 PE7     -0.429600
     11 C11         7.9200    4.0900    2.7630 c3        1 PE7      0.127400
     12 C12         7.9510    5.4360    3.4790 c3        1 PE7      0.127400
     13 O13         8.9900    5.3540    4.4530 os        1 PE7     -0.429600
     14 C14         9.0180    6.4930    5.3100 c3        1 PE7      0.127400
     15 C15        10.2680    6.3550    6.1730 c3        1 PE7      0.127400
     16 O16        11.2070    7.3110    5.6820 os        1 PE7     -0.428600
     17 C17        12.4870    7.1730    6.2950 c3        1 PE7      0.127400
     18 C18        13.3270    8.3510    5.8100 c3        1 PE7      0.128400
     19 O19        13.4450    9.2470    6.9140 os        1 PE7     -0.438600
     20 C20        14.0630   10.4790    6.5490 c3        1 PE7      0.087400
     21 C21        14.1710   11.2950    7.8330 c3        1 PE7      0.131400
     22 O22        15.0610   10.7020    8.7550 oh        1 PE7     -0.599800
     23 HS          0.8670   -4.1050   -1.9010 hs        1 PE7      0.206800
     24 H21         0.9180   -2.6290    0.3270 h1        1 PE7      0.073700
     25 H22         2.5810   -2.8540   -0.3370 h1        1 PE7      0.073700
     26 H31         2.5440   -0.5430   -1.3120 h1        1 PE7      0.043700
     27 H32         0.8260   -0.3130   -0.7190 h1        1 PE7      0.043700
     28 H51         1.5230    1.4480    0.8470 h1        1 PE7      0.044700
     29 H52         3.1690    1.2810    0.0560 h1        1 PE7      0.044700
     30 H61         3.1180    0.2010    2.8670 h1        1 PE7      0.043700
     31 H62         2.6900    1.9830    2.7870 h1        1 PE7      0.043700
     32 H81         4.8330    2.2130    3.9120 h1        1 PE7      0.043700
     33 H82         5.4180    0.5030    3.6000 h1        1 PE7      0.043700
     34 H91         6.8060    2.0410    1.6380 h1        1 PE7      0.043700
     35 H92         7.5040    1.4690    3.2350 h1        1 PE7      0.043700
     36 H111        8.8380    3.4900    3.0030 h1        1 PE7      0.044200
     37 H112        7.8450    4.2390    1.6540 h1        1 PE7      0.044200
     38 H121        8.1910    6.2590    2.7550 h1        1 PE7      0.043700
     39 H122        6.9670    5.6460    3.9760 h1        1 PE7      0.043700
     40 H141        8.0980    6.4950    5.9520 h1        1 PE7      0.044200
     41 H142        9.0560    7.4360    4.7010 h1        1 PE7      0.044200
     42 H151       10.0320    6.5890    7.2440 h1        1 PE7      0.044200
     43 H152       10.6920    5.3190    6.0960 h1        1 PE7      0.044200
     44 H171       12.3870    7.1880    7.4120 h1        1 PE7      0.043200
     45 H172       12.9490    6.2040    5.9700 h1        1 PE7      0.043200
     46 H181       12.8310    8.8640    4.9450 h1        1 PE7      0.045200
     47 H182       14.3500    8.0050    5.5080 h1        1 PE7      0.045200
     48 H201       15.0790   10.2780    6.1190 h1        1 PE7      0.039200
     49 H202       13.4310   11.0130    5.7930 h1        1 PE7      0.039200
     50 H211       14.6110   12.3020    7.6070 h1        1 PE7      0.053700
     51 H212       13.1560   11.4140    8.2980 h1        1 PE7      0.053700
     52 HO2        14.7400    9.8050    8.9170 ho        1 PE7      0.412000
@<TRIPOS>BOND
     1    1    2 1   
     2    1   23 1   
     3    2    3 1   
     4    2   24 1   
     5    2   25 1   
     6    3    4 1   
     7    3   26 1   
     8    3   27 1   
     9    4    5 1   
    10    5    6 1   
    11    5   28 1   
    12    5   29 1   
    13    6    7 1   
    14    6   30 1   
    15    6   31 1   
    16    7    8 1   
    17    8    9 1   
    18    8   32 1   
    19    8   33 1   
    20    9   10 1   
    21    9   34 1   
    22    9   35 1   
    23   10   11 1   
    24   11   12 1   
    25   11   36 1   
    26   11   37 1   
    27   12   13 1   
    28   12   38 1   
    29   12   39 1   
    30   13   14 1   
    31   14   15 1   
    32   14   40 1   
    33   14   41 1   
    34   15   16 1   
    35   15   42 1   
    36   15   43 1   
    37   16   17 1   
    38   17   18 1   
    39   17   44 1   
    40   17   45 1   
    41   18   19 1   
    42   18   46 1   
    43   18   47 1   
    44   19   20 1   
    45   20   21 1   
    46   20   48 1   
    47   20   49 1   
    48   21   22 1   
    49   21   50 1   
    50   21   51 1   
    51   22   52 1   
@<TRIPOS>SUBSTRUCTURE
     1 PE7         1 TEMP              0 ****  ****    0 ROOT
