@<TRIPOS>MOLECULE
PE7
   52    51     1     0     0
SMALL
bcc


@<TRIPOS>ATOM
      1 S1          0.8680   -2.7360   -2.0910 sh        1 PE7     -0.375900
      2 C2          1.5870   -2.3140   -0.5280 c3        1 PE7      0.000700
      3 C3          1.7630   -0.8110   -0.5160 c3        1 PE7      0.141400
      4 O4          2.2800   -0.4810    0.7730 os        1 PE7     -0.428600
      5 C5          2.4850    0.9230    0.9260 c3        1 PE7      0.127400
      6 C6          3.1800    1.1130    2.2700 c3        1 PE7      0.127400
      7 O7          4.5310    1.4680    1.9800 os        1 PE7     -0.428600
      8 C8          5.3400    1.5180    3.1540 c3        1 PE7      0.127400
      9 C9          6.6910    2.0810    2.7250 c3        1 PE7      0.127400
     10 O10         6.7520    3.4140    3.2270 os        1 PE7     -0.429600
     11 C11         7.9000    4.1160    2.7560 c3        1 PE7      0.127400
     12 C12         7.9320    5.4450    3.5030 c3        1 PE7      0.127400
     13 O13         8.9920    5.3510    4.4520 os        1 PE7     -0.429600
     14 C14         9.0280    6.4700    5.3350 c3        1 PE7      0.127400
     15 C15        10.2970    6.3250    6.1680 c3        1 PE7      0.127400
     16 O16        11.2160    7.3010    5.6790 os        1 PE7     -0.428600
     17 C17        12.5100    7.1620    6.2600 c3        1 PE7      0.127400
     18 C18        13.3280    8.3580    5.7840 c3        1 PE7      0.128400
     19 O19        13.4630    9.2300    6.9050 os        1 PE7     -0.438600
     20 C20        14.0610   10.4760    6.5540 c3        1 PE7      0.087400
     21 C21        14.1900   11.2650    7.8540 c3        1 PE7      0.131400
     22 O22        15.1060   10.6590    8.7420 oh        1 PE7     -0.599800
     23 HS          0.8420   -4.0500   -1.9480 hs        1 PE7      0.206800
     24 H21         0.9250   -2.6280    0.3140 h1        1 PE7      0.073700
     25 H22         2.5750   -2.8150   -0.3920 h1        1 PE7      0.073700
     26 H31         2.4880   -0.4820   -1.3080 h1        1 PE7      0.043700
     27 H32         0.7810   -0.2880   -0.6720 h1        1 PE7      0.043700
     28 H51         1.4910    1.4420    0.9210 h1        1 PE7      0.044700
     29 H52         3.1210    1.3160    0.0890 h1        1 PE7      0.044700
     30 H61         3.1480    0.1670    2.8730 h1        1 PE7      0.043700
     31 H62         2.6960    1.9450    2.8470 h1        1 PE7      0.043700
     32 H81         4.8620    2.1750    3.9280 h1        1 PE7      0.043700
     33 H82         5.4600    0.4800    3.5620 h1        1 PE7      0.043700
     34 H91         6.7850    2.0820    1.6060 h1        1 PE7      0.043700
     35 H92         7.5250    1.4800    3.1740 h1        1 PE7      0.043700
     36 H111        8.8300    3.5220    2.9600 h1        1 PE7      0.044200
     37 H112        7.7980    4.2910    1.6520 h1        1 PE7      0.044200
     38 H121        8.1470    6.2880    2.7940 h1        1 PE7      0.043700
     39 H122        6.9570    5.6320    4.0270 h1        1 PE7      0.043700
     40 H141        8.1220    6.4470    5.9970 h1        1 PE7      0.044200
     41 H142        9.0430    7.4270    4.7490 h1        1 PE7      0.044200
     42 H151       10.0820    6.5330    7.2490 h1        1 PE7      0.044200
     43 H152       10.7290    5.2950    6.0590 h1        1 PE7      0.044200
     44 H171       12.4340    7.1510    7.3800 h1        1 PE7      0.043200
     45 H172       12.9740    6.2050    5.9030 h1        1 PE7      0.043200
     46 H181       12.8090    8.8860    4.9410 h1        1 PE7      0.045200
     47 H182       14.3480    8.0290    5.4520 h1        1 PE7      0.045200
     48 H201       15.0690   10.2950    6.0970 h1        1 PE7      0.039200
     49 H202       13.4070   11.0210    5.8250 h1        1 PE7      0.039200
     50 H211       14.6160   12.2810    7.6410 h1        1 PE7      0.053700
     51 H212       13.1850   11.3630    8.3430 h1        1 PE7      0.053700
     52 HO2        14.7970    9.7560    8.8910 ho        1 PE7      0.412000
@<TRIPOS>BOND
     1    1    2 1   
     2    1   23 1   
     3    2    3 1   
     4    2   24 1   
     5    2   25 1   
     6    3    4 1   
     7    3   26 1   
     8    3   27 1   
     9    4    5 1   
    10    5    6 1   
    11    5   28 1   
    12    5   29 1   
    13    6    7 1   
    14    6   30 1   
    15    6   31 1   
    16    7    8 1   
    17    8    9 1   
    18    8   32 1   
    19    8   33 1   
    20    9   10 1   
    21    9   34 1   
    22    9   35 1   
    23   10   11 1   
    24   11   12 1   
    25   11   36 1   
    26   11   37 1   
    27   12   13 1   
    28   12   38 1   
    29   12   39 1   
    30   13   14 1   
    31   14   15 1   
    32   14   40 1   
    33   14   41 1   
    34   15   16 1   
    35   15   42 1   
    36   15   43 1   
    37   16   17 1   
    38   17   18 1   
    39   17   44 1   
    40   17   45 1   
    41   18   19 1   
    42   18   46 1   
    43   18   47 1   
    44   19   20 1   
    45   20   21 1   
    46   20   48 1   
    47   20   49 1   
    48   21   22 1   
    49   21   50 1   
    50   21   51 1   
    51   22   52 1   
@<TRIPOS>SUBSTRUCTURE
     1 PE7         1 TEMP              0 ****  ****    0 ROOT
