@<TRIPOS>MOLECULE
PE7
   52    51     1     0     0
SMALL
bcc


@<TRIPOS>ATOM
      1 S1         -1.0670   -1.2990  -10.9760 sh        1 PE7     -0.375900
      2 C2         -1.1050   -0.1760   -9.6070 c3        1 PE7      0.000700
      3 C3         -0.1340   -0.7070   -8.5750 c3        1 PE7      0.141400
      4 O4         -0.1270    0.2440   -7.5090 os        1 PE7     -0.428600
      5 C5          0.7640   -0.1320   -6.4600 c3        1 PE7      0.127400
      6 C6          0.5530    0.8740   -5.3340 c3        1 PE7      0.127400
      7 O7         -0.1390    0.1820   -4.2980 os        1 PE7     -0.428600
      8 C8         -0.5450    1.0540   -3.2440 c3        1 PE7      0.127400
      9 C9         -1.1010    0.1640   -2.1370 c3        1 PE7      0.127400
     10 O10        -0.1310    0.1640   -1.0920 os        1 PE7     -0.429600
     11 C11        -0.4510   -0.7650   -0.0580 c3        1 PE7      0.127400
     12 C12         0.5590   -0.5320    1.0610 c3        1 PE7      0.127400
     13 O13        -0.1460    0.1230    2.1130 os        1 PE7     -0.429600
     14 C14         0.7220    0.5480    3.1620 c3        1 PE7      0.127400
     15 C15        -0.1730    1.0640    4.2830 c3        1 PE7      0.127400
     16 O16        -0.1390    0.0800    5.3150 os        1 PE7     -0.428600
     17 C17        -1.0700    0.3580    6.3580 c3        1 PE7      0.127400
     18 C18        -0.8060   -0.6650    7.4580 c3        1 PE7      0.128400
     19 O19        -0.1630    0.0370    8.5200 os        1 PE7     -0.438600
     20 C20         0.2990   -0.8370    9.5470 c3        1 PE7      0.087400
     21 C21         0.9020    0.0580   10.6250 c3        1 PE7      0.131400
     22 O22        -0.0800    0.8600   11.2460 oh        1 PE7     -0.599800
     23 HS         -1.9870   -0.7240  -11.7300 hs        1 PE7      0.206800
     24 H21        -2.1290   -0.1090   -9.1700 h1        1 PE7      0.073700
     25 H22        -0.8010    0.8510   -9.9250 h1        1 PE7      0.073700
     26 H31         0.9000   -0.8000   -9.0030 h1        1 PE7      0.043700
     27 H32        -0.4660   -1.7070   -8.1850 h1        1 PE7      0.043700
     28 H51         1.8190   -0.0830   -6.8380 h1        1 PE7      0.044700
     29 H52         0.5360   -1.1740   -6.1120 h1        1 PE7      0.044700
     30 H61        -0.0530    1.7490   -5.6900 h1        1 PE7      0.043700
     31 H62         1.5410    1.2340   -4.9410 h1        1 PE7      0.043700
     32 H81        -1.3410    1.7460   -3.6260 h1        1 PE7      0.043700
     33 H82         0.3300    1.6510   -2.8740 h1        1 PE7      0.043700
     34 H91        -1.2700   -0.8800   -2.5110 h1        1 PE7      0.044200
     35 H92        -2.0640    0.5850   -1.7440 h1        1 PE7      0.044200
     36 H111       -0.3570   -1.8080   -0.4590 h1        1 PE7      0.044200
     37 H112       -1.4980   -0.5930    0.3080 h1        1 PE7      0.044200
     38 H121        1.4090    0.1090    0.7040 h1        1 PE7      0.043700
     39 H122        0.9570   -1.5110    1.4380 h1        1 PE7      0.043700
     40 H141        1.3850    1.3690    2.7810 h1        1 PE7      0.044200
     41 H142        1.3510   -0.3110    3.5180 h1        1 PE7      0.044200
     42 H151       -1.2240    1.2090    3.9180 h1        1 PE7      0.044200
     43 H152        0.2240    2.0330    4.6860 h1        1 PE7      0.044200
     44 H171       -2.1140    0.2450    5.9610 h1        1 PE7      0.043200
     45 H172       -0.9240    1.4030    6.7410 h1        1 PE7      0.043200
     46 H181       -0.1470   -1.4910    7.0830 h1        1 PE7      0.045200
     47 H182       -1.7720   -1.0930    7.8350 h1        1 PE7      0.045200
     48 H201        1.0730   -1.5340    9.1340 h1        1 PE7      0.039200
     49 H202       -0.5630   -1.4270    9.9560 h1        1 PE7      0.039200
     50 H211        1.7050    0.7050   10.1820 h1        1 PE7      0.053700
     51 H212        1.3280   -0.5740   11.4490 h1        1 PE7      0.053700
     52 HO2        -0.5100    1.3690   10.5470 ho        1 PE7      0.412000
@<TRIPOS>BOND
     1    1    2 1   
     2    1   23 1   
     3    2    3 1   
     4    2   24 1   
     5    2   25 1   
     6    3    4 1   
     7    3   26 1   
     8    3   27 1   
     9    4    5 1   
    10    5    6 1   
    11    5   28 1   
    12    5   29 1   
    13    6    7 1   
    14    6   30 1   
    15    6   31 1   
    16    7    8 1   
    17    8    9 1   
    18    8   32 1   
    19    8   33 1   
    20    9   10 1   
    21    9   34 1   
    22    9   35 1   
    23   10   11 1   
    24   11   12 1   
    25   11   36 1   
    26   11   37 1   
    27   12   13 1   
    28   12   38 1   
    29   12   39 1   
    30   13   14 1   
    31   14   15 1   
    32   14   40 1   
    33   14   41 1   
    34   15   16 1   
    35   15   42 1   
    36   15   43 1   
    37   16   17 1   
    38   17   18 1   
    39   17   44 1   
    40   17   45 1   
    41   18   19 1   
    42   18   46 1   
    43   18   47 1   
    44   19   20 1   
    45   20   21 1   
    46   20   48 1   
    47   20   49 1   
    48   21   22 1   
    49   21   50 1   
    50   21   51 1   
    51   22   52 1   
@<TRIPOS>SUBSTRUCTURE
     1 PE7         1 TEMP              0 ****  ****    0 ROOT
