@<TRIPOS>MOLECULE
PE8
   59    58     1     0     0
SMALL
bcc


@<TRIPOS>ATOM
      1 O1         -0.8240    2.6400    0.7620 oh        1 PE8     -0.599800
      2 C2         -1.5060    1.4070    0.8500 c3        1 PE8      0.131400
      3 C3         -0.6700    0.2610    0.2880 c3        1 PE8      0.087400
      4 O4          0.4490    0.1230    1.1600 os        1 PE8     -0.438600
      5 C5          1.3570   -0.8870    0.7230 c3        1 PE8      0.128400
      6 C6          2.3870   -1.0560    1.8340 c3        1 PE8      0.127400
      7 O7          2.0930   -2.2960    2.4730 os        1 PE8     -0.428600
      8 C8          2.8910   -2.5070    3.6370 c3        1 PE8      0.127400
      9 C9          2.6100   -3.9320    4.1030 c3        1 PE8      0.127400
     10 O10         3.7610   -4.7020    3.7650 os        1 PE8     -0.429600
     11 C11         3.5670   -6.0950    4.0050 c3        1 PE8      0.127400
     12 C12         4.9180   -6.7660    3.7770 c3        1 PE8      0.127400
     13 O13         5.4140   -7.1250    5.0640 os        1 PE8     -0.429600
     14 C14         6.7520   -7.6180    5.0090 c3        1 PE8      0.127400
     15 C15         7.0830   -8.1270    6.4080 c3        1 PE8      0.127400
     16 O16         7.0880   -9.5510    6.3300 os        1 PE8     -0.429600
     17 C17         7.2250  -10.1610    7.6120 c3        1 PE8      0.127400
     18 C18         7.3900  -11.6570    7.3640 c3        1 PE8      0.127400
     19 O19         8.7620  -11.9590    7.6080 os        1 PE8     -0.428600
     20 C20         9.0930  -13.2990    7.2490 c3        1 PE8      0.127400
     21 C21        10.5250  -13.5320    7.7180 c3        1 PE8      0.128400
     22 O22        10.4460  -14.3850    8.8580 os        1 PE8     -0.438600
     23 C23        11.7070  -14.5460    9.5040 c3        1 PE8      0.087400
     24 C24        11.4730  -15.5220   10.6530 c3        1 PE8      0.131400
     25 O25        11.1390  -16.8110   10.1820 oh        1 PE8     -0.599800
     26 HO1         0.0120    2.5330    1.2330 ho        1 PE8      0.412000
     27 H21        -2.4330    1.5400    0.2310 h1        1 PE8      0.053700
     28 H22        -1.7820    1.1930    1.9160 h1        1 PE8      0.053700
     29 H31        -1.2630   -0.6900    0.2750 h1        1 PE8      0.039200
     30 H32        -0.3150    0.4990   -0.7490 h1        1 PE8      0.039200
     31 H51         1.8530   -0.5480   -0.2250 h1        1 PE8      0.045200
     32 H52         0.8080   -1.8490    0.5390 h1        1 PE8      0.045200
     33 H61         2.3200   -0.2130    2.5720 h1        1 PE8      0.043200
     34 H62         3.4220   -1.0990    1.4040 h1        1 PE8      0.043200
     35 H81         3.9780   -2.3750    3.3920 h1        1 PE8      0.044200
     36 H82         2.5890   -1.7700    4.4270 h1        1 PE8      0.044200
     37 H91         2.4620   -3.9570    5.2150 h1        1 PE8      0.044200
     38 H92         1.7010   -4.3460    3.5910 h1        1 PE8      0.044200
     39 H111        2.8070   -6.4900    3.2810 h1        1 PE8      0.043700
     40 H112        3.2120   -6.2630    5.0560 h1        1 PE8      0.043700
     41 H121        4.7950   -7.6930    3.1580 h1        1 PE8      0.043700
     42 H122        5.6300   -6.0640    3.2670 h1        1 PE8      0.043700
     43 H141        6.8300   -8.4450    4.2550 h1        1 PE8      0.043700
     44 H142        7.4410   -6.7800    4.7240 h1        1 PE8      0.043700
     45 H151        6.3170   -7.7800    7.1510 h1        1 PE8      0.043700
     46 H152        8.1010   -7.7730    6.7220 h1        1 PE8      0.043700
     47 H171        8.1200   -9.7450    8.1460 h1        1 PE8      0.044200
     48 H172        6.3000   -9.9650    8.2150 h1        1 PE8      0.044200
     49 H181        7.1170  -11.9180    6.3080 h1        1 PE8      0.044200
     50 H182        6.7520  -12.2440    8.0760 h1        1 PE8      0.044200
     51 H201        9.0230  -13.4100    6.1350 h1        1 PE8      0.043200
     52 H202        8.3890  -14.0190    7.7450 h1        1 PE8      0.043200
     53 H211       11.0170  -12.5610    7.9920 h1        1 PE8      0.045200
     54 H212       11.1210  -14.0440    6.9170 h1        1 PE8      0.045200
     55 H231       12.0650  -13.5580    9.8920 h1        1 PE8      0.039200
     56 H232       12.4540  -14.9600    8.7770 h1        1 PE8      0.039200
     57 H241       12.4220  -15.6590   11.2350 h1        1 PE8      0.053700
     58 H242       10.6620  -15.1340   11.3250 h1        1 PE8      0.053700
     59 H25        10.3590  -16.7120    9.6220 ho        1 PE8      0.412000
@<TRIPOS>BOND
     1    1    2 1   
     2    1   26 1   
     3    2    3 1   
     4    2   27 1   
     5    2   28 1   
     6    3    4 1   
     7    3   29 1   
     8    3   30 1   
     9    4    5 1   
    10    5    6 1   
    11    5   31 1   
    12    5   32 1   
    13    6    7 1   
    14    6   33 1   
    15    6   34 1   
    16    7    8 1   
    17    8    9 1   
    18    8   35 1   
    19    8   36 1   
    20    9   10 1   
    21    9   37 1   
    22    9   38 1   
    23   10   11 1   
    24   11   12 1   
    25   11   39 1   
    26   11   40 1   
    27   12   13 1   
    28   12   41 1   
    29   12   42 1   
    30   13   14 1   
    31   14   15 1   
    32   14   43 1   
    33   14   44 1   
    34   15   16 1   
    35   15   45 1   
    36   15   46 1   
    37   16   17 1   
    38   17   18 1   
    39   17   47 1   
    40   17   48 1   
    41   18   19 1   
    42   18   49 1   
    43   18   50 1   
    44   19   20 1   
    45   20   21 1   
    46   20   51 1   
    47   20   52 1   
    48   21   22 1   
    49   21   53 1   
    50   21   54 1   
    51   22   23 1   
    52   23   24 1   
    53   23   55 1   
    54   23   56 1   
    55   24   25 1   
    56   24   57 1   
    57   24   58 1   
    58   25   59 1   
@<TRIPOS>SUBSTRUCTURE
     1 PE8         1 TEMP              0 ****  ****    0 ROOT
