@<TRIPOS>MOLECULE
PE8
   59    58     1     0     0
SMALL
bcc


@<TRIPOS>ATOM
      1 O1        -13.2750    1.3200   -1.2710 oh        1 PE8     -0.602800
      2 C2        -12.2130    1.1890   -2.1780 c3        1 PE8      0.127400
      3 C3        -10.9090    1.6000   -1.4970 c3        1 PE8      0.129400
      4 O4         -9.8050    1.2160   -2.3100 os        1 PE8     -0.431600
      5 C5         -8.5880    1.7480   -1.8900 c3        1 PE8      0.130400
      6 C6         -7.4280    1.1210   -2.7230 c3        1 PE8      0.129400
      7 O7         -6.2240    1.7730   -2.4220 os        1 PE8     -0.429600
      8 C8         -5.0420    1.0610   -2.9000 c3        1 PE8      0.130400
      9 C9         -3.8310    1.8820   -2.6660 c3        1 PE8      0.129400
     10 O10        -2.6930    1.0280   -2.5400 os        1 PE8     -0.429600
     11 C11        -1.4490    1.7390   -2.3840 c3        1 PE8      0.130400
     12 C12        -0.3210    0.7700   -2.3150 c3        1 PE8      0.130400
     13 O13         0.7050    1.3020   -1.4970 os        1 PE8     -0.429600
     14 C14         1.9410    0.5370   -1.5320 c3        1 PE8      0.130400
     15 C15         2.8900    1.0540   -0.4770 c3        1 PE8      0.130400
     16 O16         3.9640    0.1170   -0.3010 os        1 PE8     -0.429600
     17 C17         4.8720    0.4480    0.8140 c3        1 PE8      0.129400
     18 C18         6.0390   -0.5800    0.8550 c3        1 PE8      0.130400
     19 O19         6.4750   -0.7550    2.2160 os        1 PE8     -0.429600
     20 C20         7.6140   -1.6440    2.3620 c3        1 PE8      0.129400
     21 C21         7.8960   -1.8640    3.8250 c3        1 PE8      0.130400
     22 O22         8.8970   -2.9220    3.9720 os        1 PE8     -0.431600
     23 C23         9.2600   -3.1900    5.3010 c3        1 PE8      0.129400
     24 C24        10.4240   -4.2200    5.3170 c3        1 PE8      0.127400
     25 O25        10.6610   -4.6560    6.6620 oh        1 PE8     -0.602800
     26 HO1       -14.0550    1.0890   -1.6810 ho        1 PE8      0.405000
     27 H21       -12.3700    1.7570   -2.9420 h1        1 PE8      0.035700
     28 H22       -12.1490    0.2670   -2.4690 h1        1 PE8      0.035700
     29 H31       -10.8400    1.1550   -0.6170 h1        1 PE8      0.042700
     30 H32       -10.8990    2.5820   -1.3710 h1        1 PE8      0.042700
     31 H51        -8.5950    2.7160   -2.0190 h1        1 PE8      0.042700
     32 H52        -8.4500    1.5390   -0.9070 h1        1 PE8      0.042700
     33 H61        -7.3450    0.1700   -2.5020 h1        1 PE8      0.042200
     34 H62        -7.6300    1.2220   -3.7240 h1        1 PE8      0.042200
     35 H81        -5.1390    0.8770   -3.9060 h1        1 PE8      0.042700
     36 H82        -4.9580    0.2110   -2.4200 h1        1 PE8      0.042700
     37 H91        -3.9380    2.3880   -1.8670 h1        1 PE8      0.042700
     38 H92        -3.7030    2.4740   -3.4030 h1        1 PE8      0.042700
     39 H111       -1.4770    2.2710   -1.5530 h1        1 PE8      0.042700
     40 H112       -1.3150    2.3400   -3.1550 h1        1 PE8      0.042700
     41 H121       -0.6440   -0.1020   -1.9240 h1        1 PE8      0.042700
     42 H122        0.0260    0.6150   -3.2100 h1        1 PE8      0.042700
     43 H141        1.7460   -0.4020   -1.3600 h1        1 PE8      0.042700
     44 H142        2.3570    0.6280   -2.4180 h1        1 PE8      0.042700
     45 H151        2.4070    1.1640    0.3750 h1        1 PE8      0.042700
     46 H152        3.2430    1.8930   -0.7530 h1        1 PE8      0.042700
     47 H171        5.2340    1.3490    0.6830 h1        1 PE8      0.042700
     48 H172        4.3690    0.4140    1.6720 h1        1 PE8      0.042700
     49 H181        6.7930   -0.2460    0.3070 h1        1 PE8      0.042700
     50 H182        5.7360   -1.4260    0.5040 h1        1 PE8      0.042700
     51 H201        7.4160   -2.4960    1.9380 h1        1 PE8      0.042200
     52 H202        8.3880   -1.2470    1.9420 h1        1 PE8      0.042200
     53 H211        7.0750   -2.1280    4.2790 h1        1 PE8      0.042700
     54 H212        8.2330   -1.0420    4.2170 h1        1 PE8      0.042700
     55 H231        9.5490   -2.3650    5.7320 h1        1 PE8      0.042700
     56 H232        8.5310   -3.5390    5.7570 h1        1 PE8      0.042700
     57 H241       10.1860   -4.9880    4.7630 h1        1 PE8      0.035700
     58 H242       11.2260   -3.8060    4.9660 h1        1 PE8      0.035700
     59 H25        11.1340   -5.4110    6.6490 ho        1 PE8      0.405000
@<TRIPOS>BOND
     1    1    2 1   
     2    1   26 1   
     3    2    3 1   
     4    2   27 1   
     5    2   28 1   
     6    3    4 1   
     7    3   29 1   
     8    3   30 1   
     9    4    5 1   
    10    5    6 1   
    11    5   31 1   
    12    5   32 1   
    13    6    7 1   
    14    6   33 1   
    15    6   34 1   
    16    7    8 1   
    17    8    9 1   
    18    8   35 1   
    19    8   36 1   
    20    9   10 1   
    21    9   37 1   
    22    9   38 1   
    23   10   11 1   
    24   11   12 1   
    25   11   39 1   
    26   11   40 1   
    27   12   13 1   
    28   12   41 1   
    29   12   42 1   
    30   13   14 1   
    31   14   15 1   
    32   14   43 1   
    33   14   44 1   
    34   15   16 1   
    35   15   45 1   
    36   15   46 1   
    37   16   17 1   
    38   17   18 1   
    39   17   47 1   
    40   17   48 1   
    41   18   19 1   
    42   18   49 1   
    43   18   50 1   
    44   19   20 1   
    45   20   21 1   
    46   20   51 1   
    47   20   52 1   
    48   21   22 1   
    49   21   53 1   
    50   21   54 1   
    51   22   23 1   
    52   23   24 1   
    53   23   55 1   
    54   23   56 1   
    55   24   25 1   
    56   24   57 1   
    57   24   58 1   
    58   25   59 1   
@<TRIPOS>SUBSTRUCTURE
     1 PE8         1 TEMP              0 ****  ****    0 ROOT
