@<TRIPOS>MOLECULE
PE8
   59    58     1     0     0
SMALL
bcc


@<TRIPOS>ATOM
      1 O1         -0.9040    2.5760    0.7390 oh        1 PE8     -0.599800
      2 C2         -1.5770    1.3390    0.8380 c3        1 PE8      0.131400
      3 C3         -0.7400    0.1960    0.2730 c3        1 PE8      0.087400
      4 O4          0.3890    0.0680    1.1350 os        1 PE8     -0.438600
      5 C5          1.2980   -0.9380    0.6940 c3        1 PE8      0.128400
      6 C6          2.3400   -1.0960    1.7970 c3        1 PE8      0.127400
      7 O7          2.0590   -2.3350    2.4450 os        1 PE8     -0.428600
      8 C8          2.8670   -2.5350    3.6030 c3        1 PE8      0.127400
      9 C9          2.5970   -3.9580    4.0790 c3        1 PE8      0.127400
     10 O10         3.7500   -4.7240    3.7400 os        1 PE8     -0.429600
     11 C11         3.5660   -6.1170    3.9890 c3        1 PE8      0.127400
     12 C12         4.9190   -6.7810    3.7600 c3        1 PE8      0.127400
     13 O13         5.4240   -7.1270    5.0480 os        1 PE8     -0.429600
     14 C14         6.7630   -7.6130    4.9900 c3        1 PE8      0.127400
     15 C15         7.1060   -8.1070    6.3920 c3        1 PE8      0.127400
     16 O16         7.1150   -9.5320    6.3280 os        1 PE8     -0.429600
     17 C17         7.2600  -10.1290    7.6150 c3        1 PE8      0.127400
     18 C18         7.4290  -11.6270    7.3810 c3        1 PE8      0.127400
     19 O19         8.8030  -11.9220    7.6280 os        1 PE8     -0.428600
     20 C20         9.1370  -13.2640    7.2820 c3        1 PE8      0.127400
     21 C21        10.5700  -13.4890    7.7530 c3        1 PE8      0.128400
     22 O22        10.4920  -14.3290    8.9040 os        1 PE8     -0.438600
     23 C23        11.7540  -14.4790    9.5520 c3        1 PE8      0.087400
     24 C24        11.5210  -15.4410   10.7120 c3        1 PE8      0.131400
     25 O25        11.1920  -16.7370   10.2570 oh        1 PE8     -0.599800
     26 HO1        -0.0620    2.4760    1.2020 ho        1 PE8      0.412000
     27 H21        -2.5100    1.4640    0.2280 h1        1 PE8      0.053700
     28 H22        -1.8420    1.1280    1.9080 h1        1 PE8      0.053700
     29 H31        -1.3270   -0.7590    0.2700 h1        1 PE8      0.039200
     30 H32        -0.3950    0.4320   -0.7680 h1        1 PE8      0.039200
     31 H51         1.7840   -0.6010   -0.2590 h1        1 PE8      0.045200
     32 H52         0.7540   -1.9040    0.5200 h1        1 PE8      0.045200
     33 H61         2.2750   -0.2500    2.5310 h1        1 PE8      0.043200
     34 H62         3.3720   -1.1360    1.3570 h1        1 PE8      0.043200
     35 H81         3.9510   -2.3990    3.3480 h1        1 PE8      0.044200
     36 H82         2.5690   -1.7950    4.3910 h1        1 PE8      0.044200
     37 H91         2.4560   -3.9770    5.1920 h1        1 PE8      0.044200
     38 H92         1.6870   -4.3810    3.5760 h1        1 PE8      0.044200
     39 H111        2.8050   -6.5210    3.2710 h1        1 PE8      0.043700
     40 H112        3.2150   -6.2800    5.0430 h1        1 PE8      0.043700
     41 H121        4.7990   -7.7140    3.1490 h1        1 PE8      0.043700
     42 H122        5.6250   -6.0790    3.2420 h1        1 PE8      0.043700
     43 H141        6.8420   -8.4470    4.2440 h1        1 PE8      0.043700
     44 H142        7.4470   -6.7750    4.6940 h1        1 PE8      0.043700
     45 H151        6.3420   -7.7560    7.1360 h1        1 PE8      0.043700
     46 H152        8.1230   -7.7460    6.6970 h1        1 PE8      0.043700
     47 H171        8.1550   -9.7040    8.1420 h1        1 PE8      0.044200
     48 H172        6.3360   -9.9300    8.2200 h1        1 PE8      0.044200
     49 H181        7.1560  -11.8990    6.3280 h1        1 PE8      0.044200
     50 H182        6.7940  -12.2090    8.0990 h1        1 PE8      0.044200
     51 H201        9.0680  -13.3870    6.1690 h1        1 PE8      0.043200
     52 H202        8.4340  -13.9810    7.7850 h1        1 PE8      0.043200
     53 H211       11.0590  -12.5140    8.0170 h1        1 PE8      0.045200
     54 H212       11.1670  -14.0090    6.9590 h1        1 PE8      0.045200
     55 H231       12.1090  -13.4850    9.9290 h1        1 PE8      0.039200
     56 H232       12.5020  -14.9000    8.8300 h1        1 PE8      0.039200
     57 H241       12.4710  -15.5690   11.2960 h1        1 PE8      0.053700
     58 H242       10.7090  -15.0480   11.3800 h1        1 PE8      0.053700
     59 H25        10.4110  -16.6470    9.6950 ho        1 PE8      0.412000
@<TRIPOS>BOND
     1    1    2 1   
     2    1   26 1   
     3    2    3 1   
     4    2   27 1   
     5    2   28 1   
     6    3    4 1   
     7    3   29 1   
     8    3   30 1   
     9    4    5 1   
    10    5    6 1   
    11    5   31 1   
    12    5   32 1   
    13    6    7 1   
    14    6   33 1   
    15    6   34 1   
    16    7    8 1   
    17    8    9 1   
    18    8   35 1   
    19    8   36 1   
    20    9   10 1   
    21    9   37 1   
    22    9   38 1   
    23   10   11 1   
    24   11   12 1   
    25   11   39 1   
    26   11   40 1   
    27   12   13 1   
    28   12   41 1   
    29   12   42 1   
    30   13   14 1   
    31   14   15 1   
    32   14   43 1   
    33   14   44 1   
    34   15   16 1   
    35   15   45 1   
    36   15   46 1   
    37   16   17 1   
    38   17   18 1   
    39   17   47 1   
    40   17   48 1   
    41   18   19 1   
    42   18   49 1   
    43   18   50 1   
    44   19   20 1   
    45   20   21 1   
    46   20   51 1   
    47   20   52 1   
    48   21   22 1   
    49   21   53 1   
    50   21   54 1   
    51   22   23 1   
    52   23   24 1   
    53   23   55 1   
    54   23   56 1   
    55   24   25 1   
    56   24   57 1   
    57   24   58 1   
    58   25   59 1   
@<TRIPOS>SUBSTRUCTURE
     1 PE8         1 TEMP              0 ****  ****    0 ROOT
