@<TRIPOS>MOLECULE
PE8
   59    58     1     0     0
SMALL
bcc


@<TRIPOS>ATOM
      1 O1         -0.4980   -0.8580   12.3190 oh        1 PE8     -0.599800
      2 C2         -0.8230    0.3830   11.7270 c3        1 PE8      0.131400
      3 C3          0.1960    0.7840   10.6650 c3        1 PE8      0.087400
      4 O4          0.0650   -0.1680    9.6120 os        1 PE8     -0.438600
      5 C5          1.0040    0.0520    8.5610 c3        1 PE8      0.128400
      6 C6          0.6270   -0.9030    7.4340 c3        1 PE8      0.127400
      7 O7          0.0410   -0.1060    6.4070 os        1 PE8     -0.428600
      8 C8         -0.5010   -0.8970    5.3520 c3        1 PE8      0.127400
      9 C9         -0.9190    0.0730    4.2530 c3        1 PE8      0.127400
     10 O10         0.0400   -0.0610    3.2060 os        1 PE8     -0.429600
     11 C11        -0.1430    0.9090    2.1770 c3        1 PE8      0.127400
     12 C12         0.8190    0.5370    1.0540 c3        1 PE8      0.127400
     13 O13         0.0230   -0.0000   -0.0000 os        1 PE8     -0.429600
     14 C14         0.8170   -0.5410   -1.0540 c3        1 PE8      0.127400
     15 C15        -0.1470   -0.9090   -2.1770 c3        1 PE8      0.127400
     16 O16         0.0410    0.0610   -3.2070 os        1 PE8     -0.429600
     17 C17        -0.9200   -0.0690   -4.2530 c3        1 PE8      0.127400
     18 C18        -0.4970    0.9000   -5.3520 c3        1 PE8      0.127400
     19 O19         0.0410    0.1060   -6.4070 os        1 PE8     -0.428600
     20 C20         0.6310    0.9000   -7.4340 c3        1 PE8      0.127400
     21 C21         1.0040   -0.0570   -8.5610 c3        1 PE8      0.128400
     22 O22         0.0660    0.1680   -9.6120 os        1 PE8     -0.438600
     23 C23         0.1920   -0.7850  -10.6650 c3        1 PE8      0.087400
     24 C24        -0.8250   -0.3790  -11.7280 c3        1 PE8      0.131400
     25 O25        -0.4940    0.8600  -12.3190 oh        1 PE8     -0.599800
     26 HO1        -0.4430   -1.5040   11.6030 ho        1 PE8      0.412000
     27 H21        -0.8040    1.1230   12.5710 h1        1 PE8      0.053700
     28 H22        -1.8500    0.3390   11.2770 h1        1 PE8      0.053700
     29 H31         1.2380    0.7490   11.0790 h1        1 PE8      0.039200
     30 H32        -0.0230    1.8130   10.2780 h1        1 PE8      0.039200
     31 H51         2.0360   -0.1740    8.9380 h1        1 PE8      0.045200
     32 H52         0.9540    1.1180    8.2130 h1        1 PE8      0.045200
     33 H61        -0.1050   -1.6740    7.7920 h1        1 PE8      0.043200
     34 H62         1.5420   -1.4110    7.0290 h1        1 PE8      0.043200
     35 H81        -1.3920   -1.4610    5.7350 h1        1 PE8      0.044200
     36 H82         0.2690   -1.6200    4.9730 h1        1 PE8      0.044200
     37 H91        -0.9310    1.1280    4.6360 h1        1 PE8      0.044200
     38 H92        -1.9350   -0.1960    3.8580 h1        1 PE8      0.044200
     39 H111        0.1030    1.9260    2.5820 h1        1 PE8      0.043700
     40 H112       -1.2050    0.8940    1.8140 h1        1 PE8      0.043700
     41 H121        1.5650   -0.2250    1.4050 h1        1 PE8      0.043700
     42 H122        1.3570    1.4480    0.6820 h1        1 PE8      0.043700
     43 H141        1.3500   -1.4550   -0.6820 h1        1 PE8      0.043700
     44 H142        1.5660    0.2180   -1.4050 h1        1 PE8      0.043700
     45 H151       -1.2090   -0.8890   -1.8140 h1        1 PE8      0.043700
     46 H152        0.0940   -1.9270   -2.5830 h1        1 PE8      0.043700
     47 H171       -1.9340    0.2050   -3.8580 h1        1 PE8      0.044200
     48 H172       -0.9360   -1.1240   -4.6360 h1        1 PE8      0.044200
     49 H181        0.2770    1.6190   -4.9730 h1        1 PE8      0.044200
     50 H182       -1.3850    1.4680   -5.7350 h1        1 PE8      0.044200
     51 H201        1.5480    1.4040   -7.0290 h1        1 PE8      0.043200
     52 H202       -0.0980    1.6750   -7.7920 h1        1 PE8      0.043200
     53 H211        0.9480   -1.1230   -8.2130 h1        1 PE8      0.045200
     54 H212        2.0370    0.1650   -8.9380 h1        1 PE8      0.045200
     55 H231       -0.0310   -1.8130  -10.2780 h1        1 PE8      0.039200
     56 H232        1.2340   -0.7550  -11.0790 h1        1 PE8      0.039200
     57 H241       -1.8510   -0.3300  -11.2770 h1        1 PE8      0.053700
     58 H242       -0.8090   -1.1190  -12.5710 h1        1 PE8      0.053700
     59 H25        -0.4360    1.5060  -11.6030 ho        1 PE8      0.412000
@<TRIPOS>BOND
     1    1    2 1   
     2    1   26 1   
     3    2    3 1   
     4    2   27 1   
     5    2   28 1   
     6    3    4 1   
     7    3   29 1   
     8    3   30 1   
     9    4    5 1   
    10    5    6 1   
    11    5   31 1   
    12    5   32 1   
    13    6    7 1   
    14    6   33 1   
    15    6   34 1   
    16    7    8 1   
    17    8    9 1   
    18    8   35 1   
    19    8   36 1   
    20    9   10 1   
    21    9   37 1   
    22    9   38 1   
    23   10   11 1   
    24   11   12 1   
    25   11   39 1   
    26   11   40 1   
    27   12   13 1   
    28   12   41 1   
    29   12   42 1   
    30   13   14 1   
    31   14   15 1   
    32   14   43 1   
    33   14   44 1   
    34   15   16 1   
    35   15   45 1   
    36   15   46 1   
    37   16   17 1   
    38   17   18 1   
    39   17   47 1   
    40   17   48 1   
    41   18   19 1   
    42   18   49 1   
    43   18   50 1   
    44   19   20 1   
    45   20   21 1   
    46   20   51 1   
    47   20   52 1   
    48   21   22 1   
    49   21   53 1   
    50   21   54 1   
    51   22   23 1   
    52   23   24 1   
    53   23   55 1   
    54   23   56 1   
    55   24   25 1   
    56   24   57 1   
    57   24   58 1   
    58   25   59 1   
@<TRIPOS>SUBSTRUCTURE
     1 PE8         1 TEMP              0 ****  ****    0 ROOT
