@<TRIPOS>MOLECULE
PE9
   18    17     1     0     0
SMALL
bcc


@<TRIPOS>ATOM
      1 CAA         3.1860   -0.2360   -0.0000 c3        1 PE9     -0.093100
      2 CAC         1.8940    0.5380   -0.0000 c3        1 PE9     -0.079400
      3 CAE         0.6940   -0.3850    0.0000 c3        1 PE9     -0.079400
      4 CAF        -0.5990    0.4000    0.0000 c3        1 PE9     -0.084400
      5 CAD        -1.7940   -0.5380   -0.0000 c3        1 PE9      0.131400
      6 OAB        -2.9590    0.2720    0.0000 oh        1 PE9     -0.601800
      7 HAA1        4.0570    0.4630   -0.0000 hc        1 PE9      0.033033
      8 HAA2        3.2560   -0.8870    0.9050 hc        1 PE9      0.033033
      9 HAA3        3.2560   -0.8870   -0.9050 hc        1 PE9      0.033033
     10 HAC1        1.8520    1.2040    0.9020 hc        1 PE9      0.040700
     11 HAC2        1.8520    1.2040   -0.9020 hc        1 PE9      0.040700
     12 HAE1        0.7320   -1.0500   -0.9030 hc        1 PE9      0.038700
     13 HAE2        0.7320   -1.0500    0.9030 hc        1 PE9      0.038700
     14 HAF1       -0.6510    1.0640    0.9020 hc        1 PE9      0.054700
     15 HAF2       -0.6510    1.0640   -0.9020 hc        1 PE9      0.054700
     16 HAD1       -1.7830   -1.1920   -0.9130 h1        1 PE9      0.019700
     17 HAD2       -1.7830   -1.1920    0.9130 h1        1 PE9      0.019700
     18 HAB        -3.7120   -0.3300    0.0000 ho        1 PE9      0.398000
@<TRIPOS>BOND
     1    1    2 1   
     2    1    7 1   
     3    1    8 1   
     4    1    9 1   
     5    2    3 1   
     6    2   10 1   
     7    2   11 1   
     8    3    4 1   
     9    3   12 1   
    10    3   13 1   
    11    4    5 1   
    12    4   14 1   
    13    4   15 1   
    14    5    6 1   
    15    5   16 1   
    16    5   17 1   
    17    6   18 1   
@<TRIPOS>SUBSTRUCTURE
     1 PE9         1 TEMP              0 ****  ****    0 ROOT
