@<TRIPOS>MOLECULE
PEA
   21    21     1     0     0
SMALL
bcc


@<TRIPOS>ATOM
      1 C1'        -0.0040    0.0010   -0.0090 ca        1 PEA     -0.137300
      2 C6'         1.3950   -0.0030   -0.0050 ca        1 PEA     -0.115000
      3 C5'         2.0900   -0.0110    1.2030 ca        1 PEA     -0.116000
      4 C4'         1.3920   -0.0150    2.4120 ca        1 PEA     -0.095000
      5 C3'        -0.0040   -0.0090    2.4110 ca        1 PEA     -0.116000
      6 C2'        -0.7020    0.0000    1.2050 ca        1 PEA     -0.115000
      7 C2         -0.7480    0.0340   -1.2970 c3        1 PEA     -0.046100
      8 C1         -1.0070   -1.4040   -1.7480 c3        1 PEA      0.096800
      9 N          -1.7530   -1.4780   -3.0400 n4        1 PEA     -0.839600
     10 H6'         1.9510    0.0150   -0.9550 ha        1 PEA      0.132000
     11 H5'         3.1910   -0.0080    1.2020 ha        1 PEA      0.153000
     12 H4'         1.9430   -0.0190    3.3660 ha        1 PEA      0.155000
     13 H3'        -0.5550   -0.0040    3.3640 ha        1 PEA      0.153000
     14 H2'        -1.8020    0.0200    1.2110 ha        1 PEA      0.132000
     15 H21        -1.7200    0.5810   -1.1640 hc        1 PEA      0.071700
     16 H22        -0.1460    0.5820   -2.0720 hc        1 PEA      0.071700
     17 H11        -1.6160   -1.9460   -0.9670 hx        1 PEA      0.116700
     18 H12        -0.0260   -1.9460   -1.8840 hx        1 PEA      0.116700
     19 HN1        -1.2200   -1.0100   -3.7810 hn        1 PEA      0.460133
     20 HN2        -2.6610   -1.0100   -2.9490 hn        1 PEA      0.460133
     21 HN3        -1.9050   -2.4560   -3.3040 hn        1 PEA      0.460133
@<TRIPOS>BOND
     1    1    2 ar  
     2    1    6 ar  
     3    1    7 1   
     4    2    3 ar  
     5    2   10 1   
     6    3    4 ar  
     7    3   11 1   
     8    4    5 ar  
     9    4   12 1   
    10    5    6 ar  
    11    5   13 1   
    12    6   14 1   
    13    7    8 1   
    14    7   15 1   
    15    7   16 1   
    16    8    9 1   
    17    8   17 1   
    18    8   18 1   
    19    9   19 1   
    20    9   20 1   
    21    9   21 1   
@<TRIPOS>SUBSTRUCTURE
     1 PEA         1 TEMP              0 ****  ****    0 ROOT
