@<TRIPOS>MOLECULE
PEA
   21    21     1     0     0
SMALL
bcc


@<TRIPOS>ATOM
      1 C1'         0.0830   -0.0010    0.3570 ca        1 PEA     -0.137300
      2 C6'         0.7650    1.2100    0.1890 ca        1 PEA     -0.115000
      3 C5'         2.1160    1.2090   -0.1510 ca        1 PEA     -0.116000
      4 C4'         2.7930    0.0010   -0.3240 ca        1 PEA     -0.095000
      5 C3'         2.1170   -1.2080   -0.1530 ca        1 PEA     -0.116000
      6 C2'         0.7650   -1.2110    0.1870 ca        1 PEA     -0.115000
      7 C2         -1.3540   -0.0010    0.7430 c3        1 PEA     -0.046100
      8 C1         -2.2010    0.0010   -0.5290 c3        1 PEA      0.096800
      9 N          -3.6680    0.0000   -0.2460 n4        1 PEA     -0.839600
     10 H6'         0.2400    2.1660    0.3380 ha        1 PEA      0.132000
     11 H5'         2.6510    2.1630   -0.2780 ha        1 PEA      0.153000
     12 H4'         3.8630    0.0010   -0.5890 ha        1 PEA      0.155000
     13 H3'         2.6520   -2.1620   -0.2810 ha        1 PEA      0.153000
     14 H2'         0.2410   -2.1670    0.3350 ha        1 PEA      0.132000
     15 H21        -1.5830    0.9060    1.3650 hc        1 PEA      0.071700
     16 H22        -1.5830   -0.9110    1.3620 hc        1 PEA      0.071700
     17 H11        -1.9680   -0.9160   -1.1460 hx        1 PEA      0.116700
     18 H12        -1.9680    0.9190   -1.1430 hx        1 PEA      0.116700
     19 HN1        -4.1960    0.0020   -1.1230 hn        1 PEA      0.460133
     20 HN2        -3.9210    0.8310    0.2990 hn        1 PEA      0.460133
     21 HN3        -3.9210   -0.8330    0.2960 hn        1 PEA      0.460133
@<TRIPOS>BOND
     1    1    2 ar  
     2    1    6 ar  
     3    1    7 1   
     4    2    3 ar  
     5    2   10 1   
     6    3    4 ar  
     7    3   11 1   
     8    4    5 ar  
     9    4   12 1   
    10    5    6 ar  
    11    5   13 1   
    12    6   14 1   
    13    7    8 1   
    14    7   15 1   
    15    7   16 1   
    16    8    9 1   
    17    8   17 1   
    18    8   18 1   
    19    9   19 1   
    20    9   20 1   
    21    9   21 1   
@<TRIPOS>SUBSTRUCTURE
     1 PEA         1 TEMP              0 ****  ****    0 ROOT
