@<TRIPOS>MOLECULE
PEC
   29    28     1     0     0
SMALL
bcc


@<TRIPOS>ATOM
      1 N           0.4150   -1.6950   -2.9820 n3        1 PEC     -0.881800
      2 CA          0.1920   -0.2570   -2.9740 c3        1 PEC      0.012500
      3 CB          0.3710    0.3830   -1.6110 c3        1 PEC      0.033700
      4 SG         -0.9410    0.1660   -0.4390 ss        1 PEC     -0.225100
      5 SD         -0.7210   -1.6780    0.5540 ss        1 PEC     -0.192100
      6 C1          0.3150   -1.3410    1.9450 c3        1 PEC     -0.020300
      7 C2         -0.3040   -0.4170    2.9600 c3        1 PEC     -0.081400
      8 C3          0.6320   -0.1750    4.1260 c3        1 PEC     -0.078400
      9 C4          0.0070    0.7480    5.1500 c3        1 PEC     -0.080400
     10 C5          0.9330    0.9950    6.3130 c3        1 PEC     -0.091100
     11 C           1.0890    0.5430   -3.9920 c         1 PEC      0.890600
     12 O           1.7590   -0.1230   -4.8290 o         1 PEC     -0.834300
     13 OXT         1.0690    1.8020   -3.9170 o         1 PEC     -0.834300
     14 H           1.3250   -1.8830   -2.5970 hn        1 PEC      0.333300
     15 H2          0.4530   -1.9820   -3.9470 hn        1 PEC      0.333300
     16 HA         -0.8740   -0.0940   -3.3080 h1        1 PEC      0.060700
     17 HB2         0.3500    1.5020   -1.7610 h1        1 PEC      0.089200
     18 HB3         1.3490    0.1050   -1.1560 h1        1 PEC      0.089200
     19 H11         1.3000   -0.9370    1.6090 h1        1 PEC      0.066200
     20 H12         0.4910   -2.3530    2.3910 h1        1 PEC      0.066200
     21 H21        -1.2660   -0.8550    3.3350 hc        1 PEC      0.054200
     22 H22        -0.5530    0.5620    2.4680 hc        1 PEC      0.054200
     23 H31         1.5910    0.2730    3.7530 hc        1 PEC      0.036200
     24 H32         0.8910   -1.1540    4.6110 hc        1 PEC      0.036200
     25 H41        -0.9530    0.2990    5.5210 hc        1 PEC      0.039200
     26 H42        -0.2530    1.7240    4.6610 hc        1 PEC      0.039200
     27 H51         0.4530    1.6770    7.0550 hc        1 PEC      0.028367
     28 H52         1.1850    0.0360    6.8270 hc        1 PEC      0.028367
     29 H53         1.8840    1.4650    5.9650 hc        1 PEC      0.028367
@<TRIPOS>BOND
     1    1    2 1   
     2    1   14 1   
     3    1   15 1   
     4    2    3 1   
     5    2   11 1   
     6    2   16 1   
     7    3    4 1   
     8    3   17 1   
     9    3   18 1   
    10    4    5 1   
    11    5    6 1   
    12    6    7 1   
    13    6   19 1   
    14    6   20 1   
    15    7    8 1   
    16    7   21 1   
    17    7   22 1   
    18    8    9 1   
    19    8   23 1   
    20    8   24 1   
    21    9   10 1   
    22    9   25 1   
    23    9   26 1   
    24   10   27 1   
    25   10   28 1   
    26   10   29 1   
    27   11   12 1   
    28   11   13 1   
@<TRIPOS>SUBSTRUCTURE
     1 PEC         1 TEMP              0 ****  ****    0 ROOT
