@<TRIPOS>MOLECULE
PED
   23    20     1     0     0
SMALL
bcc


@<TRIPOS>ATOM
      1 P          59.6390  199.8920   74.1340 p3        1 PED      2.415000
      2 O1P        60.2300  198.5620   74.4070 o         1 PED     -1.140000
      3 O2P        58.7200  200.4960   75.1150 o         1 PED     -1.140000
      4 O3P        60.0830  200.6570   72.9550 o         1 PED     -1.140000
      5 O5'        58.1420  198.1660   73.0440 o         1 PED     -0.306000
      6 C2'       -31.1650 -111.9420  -40.3400 c3        1 PED      0.017000
      7 C5'        58.3720  196.9560   73.0510 c2        1 PED      0.164000
      8 C4'       -32.7480 -112.6890  -42.2090 c3        1 PED      0.132000
      9 O4'       -33.6660 -111.5920  -42.4460 oh        1 PED     -0.445000
     10 C3'       -32.2370 -112.7810  -40.8550 c2        1 PED     -0.659000
     11 O3'       -32.9100 -113.5870  -39.9650 oh        1 PED     -0.249000
     12 H2'2      -30.4440 -111.6900  -41.1660 hc        1 PED      0.019000
     13 H5'1      -33.3320 -113.6060  -42.5000 h1        1 PED      0.020500
     14 H5'2       57.6520  196.2360   72.5990 h4        1 PED      0.074000
     15 H4'1       59.2910  196.5310   73.5050 h4        1 PED      0.074000
     16 HO'4      -31.9210 -112.5270  -42.9570 h1        1 PED      0.020500
     17 H3'       -33.7140 -111.0960  -41.6250 ho        1 PED      0.183000
     18 H1'1      -32.3830 -110.8440  -38.9170 hc        1 PED      0.032667
     19 H1'2      -30.7930 -110.0530  -39.2800 hc        1 PED      0.032667
     20 H1'3      -32.1350 -109.9960  -40.4950 hc        1 PED      0.032667
     21 H3T       -33.6110 -113.0310  -39.5710 ho        1 PED      0.070000
     22 C1'       -31.6400 -110.6320  -39.7220 c3        1 PED     -0.226000
     23 H2'1      -30.5870 -112.4910  -39.5440 hc        1 PED      0.019000
@<TRIPOS>BOND
     1    1    2 1   
     2    1    3 1   
     3    1    4 1   
     4    5    7 1   
     5    6   10 1   
     6    6   12 1   
     7    6   22 1   
     8    6   23 1   
     9    7   14 1   
    10    7   15 1   
    11    8    9 1   
    12    8   10 1   
    13    8   13 1   
    14    8   16 1   
    15    9   17 1   
    16   10   11 1   
    17   11   21 1   
    18   18   22 1   
    19   19   22 1   
    20   20   22 1   
@<TRIPOS>SUBSTRUCTURE
     1 PED         1 TEMP              0 ****  ****    0 ROOT
