@<TRIPOS>MOLECULE
PED
   23    20     1     0     0
SMALL
bcc


@<TRIPOS>ATOM
      1 P         126.0550  645.1060  249.1860 p3        1 PED      2.415000
      2 O1P       126.9660  645.8460  248.2830 o         1 PED     -1.140000
      3 O2P       126.5910  644.0300  250.0390 o         1 PED     -1.140000
      4 O3P       124.6540  645.5430  249.3240 o         1 PED     -1.140000
      5 O5'       125.9820  643.9480  246.9330 o         1 PED     -0.306000
      6 C2'       -67.0790 -350.2030 -133.2040 c3        1 PED      0.017000
      7 C5'       126.6320  644.3150  245.9540 c2        1 PED      0.164000
      8 C4'       -69.5550 -349.9030 -132.6210 c3        1 PED      0.132000
      9 O4'       -70.3230 -350.2490 -133.8010 oh        1 PED     -0.445000
     10 C3'       -68.2310 -349.3730 -132.8810 c2        1 PED     -0.659000
     11 O3'       -68.0890 -348.0070 -132.9740 oh        1 PED     -0.249000
     12 H2'2      -67.1430 -351.1810 -132.6520 hc        1 PED      0.019000
     13 H5'1      -70.2040 -349.1620 -132.0770 h1        1 PED      0.020500
     14 H5'2      127.3110  645.1930  245.9880 h4        1 PED      0.074000
     15 H4'1      126.5600  643.7700  244.9850 h4        1 PED      0.074000
     16 HO'4      -69.5120 -350.8590 -132.0270 h1        1 PED      0.020500
     17 H3'       -69.7470 -350.0980 -134.5540 ho        1 PED      0.183000
     18 H1'1      -66.8970 -349.5710 -135.2740 hc        1 PED      0.032667
     19 H1'2      -65.9990 -351.0990 -134.8940 hc        1 PED      0.032667
     20 H1'3      -67.8050 -351.1180 -135.0430 hc        1 PED      0.032667
     21 H3T       -68.2650 -347.7770 -133.9070 ho        1 PED      0.070000
     22 C1'       -66.9320 -350.5200 -134.6870 c3        1 PED     -0.226000
     23 H2'1      -66.1290 -349.6940 -132.8780 hc        1 PED      0.019000
@<TRIPOS>BOND
     1    1    2 1   
     2    1    3 1   
     3    1    4 1   
     4    5    7 1   
     5    6   10 1   
     6    6   12 1   
     7    6   22 1   
     8    6   23 1   
     9    7   14 1   
    10    7   15 1   
    11    8    9 1   
    12    8   10 1   
    13    8   13 1   
    14    8   16 1   
    15    9   17 1   
    16   10   11 1   
    17   11   21 1   
    18   18   22 1   
    19   19   22 1   
    20   20   22 1   
@<TRIPOS>SUBSTRUCTURE
     1 PED         1 TEMP              0 ****  ****    0 ROOT
