@<TRIPOS>MOLECULE
PED
   23    22     1     0     0
SMALL
bcc


@<TRIPOS>ATOM
      1 P          -2.4020    0.0440   -0.4820 p5        1 PED      1.311900
      2 O1P        -1.9210    0.4430   -1.8520 o         1 PED     -0.928833
      3 O2P        -2.5840    1.1810    0.4870 o         1 PED     -0.928833
      4 O3P        -3.3840   -1.0880   -0.4080 o         1 PED     -0.928833
      5 O5'        -0.9450   -0.7030    0.1610 os        1 PED     -0.564200
      6 C2'         3.9030   -0.3880    0.3240 c3        1 PED     -0.078400
      7 C5'         0.0550    0.2370    0.2030 c3        1 PED      0.160400
      8 C4'         1.3870   -0.4390    0.6010 c3        1 PED      0.098100
      9 O4'         1.4220   -1.8130    0.2630 oh        1 PED     -0.659800
     10 C3'         2.5810    0.2460   -0.0960 c3        1 PED      0.129100
     11 O3'         2.6570    1.6270    0.2500 oh        1 PED     -0.646800
     12 H2'2        3.7830   -1.5010    0.2540 hc        1 PED      0.045200
     13 H5'1        0.1600    0.7210   -0.8120 h1        1 PED      0.019700
     14 H5'2       -0.1940    1.0350    0.9570 h1        1 PED      0.019700
     15 H4'1        1.5370   -0.3720    1.7150 h1        1 PED      0.013700
     16 HO'4        0.5270   -2.0540   -0.0400 ho        1 PED      0.458000
     17 H3'         2.4530    0.1610   -1.2120 h1        1 PED      0.041700
     18 H1'1        4.8940   -0.2410   -1.5980 hc        1 PED      0.017033
     19 H1'2        5.1260    1.1870   -0.5100 hc        1 PED      0.017033
     20 H1'3        6.0130   -0.3630   -0.1790 hc        1 PED      0.017033
     21 H3T         1.7560    1.9740    0.1980 ho        1 PED      0.425000
     22 C1'         5.0490    0.0720   -0.5380 c3        1 PED     -0.083100
     23 H2'1        4.1070   -0.1280    1.3950 hc        1 PED      0.045200
@<TRIPOS>BOND
     1    1    2 1   
     2    1    3 1   
     3    1    4 1   
     4    1    5 1   
     5    5    7 1   
     6    6   10 1   
     7    6   12 1   
     8    6   22 1   
     9    6   23 1   
    10    7    8 1   
    11    7   13 1   
    12    7   14 1   
    13    8    9 1   
    14    8   10 1   
    15    8   15 1   
    16    9   16 1   
    17   10   11 1   
    18   10   17 1   
    19   11   21 1   
    20   18   22 1   
    21   19   22 1   
    22   20   22 1   
@<TRIPOS>SUBSTRUCTURE
     1 PED         1 TEMP              0 ****  ****    0 ROOT
