@<TRIPOS>MOLECULE
PEE
  133   130     1     0     0
SMALL
bcc


@<TRIPOS>ATOM
      1 C2         -3.6130    1.5970    0.1910 c3        1 PEE      0.014000
      2 C1         -5.1000    1.7360    0.1830 c3        1 PEE      0.015000
      3 N         -10.2940    0.4480   -5.1140 n4        1 PEE     -0.371000
      4 C3         -3.1070    1.6240    1.6410 c3        1 PEE     -0.033000
      5 C4         -8.9320    0.9280   -3.1630 c3        1 PEE      0.016000
      6 C5         -9.1320    0.0240   -4.3910 c3        1 PEE     -0.109000
      7 C10        -2.1120    2.2510   -1.4990 c1        1 PEE      0.309000
      8 C11        -1.1940    3.2910   -2.1680 c2        1 PEE     -0.155500
      9 C12        -1.3680    3.2200   -3.6900 c3        1 PEE     -0.158000
     10 C13        -0.2060    3.9880   -4.3800 c3        1 PEE     -0.157500
     11 C14        -0.6320    4.3870   -5.8280 c3        1 PEE     -0.157500
     12 C15         0.6250    4.7440   -6.6560 c3        1 PEE     -0.158000
     13 C16         0.2420    4.8470   -8.1640 c3        1 PEE     -0.157500
     14 C17         1.4970    5.3180   -8.9920 c3        1 PEE     -0.158000
     15 C18         1.2490    5.0770  -10.4980 c3        1 PEE     -0.158000
     16 C19         2.3710    5.7330  -11.3120 c3        1 PEE     -0.158000
     17 C20         2.2840    5.2560  -12.8020 c3        1 PEE     -0.158000
     18 C21         3.2670    6.0940  -13.6750 c3        1 PEE     -0.158000
     19 C22         3.2570    5.5560  -15.1400 c3        1 PEE     -0.158000
     20 C23         4.0700    6.5080  -16.0450 c3        1 PEE     -0.158000
     21 C24         4.0990    5.9600  -17.4600 c3        1 PEE     -0.158000
     22 C25         4.7350    6.9720  -18.3770 c3        1 PEE     -0.158000
     23 C26         4.7990    6.4020  -19.8110 c3        1 PEE     -0.159000
     24 C27         5.4180    7.4680  -20.7680 c3        1 PEE     -0.210000
     25 C30        -2.6820    0.1870    3.5630 c1        1 PEE      0.307000
     26 C31        -2.2850   -1.1790    4.1830 c2        1 PEE     -0.155500
     27 C32        -1.9350   -0.9900    5.6660 c3        1 PEE     -0.158000
     28 C33        -1.6880   -2.3920    6.3260 c3        1 PEE     -0.157500
     29 C34        -1.2480   -2.2030    7.7970 c3        1 PEE     -0.157500
     30 C35        -1.0870   -3.5810    8.4610 c3        1 PEE     -0.158000
     31 C36        -0.4430   -3.4120    9.8380 c3        1 PEE     -0.157500
     32 C37        -0.3350   -4.8230   10.5560 c3        1 PEE     -0.158000
     33 C38         0.6610   -4.7230   11.7370 c3        1 PEE     -0.158000
     34 C39         0.6840   -6.0640   12.5120 c3        1 PEE     -0.158000
     35 C40         1.8950   -6.0900   13.4610 c3        1 PEE     -0.158000
     36 C41         1.7760   -7.2910   14.4160 c3        1 PEE     -0.158000
     37 C42         3.1330   -7.5790   15.0420 c3        1 PEE     -0.158000
     38 C43         2.9590   -8.5970   16.2200 c3        1 PEE     -0.158000
     39 C44         4.3000   -9.1980   16.5690 c3        1 PEE     -0.158000
     40 C45         4.2050   -9.9100   17.9130 c3        1 PEE     -0.158000
     41 C46         5.4740  -10.7080   18.1520 c3        1 PEE     -0.159000
     42 C47         5.4240  -11.3480   19.5600 c3        1 PEE     -0.210000
     43 O4         -2.0350    1.0860   -1.8130 o         1 PEE     -0.344000
     44 O5         -2.6750    1.1900    4.2480 o         1 PEE     -0.347000
     45 O2         -3.0420    2.6570   -0.5250 os        1 PEE     -0.287000
     46 O3         -3.0020    0.2750    2.1370 os        1 PEE     -0.284000
     47 O1P        -7.6860    0.0150   -0.3900 o         1 PEE     -0.612000
     48 O2P        -7.8810    2.4540   -0.7990 o         1 PEE     -0.612000
     49 O3P        -5.6100    1.3160   -1.0750 os        1 PEE     -0.722000
     50 O4P        -7.5410    0.8830   -2.7510 os        1 PEE     -0.747000
     51 P          -7.1970    1.1650   -1.2430 p5        1 PEE      1.970000
     52 H2         -3.3590    0.7360   -0.2330 h1        1 PEE      0.146000
     53 H11        -5.3360    2.6530    0.3330 h1        1 PEE      0.119500
     54 H12        -5.4760    1.1900    0.8800 h1        1 PEE      0.119500
     55 HN1       -11.0260    0.4100   -4.5660 hn        1 PEE      0.201667
     56 HN2       -10.1740    1.3150   -5.4060 hn        1 PEE      0.201667
     57 HN3       -10.4230   -0.1040   -5.8390 hn        1 PEE      0.201667
     58 H31        -2.2340    2.0490    1.6710 h1        1 PEE      0.107500
     59 H32        -3.7400    2.1330    2.2020 h1        1 PEE      0.107500
     60 H41        -9.4990    0.6140   -2.4310 h1        1 PEE      0.100500
     61 H42        -9.1740    1.8440   -3.3910 h1        1 PEE      0.100500
     62 H51        -8.3480    0.0840   -4.9720 hx        1 PEE      0.082500
     63 H52        -9.2490   -0.8980   -4.0990 hx        1 PEE      0.082500
     64 H111       -0.2620    3.1010   -1.9370 ha        1 PEE      0.119000
     65 H112       -1.4340    4.1940   -1.8510 ha        1 PEE      0.119000
     66 H121       -1.3550    2.2870   -3.9750 hc        1 PEE      0.097250
     67 H122       -2.2240    3.6270   -3.9410 hc        1 PEE      0.097250
     68 H131        0.5890    3.4110   -4.4210 hc        1 PEE      0.081250
     69 H132        0.0040    4.8020   -3.8630 hc        1 PEE      0.081250
     70 H141       -1.2340    5.1700   -5.7900 hc        1 PEE      0.081750
     71 H142       -1.0970    3.6400   -6.2470 hc        1 PEE      0.081750
     72 H151        1.2950    4.0540   -6.5390 hc        1 PEE      0.079500
     73 H152        0.9820    5.5980   -6.3520 hc        1 PEE      0.079500
     74 H161       -0.0530    3.9690   -8.4870 hc        1 PEE      0.079750
     75 H162       -0.4860    5.4980   -8.2730 hc        1 PEE      0.079750
     76 H171        2.2850    4.8100   -8.7060 hc        1 PEE      0.079250
     77 H172        1.6520    6.2780   -8.8350 hc        1 PEE      0.079250
     78 H181        0.3920    5.4670  -10.7520 hc        1 PEE      0.079000
     79 H182        1.2370    4.1220  -10.6750 hc        1 PEE      0.079000
     80 H191        2.2740    6.7070  -11.2750 hc        1 PEE      0.079000
     81 H192        3.2350    5.4770  -10.9380 hc        1 PEE      0.079000
     82 H201        2.5280    4.3090  -12.8560 hc        1 PEE      0.078750
     83 H202        1.3660    5.3780  -13.1330 hc        1 PEE      0.078750
     84 H211        4.1670    6.0220  -13.3100 hc        1 PEE      0.079000
     85 H212        2.9870    7.0330  -13.6710 hc        1 PEE      0.079000
     86 H221        2.3310    5.5080  -15.4650 hc        1 PEE      0.079000
     87 H222        3.6570    4.6650  -15.1620 hc        1 PEE      0.079000
     88 H231        3.6530    7.3920  -16.0460 hc        1 PEE      0.079000
     89 H232        4.9870    6.5790  -15.7040 hc        1 PEE      0.079000
     90 H241        3.1890    5.7790  -17.7570 hc        1 PEE      0.078750
     91 H242        4.6160    5.1390  -17.4790 hc        1 PEE      0.078750
     92 H251        5.6380    7.1720  -18.0660 hc        1 PEE      0.079000
     93 H252        4.2010    7.7940  -18.3760 hc        1 PEE      0.079000
     94 H261        5.3560    5.5940  -19.8180 hc        1 PEE      0.078000
     95 H262        3.8900    6.1760  -20.1160 hc        1 PEE      0.078000
     96 H271        4.8830    8.2990  -20.7260 hc        1 PEE      0.072000
     97 H272        6.3440    7.6600  -20.4920 hc        1 PEE      0.072000
     98 H273        5.4160    7.1200  -21.6990 hc        1 PEE      0.072000
     99 H311       -3.0260   -1.7960    4.1030 ha        1 PEE      0.119000
    100 H312       -1.5040   -1.5400    3.7060 ha        1 PEE      0.119000
    101 H321       -1.1250   -0.4450    5.7430 hc        1 PEE      0.097250
    102 H322       -2.6760   -0.5400    6.1220 hc        1 PEE      0.097250
    103 H331       -0.9850   -2.8660    5.8320 hc        1 PEE      0.081250
    104 H332       -2.5230   -2.9190    6.2980 hc        1 PEE      0.081250
    105 H341       -0.3980   -1.7270    7.8240 hc        1 PEE      0.081750
    106 H342       -1.9320   -1.6830    8.2800 hc        1 PEE      0.081750
    107 H351       -0.5260   -4.1410    7.9090 hc        1 PEE      0.079500
    108 H352       -1.9620   -3.9970    8.5620 hc        1 PEE      0.079500
    109 H361        0.4570   -3.0300    9.7330 hc        1 PEE      0.079750
    110 H362       -0.9960   -2.8050   10.3870 hc        1 PEE      0.079750
    111 H371       -1.2200   -5.0880   10.8950 hc        1 PEE      0.079250
    112 H372       -0.0170   -5.4940    9.9150 hc        1 PEE      0.079250
    113 H381        1.5590   -4.5290   11.3920 hc        1 PEE      0.079000
    114 H382        0.3830   -4.0070   12.3370 hc        1 PEE      0.079000
    115 H391       -0.1350   -6.1540   13.0290 hc        1 PEE      0.079000
    116 H392        0.7530   -6.8150   11.8690 hc        1 PEE      0.079000
    117 H401        1.9200   -5.2660   13.9780 hc        1 PEE      0.078750
    118 H402        2.7230   -6.1710   12.9340 hc        1 PEE      0.078750
    119 H411        1.1360   -7.0870   15.1130 hc        1 PEE      0.079000
    120 H412        1.4710   -8.0830   13.9110 hc        1 PEE      0.079000
    121 H421        3.5160   -6.7480   15.3840 hc        1 PEE      0.079000
    122 H422        3.7400   -7.9650   14.3570 hc        1 PEE      0.079000
    123 H431        2.3340   -9.3180   15.9440 hc        1 PEE      0.079000
    124 H432        2.5950   -8.1300   17.0050 hc        1 PEE      0.079000
    125 H441        4.9630   -8.4960   16.6230 hc        1 PEE      0.078750
    126 H442        4.5590   -9.8390   15.8770 hc        1 PEE      0.078750
    127 H451        4.0970   -9.2500   18.6240 hc        1 PEE      0.079000
    128 H452        3.4400  -10.5110   17.9090 hc        1 PEE      0.079000
    129 H461        5.5480  -11.4080   17.4790 hc        1 PEE      0.078000
    130 H462        6.2440  -10.1170   18.0910 hc        1 PEE      0.078000
    131 H471        4.6480  -11.9450   19.6200 hc        1 PEE      0.072000
    132 H472        5.3470  -10.6410   20.2390 hc        1 PEE      0.072000
    133 H473        6.2580  -11.8710   19.7180 hc        1 PEE      0.072000
@<TRIPOS>BOND
     1    1    2 1   
     2    1    4 1   
     3    1   45 1   
     4    1   52 1   
     5    2   49 1   
     6    2   53 1   
     7    2   54 1   
     8    3    6 1   
     9    3   55 1   
    10    3   56 1   
    11    3   57 1   
    12    4   46 1   
    13    4   58 1   
    14    4   59 1   
    15    5    6 1   
    16    5   50 1   
    17    5   60 1   
    18    5   61 1   
    19    6   62 1   
    20    6   63 1   
    21    7   43 1   
    22    7   45 1   
    23    8    9 1   
    24    8   64 1   
    25    8   65 1   
    26    9   10 1   
    27    9   66 1   
    28    9   67 1   
    29   10   11 1   
    30   10   68 1   
    31   10   69 1   
    32   11   12 1   
    33   11   70 1   
    34   11   71 1   
    35   12   13 1   
    36   12   72 1   
    37   12   73 1   
    38   13   14 1   
    39   13   74 1   
    40   13   75 1   
    41   14   15 1   
    42   14   76 1   
    43   14   77 1   
    44   15   16 1   
    45   15   78 1   
    46   15   79 1   
    47   16   17 1   
    48   16   80 1   
    49   16   81 1   
    50   17   18 1   
    51   17   82 1   
    52   17   83 1   
    53   18   19 1   
    54   18   84 1   
    55   18   85 1   
    56   19   20 1   
    57   19   86 1   
    58   19   87 1   
    59   20   21 1   
    60   20   88 1   
    61   20   89 1   
    62   21   22 1   
    63   21   90 1   
    64   21   91 1   
    65   22   23 1   
    66   22   92 1   
    67   22   93 1   
    68   23   24 1   
    69   23   94 1   
    70   23   95 1   
    71   24   96 1   
    72   24   97 1   
    73   24   98 1   
    74   25   44 1   
    75   25   46 1   
    76   26   27 1   
    77   26   99 1   
    78   26  100 1   
    79   27   28 1   
    80   27  101 1   
    81   27  102 1   
    82   28   29 1   
    83   28  103 1   
    84   28  104 1   
    85   29   30 1   
    86   29  105 1   
    87   29  106 1   
    88   30   31 1   
    89   30  107 1   
    90   30  108 1   
    91   31   32 1   
    92   31  109 1   
    93   31  110 1   
    94   32   33 1   
    95   32  111 1   
    96   32  112 1   
    97   33   34 1   
    98   33  113 1   
    99   33  114 1   
   100   34   35 1   
   101   34  115 1   
   102   34  116 1   
   103   35   36 1   
   104   35  117 1   
   105   35  118 1   
   106   36   37 1   
   107   36  119 1   
   108   36  120 1   
   109   37   38 1   
   110   37  121 1   
   111   37  122 1   
   112   38   39 1   
   113   38  123 1   
   114   38  124 1   
   115   39   40 1   
   116   39  125 1   
   117   39  126 1   
   118   40   41 1   
   119   40  127 1   
   120   40  128 1   
   121   41   42 1   
   122   41  129 1   
   123   41  130 1   
   124   42  131 1   
   125   42  132 1   
   126   42  133 1   
   127   47   51 1   
   128   48   51 1   
   129   49   51 1   
   130   50   51 1   
@<TRIPOS>SUBSTRUCTURE
     1 PEE         1 TEMP              0 ****  ****    0 ROOT
