@<TRIPOS>MOLECULE
PEE
  133   132     1     0     0
SMALL
bcc


@<TRIPOS>ATOM
      1 C2          0.9650   -0.3370    0.7110 c3        1 PEE      0.125100
      2 C1         -0.4790   -0.5650    1.1760 c3        1 PEE      0.172400
      3 N          -5.1860   -1.3410   -2.7530 n3        1 PEE     -0.938800
      4 C3          1.9420   -0.3460    1.8850 c3        1 PEE      0.117400
      5 C4         -4.9940   -0.6070   -0.3850 c3        1 PEE      0.166400
      6 C5         -5.7660   -0.5280   -1.7130 c3        1 PEE      0.126800
      7 C11         2.4190   -2.4160   -2.0140 c3        1 PEE     -0.126400
      8 C12         2.7520   -1.9890   -3.4290 c3        1 PEE     -0.079400
      9 C13         3.0650   -3.1930   -4.2910 c3        1 PEE     -0.078400
     10 C14         3.3820   -2.7750   -5.7110 c3        1 PEE     -0.078400
     11 C15         3.6990   -3.9750   -6.5780 c3        1 PEE     -0.079400
     12 C16         4.0160   -3.5580   -7.9980 c3        1 PEE     -0.079400
     13 C17         4.3330   -4.7580   -8.8650 c3        1 PEE     -0.079400
     14 C18         4.6510   -4.3400  -10.2850 c3        1 PEE     -0.079400
     15 C19         4.9670   -5.5390  -11.1530 c3        1 PEE     -0.079400
     16 C20         5.2850   -5.1210  -12.5720 c3        1 PEE     -0.079400
     17 C21         5.6000   -6.3200  -13.4410 c3        1 PEE     -0.079400
     18 C22         5.9180   -5.9020  -14.8600 c3        1 PEE     -0.079400
     19 C23         6.2340   -7.1010  -15.7290 c3        1 PEE     -0.079400
     20 C24         6.5530   -6.6820  -17.1480 c3        1 PEE     -0.079400
     21 C25         6.8680   -7.8810  -18.0170 c3        1 PEE     -0.079400
     22 C26         7.1870   -7.4640  -19.4370 c3        1 PEE     -0.080400
     23 C27         7.5020   -8.6540  -20.3060 c3        1 PEE     -0.092100
     24 C30         2.4980   -1.8160    3.6860 c         1 PEE      0.635100
     25 C31         2.0460   -3.0020    4.4790 c3        1 PEE     -0.127400
     26 C32         2.4070   -2.8450    5.9410 c3        1 PEE     -0.079400
     27 C33         2.0690   -4.1010    6.7150 c3        1 PEE     -0.079400
     28 C34         2.4050   -3.9430    8.1820 c3        1 PEE     -0.079400
     29 C35         2.0700   -5.1980    8.9590 c3        1 PEE     -0.079400
     30 C36         2.4000   -5.0380   10.4280 c3        1 PEE     -0.079400
     31 C37         2.0630   -6.2920   11.2070 c3        1 PEE     -0.079400
     32 C38         2.3900   -6.1300   12.6760 c3        1 PEE     -0.079400
     33 C39         2.0510   -7.3830   13.4550 c3        1 PEE     -0.079400
     34 C40         2.3750   -7.2200   14.9240 c3        1 PEE     -0.079400
     35 C41         2.0350   -8.4720   15.7040 c3        1 PEE     -0.079400
     36 C42         2.3580   -8.3090   17.1740 c3        1 PEE     -0.079400
     37 C43         2.0170   -9.5600   17.9540 c3        1 PEE     -0.079400
     38 C44         2.3380   -9.3960   19.4240 c3        1 PEE     -0.079400
     39 C45         1.9970  -10.6470   20.2040 c3        1 PEE     -0.079400
     40 C46         2.3180  -10.4840   21.6750 c3        1 PEE     -0.080400
     41 C47         1.9800  -11.7280   22.4560 c3        1 PEE     -0.092100
     42 O4          2.8590   -0.1580   -1.1170 o         1 PEE     -0.543000
     43 O5          3.5450   -1.1720    3.7710 o         1 PEE     -0.539000
     44 O2          1.2580   -1.4160   -0.1910 os        1 PEE     -0.443900
     45 O3          1.5850   -1.4430    2.7360 os        1 PEE     -0.446900
     46 O1P        -1.9960   -0.8400   -2.0080 oh        1 PEE     -0.751400
     47 O2P        -2.6260   -2.2370    0.1210 o         1 PEE     -0.814300
     48 O3P        -1.3660    0.0190    0.2490 os        1 PEE     -0.565200
     49 O4P        -3.7320    0.0050   -0.5180 os        1 PEE     -0.582200
     50 P          -2.4260   -0.9290   -0.4840 p5        1 PEE      1.639500
     51 H1          1.0590    0.6460    0.1700 h1        1 PEE      0.101700
     52 H2         -0.6930   -1.6630    1.2930 h1        1 PEE      0.080700
     53 H3         -0.6170   -0.0310    2.1580 h1        1 PEE      0.080700
     54 H4         -2.5990   -0.3910   -2.6010 ho        1 PEE      0.495000
     55 H5         -5.6280   -1.1610   -3.6320 hn        1 PEE      0.359800
     56 H6         -5.2610   -2.3160   -2.5380 hn        1 PEE      0.359800
     57 H7          1.8540    0.6020    2.4770 h1        1 PEE      0.071700
     58 H8          2.9950   -0.4680    1.5170 h1        1 PEE      0.071700
     59 H9         -4.8680   -1.6690   -0.0350 h1        1 PEE      0.063200
     60 H10        -5.5640   -0.0140    0.3840 h1        1 PEE      0.063200
     61 H11        -6.8380   -0.8020   -1.4820 h1        1 PEE      0.043200
     62 H12        -5.7520    0.5440   -2.0600 h1        1 PEE      0.043200
     63 H13         1.4860   -3.0380   -1.9990 hc        1 PEE      0.081200
     64 H14         3.2520   -3.0340   -1.5850 hc        1 PEE      0.081200
     65 H15         1.8860   -1.4250   -3.8640 hc        1 PEE      0.058700
     66 H16         3.6290   -1.2890   -3.4120 hc        1 PEE      0.058700
     67 H17         3.9370   -3.7510   -3.8600 hc        1 PEE      0.041700
     68 H18         2.1890   -3.8950   -4.2920 hc        1 PEE      0.041700
     69 H19         4.2550   -2.0710   -5.7100 hc        1 PEE      0.042700
     70 H20         2.5090   -2.2190   -6.1440 hc        1 PEE      0.042700
     71 H21         2.8260   -4.6800   -6.5790 hc        1 PEE      0.039700
     72 H22         4.5720   -4.5320   -6.1450 hc        1 PEE      0.039700
     73 H23         3.1430   -3.0020   -8.4300 hc        1 PEE      0.040200
     74 H24         4.8900   -2.8540   -7.9970 hc        1 PEE      0.040200
     75 H25         3.4600   -5.4620   -8.8660 hc        1 PEE      0.039700
     76 H26         5.2060   -5.3150   -8.4330 hc        1 PEE      0.039700
     77 H27         5.5240   -3.6360  -10.2830 hc        1 PEE      0.039700
     78 H28         3.7780   -3.7830  -10.7170 hc        1 PEE      0.039700
     79 H29         4.0930   -6.2430  -11.1550 hc        1 PEE      0.039700
     80 H30         5.8390   -6.0970  -10.7210 hc        1 PEE      0.039700
     81 H31         4.4120   -4.5630  -13.0040 hc        1 PEE      0.039700
     82 H32         6.1590   -4.4180  -12.5700 hc        1 PEE      0.039700
     83 H33         6.4720   -6.8780  -13.0090 hc        1 PEE      0.039700
     84 H34         4.7260   -7.0240  -13.4430 hc        1 PEE      0.039700
     85 H35         6.7930   -5.1990  -14.8580 hc        1 PEE      0.039700
     86 H36         5.0470   -5.3430  -15.2920 hc        1 PEE      0.039700
     87 H37         5.3600   -7.8040  -15.7310 hc        1 PEE      0.039700
     88 H38         7.1060   -7.6590  -15.2970 hc        1 PEE      0.039700
     89 H39         5.6810   -6.1240  -17.5800 hc        1 PEE      0.039700
     90 H40         7.4270   -5.9790  -17.1460 hc        1 PEE      0.039700
     91 H41         5.9940   -8.5840  -18.0200 hc        1 PEE      0.039700
     92 H42         7.7400   -8.4400  -17.5850 hc        1 PEE      0.039700
     93 H43         8.0610   -6.7590  -19.4320 hc        1 PEE      0.038700
     94 H44         6.3150   -6.9040  -19.8660 hc        1 PEE      0.038700
     95 H45         7.7340   -8.3240  -21.3470 hc        1 PEE      0.032700
     96 H46         6.6330   -9.3550  -20.3430 hc        1 PEE      0.032700
     97 H47         8.3840   -9.2110  -19.9070 hc        1 PEE      0.032700
     98 H48         0.9400   -3.1400    4.3570 hc        1 PEE      0.080700
     99 H49         2.5550   -3.9050    4.0460 hc        1 PEE      0.080700
    100 H50         3.5020   -2.6180    6.0340 hc        1 PEE      0.057200
    101 H51         1.8500   -1.9720    6.3750 hc        1 PEE      0.057200
    102 H52         0.9780   -4.3330    6.6010 hc        1 PEE      0.041700
    103 H53         2.6390   -4.9700    6.2900 hc        1 PEE      0.041700
    104 H54         3.4960   -3.7090    8.2960 hc        1 PEE      0.042700
    105 H55         1.8350   -3.0750    8.6070 hc        1 PEE      0.042700
    106 H56         2.6420   -6.0660    8.5380 hc        1 PEE      0.039700
    107 H57         0.9790   -5.4340    8.8420 hc        1 PEE      0.039700
    108 H58         1.8290   -4.1690   10.8490 hc        1 PEE      0.040200
    109 H59         3.4910   -4.8040   10.5450 hc        1 PEE      0.040200
    110 H60         0.9720   -6.5270   11.0870 hc        1 PEE      0.039700
    111 H61         2.6360   -7.1600   10.7870 hc        1 PEE      0.039700
    112 H62         1.8180   -5.2600   13.0950 hc        1 PEE      0.039700
    113 H63         3.4810   -5.8970   12.7950 hc        1 PEE      0.039700
    114 H64         0.9600   -7.6170   13.3340 hc        1 PEE      0.039700
    115 H65         2.6240   -8.2520   13.0370 hc        1 PEE      0.039700
    116 H66         3.4660   -6.9870   15.0450 hc        1 PEE      0.039700
    117 H67         1.8030   -6.3500   15.3420 hc        1 PEE      0.039700
    118 H68         0.9440   -8.7060   15.5830 hc        1 PEE      0.039700
    119 H69         2.6080   -9.3420   15.2880 hc        1 PEE      0.039700
    120 H70         3.4490   -8.0750   17.2960 hc        1 PEE      0.039700
    121 H71         1.7850   -7.4380   17.5900 hc        1 PEE      0.039700
    122 H72         2.5900  -10.4300   17.5380 hc        1 PEE      0.039700
    123 H73         0.9260   -9.7940   17.8320 hc        1 PEE      0.039700
    124 H74         1.7660   -8.5250   19.8400 hc        1 PEE      0.039700
    125 H75         3.4290   -9.1620   19.5460 hc        1 PEE      0.039700
    126 H76         0.9070  -10.8810   20.0820 hc        1 PEE      0.039700
    127 H77         2.5700  -11.5180   19.7890 hc        1 PEE      0.039700
    128 H78         1.7460   -9.6120   22.0880 hc        1 PEE      0.038700
    129 H79         3.4090  -10.2490   21.7950 hc        1 PEE      0.038700
    130 H80         2.2240  -11.5860   23.5360 hc        1 PEE      0.032700
    131 H81         2.5590  -12.6030   22.0750 hc        1 PEE      0.032700
    132 H82         0.8920  -11.9640   22.3690 hc        1 PEE      0.032700
    133 C10         2.2440   -1.2250   -1.1240 c         1 PEE      0.639100
@<TRIPOS>BOND
     1    1    2 1   
     2    1    4 1   
     3    1   44 1   
     4    1   51 1   
     5    2   48 1   
     6    2   52 1   
     7    2   53 1   
     8    3    6 1   
     9    3   55 1   
    10    3   56 1   
    11    4   45 1   
    12    4   57 1   
    13    4   58 1   
    14    5    6 1   
    15    5   49 1   
    16    5   59 1   
    17    5   60 1   
    18    6   61 1   
    19    6   62 1   
    20    7    8 1   
    21    7   63 1   
    22    7   64 1   
    23    7  133 1   
    24    8    9 1   
    25    8   65 1   
    26    8   66 1   
    27    9   10 1   
    28    9   67 1   
    29    9   68 1   
    30   10   11 1   
    31   10   69 1   
    32   10   70 1   
    33   11   12 1   
    34   11   71 1   
    35   11   72 1   
    36   12   13 1   
    37   12   73 1   
    38   12   74 1   
    39   13   14 1   
    40   13   75 1   
    41   13   76 1   
    42   14   15 1   
    43   14   77 1   
    44   14   78 1   
    45   15   16 1   
    46   15   79 1   
    47   15   80 1   
    48   16   17 1   
    49   16   81 1   
    50   16   82 1   
    51   17   18 1   
    52   17   83 1   
    53   17   84 1   
    54   18   19 1   
    55   18   85 1   
    56   18   86 1   
    57   19   20 1   
    58   19   87 1   
    59   19   88 1   
    60   20   21 1   
    61   20   89 1   
    62   20   90 1   
    63   21   22 1   
    64   21   91 1   
    65   21   92 1   
    66   22   23 1   
    67   22   93 1   
    68   22   94 1   
    69   23   95 1   
    70   23   96 1   
    71   23   97 1   
    72   24   25 1   
    73   24   43 2   
    74   24   45 1   
    75   25   26 1   
    76   25   98 1   
    77   25   99 1   
    78   26   27 1   
    79   26  100 1   
    80   26  101 1   
    81   27   28 1   
    82   27  102 1   
    83   27  103 1   
    84   28   29 1   
    85   28  104 1   
    86   28  105 1   
    87   29   30 1   
    88   29  106 1   
    89   29  107 1   
    90   30   31 1   
    91   30  108 1   
    92   30  109 1   
    93   31   32 1   
    94   31  110 1   
    95   31  111 1   
    96   32   33 1   
    97   32  112 1   
    98   32  113 1   
    99   33   34 1   
   100   33  114 1   
   101   33  115 1   
   102   34   35 1   
   103   34  116 1   
   104   34  117 1   
   105   35   36 1   
   106   35  118 1   
   107   35  119 1   
   108   36   37 1   
   109   36  120 1   
   110   36  121 1   
   111   37   38 1   
   112   37  122 1   
   113   37  123 1   
   114   38   39 1   
   115   38  124 1   
   116   38  125 1   
   117   39   40 1   
   118   39  126 1   
   119   39  127 1   
   120   40   41 1   
   121   40  128 1   
   122   40  129 1   
   123   41  130 1   
   124   41  131 1   
   125   41  132 1   
   126   42  133 2   
   127   44  133 1   
   128   46   50 1   
   129   46   54 1   
   130   47   50 2   
   131   48   50 1   
   132   49   50 1   
@<TRIPOS>SUBSTRUCTURE
     1 PEE         1 TEMP              0 ****  ****    0 ROOT
