@<TRIPOS>MOLECULE
PEE
  133   132     1     0     0
SMALL
bcc


@<TRIPOS>ATOM
      1 C2         -0.6730    3.6700    1.8870 c3        1 PEE      0.111100
      2 C1          0.0790    4.3210    0.7200 c3        1 PEE      0.164400
      3 N           0.9030    2.3700   -5.0780 n3        1 PEE     -0.938800
      4 C3          0.2350    3.0410    2.9420 c3        1 PEE      0.116400
      5 C4          1.9710    4.0180   -3.5510 c3        1 PEE      0.165400
      6 C5          2.1260    3.0580   -4.7430 c3        1 PEE      0.127800
      7 C11        -3.4810    1.2890    1.3590 c3        1 PEE     -0.127400
      8 C12        -4.9590    1.5250    1.5910 c3        1 PEE     -0.079400
      9 C13        -5.7800    0.3980    1.0010 c3        1 PEE     -0.078400
     10 C14        -7.2600    0.6360    1.2120 c3        1 PEE     -0.079400
     11 C15        -8.0840   -0.4910    0.6290 c3        1 PEE     -0.079400
     12 C16        -9.5640   -0.2540    0.8390 c3        1 PEE     -0.079400
     13 C17       -10.3900   -1.3800    0.2550 c3        1 PEE     -0.078400
     14 C18       -11.8700   -1.1430    0.4650 c3        1 PEE     -0.079400
     15 C19       -12.6960   -2.2690   -0.1180 c3        1 PEE     -0.078400
     16 C20       -14.1760   -2.0310    0.0920 c3        1 PEE     -0.079400
     17 C21       -15.0020   -3.1570   -0.4920 c3        1 PEE     -0.079400
     18 C22       -16.4820   -2.9190   -0.2820 c3        1 PEE     -0.079400
     19 C23       -17.3080   -4.0450   -0.8660 c3        1 PEE     -0.078400
     20 C24       -18.7880   -3.8070   -0.6560 c3        1 PEE     -0.079400
     21 C25       -19.6140   -4.9330   -1.2400 c3        1 PEE     -0.079400
     22 C26       -21.0940   -4.6960   -1.0310 c3        1 PEE     -0.080400
     23 C27       -21.9210   -5.8140   -1.6110 c3        1 PEE     -0.092100
     24 C30         2.3920    2.5010    2.0400 c         1 PEE      0.653100
     25 C31         3.1920    1.4120    1.3960 c3        1 PEE     -0.125400
     26 C32         4.6440    1.4800    1.8150 c3        1 PEE     -0.079400
     27 C33         5.4720    0.4710    1.0480 c3        1 PEE     -0.078400
     28 C34         6.9240    0.5210    1.4760 c3        1 PEE     -0.079400
     29 C35         7.7560   -0.4840    0.7080 c3        1 PEE     -0.078400
     30 C36         9.2070   -0.4350    1.1350 c3        1 PEE     -0.079400
     31 C37        10.0400   -1.4400    0.3680 c3        1 PEE     -0.078400
     32 C38        11.4910   -1.3910    0.7950 c3        1 PEE     -0.079400
     33 C39        12.3240   -2.3950    0.0280 c3        1 PEE     -0.078400
     34 C40        13.7750   -2.3460    0.4550 c3        1 PEE     -0.079400
     35 C41        14.6080   -3.3500   -0.3120 c3        1 PEE     -0.078400
     36 C42        16.0590   -3.3010    0.1150 c3        1 PEE     -0.079400
     37 C43        16.8920   -4.3050   -0.6530 c3        1 PEE     -0.078400
     38 C44        18.3440   -4.2560   -0.2260 c3        1 PEE     -0.079400
     39 C45        19.1770   -5.2600   -0.9940 c3        1 PEE     -0.079400
     40 C46        20.6290   -5.2120   -0.5670 c3        1 PEE     -0.080400
     41 C47        21.4620   -6.2090   -1.3290 c3        1 PEE     -0.092100
     42 O4         -2.8280    2.8450    3.1620 o         1 PEE     -0.551000
     43 O5          2.7160    3.6680    2.2730 o         1 PEE     -0.560000
     44 O2         -1.5630    2.6980    1.3220 os        1 PEE     -0.431900
     45 O3          1.1370    2.0810    2.3990 os        1 PEE     -0.422900
     46 O1P        -0.2310    1.9260   -1.9880 oh        1 PEE     -0.746400
     47 O2P        -0.5140    4.5300   -2.1050 o         1 PEE     -0.816300
     48 O3P         0.6700    3.3620   -0.1280 os        1 PEE     -0.554200
     49 O4P         1.7400    3.2920   -2.3670 os        1 PEE     -0.586200
     50 P           0.2890    3.3930   -1.6820 p5        1 PEE      1.640500
     51 H2         -1.2820    4.4710    2.4020 h1        1 PEE      0.080700
     52 H11        -0.6220    4.9730    0.1280 h1        1 PEE      0.079200
     53 H12         0.9190    4.9300    1.1680 h1        1 PEE      0.079200
     54 HN1         0.2060    3.0070   -5.4100 hn        1 PEE      0.359300
     55 HN2         1.0700    1.6690   -5.7710 hn        1 PEE      0.359300
     56 HN3         0.3170    1.3890   -2.5600 ho        1 PEE      0.493000
     57 H31        -0.3900    2.4430    3.6620 h1        1 PEE      0.079700
     58 H32         0.7920    3.8520    3.4810 h1        1 PEE      0.079700
     59 H41         1.1390    4.7580   -3.7140 h1        1 PEE      0.063700
     60 H42         2.9470    4.5630   -3.4150 h1        1 PEE      0.063700
     61 H51         2.5390    3.6680   -5.5990 h1        1 PEE      0.042200
     62 H52         2.8970    2.2840   -4.4690 h1        1 PEE      0.042200
     63 H111       -3.2460    1.2960    0.2610 hc        1 PEE      0.083200
     64 H112       -3.1750    0.2890    1.7680 hc        1 PEE      0.083200
     65 H121       -5.1560    1.6090    2.6920 hc        1 PEE      0.057200
     66 H122       -5.2620    2.4990    1.1240 hc        1 PEE      0.057200
     67 H131       -5.5650    0.3090   -0.0970 hc        1 PEE      0.041700
     68 H132       -5.4830   -0.5740    1.4770 hc        1 PEE      0.041700
     69 H141       -7.4730    0.7300    2.3100 hc        1 PEE      0.042700
     70 H142       -7.5570    1.6060    0.7340 hc        1 PEE      0.042700
     71 H151       -7.8700   -0.5850   -0.4690 hc        1 PEE      0.039700
     72 H152       -7.7880   -1.4620    1.1080 hc        1 PEE      0.039700
     73 H161       -9.7780   -0.1600    1.9360 hc        1 PEE      0.040700
     74 H162       -9.8610    0.7170    0.3600 hc        1 PEE      0.040700
     75 H171      -10.1760   -1.4740   -0.8420 hc        1 PEE      0.039700
     76 H172      -10.0930   -2.3510    0.7340 hc        1 PEE      0.039700
     77 H181      -12.0840   -1.0490    1.5630 hc        1 PEE      0.039700
     78 H182      -12.1660   -0.1720   -0.0130 hc        1 PEE      0.039700
     79 H191      -12.4820   -2.3630   -1.2160 hc        1 PEE      0.039700
     80 H192      -12.3990   -3.2400    0.3600 hc        1 PEE      0.039700
     81 H201      -14.3900   -1.9380    1.1890 hc        1 PEE      0.039700
     82 H202      -14.4720   -1.0600   -0.3860 hc        1 PEE      0.039700
     83 H211      -14.7880   -3.2510   -1.5890 hc        1 PEE      0.039700
     84 H212      -14.7050   -4.1280   -0.0140 hc        1 PEE      0.039700
     85 H221      -16.6960   -2.8260    0.8150 hc        1 PEE      0.039700
     86 H222      -16.7780   -1.9480   -0.7600 hc        1 PEE      0.039700
     87 H231      -17.0940   -4.1380   -1.9640 hc        1 PEE      0.039700
     88 H232      -17.0110   -5.0160   -0.3880 hc        1 PEE      0.039700
     89 H241      -19.0020   -3.7140    0.4410 hc        1 PEE      0.039700
     90 H242      -19.0840   -2.8360   -1.1340 hc        1 PEE      0.039700
     91 H251      -19.4000   -5.0260   -2.3370 hc        1 PEE      0.039700
     92 H252      -19.3180   -5.9040   -0.7620 hc        1 PEE      0.039700
     93 H261      -21.3060   -4.6010    0.0670 hc        1 PEE      0.038700
     94 H262      -21.3880   -3.7240   -1.5080 hc        1 PEE      0.038700
     95 H271      -23.0080   -5.6200   -1.4450 hc        1 PEE      0.032700
     96 H272      -21.7420   -5.9080   -2.7090 hc        1 PEE      0.032700
     97 H273      -21.6600   -6.7880   -1.1300 hc        1 PEE      0.032700
     98 H311        3.0940    1.5540    0.2850 hc        1 PEE      0.080700
     99 H312        2.7510    0.4140    1.6550 hc        1 PEE      0.080700
    100 H321        4.7290    1.2820    2.9160 hc        1 PEE      0.055700
    101 H322        5.0370    2.5170    1.6340 hc        1 PEE      0.055700
    102 H331        5.3970    0.6800   -0.0520 hc        1 PEE      0.040700
    103 H332        5.0640   -0.5600    1.2190 hc        1 PEE      0.040700
    104 H341        7.0000    0.3100    2.5750 hc        1 PEE      0.042200
    105 H342        7.3300    1.5530    1.3080 hc        1 PEE      0.042200
    106 H351        7.6800   -0.2740   -0.3910 hc        1 PEE      0.039200
    107 H352        7.3490   -1.5160    0.8750 hc        1 PEE      0.039200
    108 H361        9.2830   -0.6460    2.2350 hc        1 PEE      0.040700
    109 H362        9.6140    0.5970    0.9680 hc        1 PEE      0.040700
    110 H371        9.9640   -1.2290   -0.7320 hc        1 PEE      0.039200
    111 H372        9.6330   -2.4720    0.5350 hc        1 PEE      0.039200
    112 H381       11.5660   -1.6020    1.8950 hc        1 PEE      0.039700
    113 H382       11.8980   -0.3590    0.6280 hc        1 PEE      0.039700
    114 H391       12.2480   -2.1840   -1.0720 hc        1 PEE      0.039200
    115 H392       11.9170   -3.4270    0.1950 hc        1 PEE      0.039200
    116 H401       13.8510   -2.5570    1.5540 hc        1 PEE      0.039700
    117 H402       14.1820   -1.3140    0.2880 hc        1 PEE      0.039700
    118 H411       14.5320   -3.1390   -1.4120 hc        1 PEE      0.039700
    119 H412       14.2010   -4.3830   -0.1450 hc        1 PEE      0.039700
    120 H421       16.1350   -3.5120    1.2140 hc        1 PEE      0.039700
    121 H422       16.4660   -2.2690   -0.0520 hc        1 PEE      0.039700
    122 H431       16.8170   -4.0940   -1.7520 hc        1 PEE      0.039700
    123 H432       16.4860   -5.3370   -0.4860 hc        1 PEE      0.039700
    124 H441       18.4190   -4.4670    0.8740 hc        1 PEE      0.039700
    125 H442       18.7500   -3.2240   -0.3930 hc        1 PEE      0.039700
    126 H451       19.1020   -5.0490   -2.0930 hc        1 PEE      0.039700
    127 H452       18.7710   -6.2920   -0.8270 hc        1 PEE      0.039700
    128 H461       20.7020   -5.4210    0.5330 hc        1 PEE      0.038700
    129 H462       21.0330   -4.1780   -0.7330 hc        1 PEE      0.038700
    130 H471       22.5280   -6.1570   -1.0000 hc        1 PEE      0.032700
    131 H472       21.0900   -7.2480   -1.1560 hc        1 PEE      0.032700
    132 H473       21.4220   -6.0020   -2.4260 hc        1 PEE      0.032700
    133 C10        -2.6570    2.3250    2.0580 c         1 PEE      0.640100
@<TRIPOS>BOND
     1    1    2 1   
     2    1    4 1   
     3    1   44 1   
     4    1   51 1   
     5    2   48 1   
     6    2   52 1   
     7    2   53 1   
     8    3    6 1   
     9    3   54 1   
    10    3   55 1   
    11    4   45 1   
    12    4   57 1   
    13    4   58 1   
    14    5    6 1   
    15    5   49 1   
    16    5   59 1   
    17    5   60 1   
    18    6   61 1   
    19    6   62 1   
    20    7    8 1   
    21    7   63 1   
    22    7   64 1   
    23    7  133 1   
    24    8    9 1   
    25    8   65 1   
    26    8   66 1   
    27    9   10 1   
    28    9   67 1   
    29    9   68 1   
    30   10   11 1   
    31   10   69 1   
    32   10   70 1   
    33   11   12 1   
    34   11   71 1   
    35   11   72 1   
    36   12   13 1   
    37   12   73 1   
    38   12   74 1   
    39   13   14 1   
    40   13   75 1   
    41   13   76 1   
    42   14   15 1   
    43   14   77 1   
    44   14   78 1   
    45   15   16 1   
    46   15   79 1   
    47   15   80 1   
    48   16   17 1   
    49   16   81 1   
    50   16   82 1   
    51   17   18 1   
    52   17   83 1   
    53   17   84 1   
    54   18   19 1   
    55   18   85 1   
    56   18   86 1   
    57   19   20 1   
    58   19   87 1   
    59   19   88 1   
    60   20   21 1   
    61   20   89 1   
    62   20   90 1   
    63   21   22 1   
    64   21   91 1   
    65   21   92 1   
    66   22   23 1   
    67   22   93 1   
    68   22   94 1   
    69   23   95 1   
    70   23   96 1   
    71   23   97 1   
    72   24   25 1   
    73   24   43 2   
    74   24   45 1   
    75   25   26 1   
    76   25   98 1   
    77   25   99 1   
    78   26   27 1   
    79   26  100 1   
    80   26  101 1   
    81   27   28 1   
    82   27  102 1   
    83   27  103 1   
    84   28   29 1   
    85   28  104 1   
    86   28  105 1   
    87   29   30 1   
    88   29  106 1   
    89   29  107 1   
    90   30   31 1   
    91   30  108 1   
    92   30  109 1   
    93   31   32 1   
    94   31  110 1   
    95   31  111 1   
    96   32   33 1   
    97   32  112 1   
    98   32  113 1   
    99   33   34 1   
   100   33  114 1   
   101   33  115 1   
   102   34   35 1   
   103   34  116 1   
   104   34  117 1   
   105   35   36 1   
   106   35  118 1   
   107   35  119 1   
   108   36   37 1   
   109   36  120 1   
   110   36  121 1   
   111   37   38 1   
   112   37  122 1   
   113   37  123 1   
   114   38   39 1   
   115   38  124 1   
   116   38  125 1   
   117   39   40 1   
   118   39  126 1   
   119   39  127 1   
   120   40   41 1   
   121   40  128 1   
   122   40  129 1   
   123   41  130 1   
   124   41  131 1   
   125   41  132 1   
   126   42  133 2   
   127   44  133 1   
   128   46   50 1   
   129   46   56 1   
   130   47   50 2   
   131   48   50 1   
   132   49   50 1   
@<TRIPOS>SUBSTRUCTURE
     1 PEE         1 TEMP              0 ****  ****    0 ROOT
