@<TRIPOS>MOLECULE
PEF
  120   119     1     0     0
SMALL
bcc


@<TRIPOS>ATOM
      1 C2         -2.8690    0.5540   -1.0160 c3        1 PEF      0.135100
      2 C1         -3.1230   -0.7450   -0.2400 c3        1 PEF      0.181400
      3 N          -5.0040   -0.4370    5.0280 n3        1 PEF     -0.907800
      4 C3         -2.4480    1.7160   -0.1200 c3        1 PEF      0.126400
      5 C4         -3.3290   -2.0190    3.9380 c3        1 PEF      0.161400
      6 C5         -3.6820   -1.0100    5.0480 c3        1 PEF      0.132800
      7 C11        -0.5340    0.5360   -3.9210 c3        1 PEF     -0.130400
      8 C12        -0.8610    0.6960   -5.3900 c3        1 PEF     -0.078400
      9 C13         0.3440    0.3730   -6.2480 c3        1 PEF     -0.078400
     10 C14         0.0180    0.5130   -7.7200 c3        1 PEF     -0.079400
     11 C15         1.2210    0.1960   -8.5810 c3        1 PEF     -0.078400
     12 C16         0.8950    0.3350  -10.0530 c3        1 PEF     -0.079400
     13 C17         2.0980    0.0180  -10.9150 c3        1 PEF     -0.078400
     14 C18         1.7720    0.1560  -12.3860 c3        1 PEF     -0.079400
     15 C19         2.9750   -0.1610  -13.2480 c3        1 PEF     -0.078400
     16 C20         2.6490   -0.0220  -14.7200 c3        1 PEF     -0.079400
     17 C21         3.8520   -0.3400  -15.5820 c3        1 PEF     -0.078400
     18 C22         3.5260   -0.2010  -17.0540 c3        1 PEF     -0.079400
     19 C23         4.7290   -0.5180  -17.9160 c3        1 PEF     -0.079400
     20 C24         4.4030   -0.3800  -19.3880 c3        1 PEF     -0.080400
     21 C25         5.5980   -0.6940  -20.2500 c3        1 PEF     -0.092100
     22 C30        -1.4740    1.7010    2.0650 c         1 PEF      0.653100
     23 C31        -0.7730    0.7790    3.0100 c3        1 PEF     -0.149400
     24 C32        -0.4880    1.4470    4.3360 c3        1 PEF     -0.074400
     25 C33         0.0890    0.4530    5.3210 c3        1 PEF     -0.080400
     26 C34         0.3990    1.1150    6.6470 c3        1 PEF     -0.078400
     27 C35         0.9740    0.1220    7.6350 c3        1 PEF     -0.079400
     28 C36         1.2830    0.7830    8.9610 c3        1 PEF     -0.078400
     29 C37         1.8580   -0.2090    9.9490 c3        1 PEF     -0.079400
     30 C38         2.1680    0.4510   11.2750 c3        1 PEF     -0.078400
     31 C39         2.7430   -0.5410   12.2630 c3        1 PEF     -0.079400
     32 C40         3.0530    0.1190   13.5890 c3        1 PEF     -0.078400
     33 C41         3.6280   -0.8740   14.5760 c3        1 PEF     -0.079400
     34 C42         3.9380   -0.2130   15.9030 c3        1 PEF     -0.079400
     35 C43         4.5130   -1.2060   16.8900 c3        1 PEF     -0.079400
     36 C44         4.8240   -0.5470   18.2170 c3        1 PEF     -0.080400
     37 C45         5.3970   -1.5310   19.2040 c3        1 PEF     -0.092100
     38 O4         -2.4480    1.9330   -3.2590 o         1 PEF     -0.563000
     39 O5         -2.0530    2.7670    2.2910 o         1 PEF     -0.560000
     40 O2         -1.8120    0.2260   -1.9440 os        1 PEF     -0.425900
     41 O3         -1.4300    1.2460    0.7730 os        1 PEF     -0.442900
     42 O1P        -5.7070   -1.5700    2.3960 o         1 PEF     -0.827000
     43 O2P        -4.0820   -3.0340    0.9220 o         1 PEF     -0.827000
     44 O3P        -4.2290   -0.5440    0.5890 os        1 PEF     -0.560200
     45 O4P        -3.2450   -1.4110    2.6890 os        1 PEF     -0.591200
     46 P          -4.4690   -1.8010    1.6290 p5        1 PEF      1.427800
     47 H21        -3.7880    0.8650   -1.5850 h1        1 PEF      0.080700
     48 H11        -3.3360   -1.5890   -0.9500 h1        1 PEF      0.051200
     49 H12        -2.2270   -1.0070    0.3860 h1        1 PEF      0.051200
     50 HN1        -5.0700    0.2460    4.2950 hn        1 PEF      0.361800
     51 HN2        -5.6860   -1.1470    4.8220 hn        1 PEF      0.361800
     52 H31        -3.3410    2.0760    0.4560 h1        1 PEF      0.068200
     53 H32        -2.0050    2.5490   -0.7260 h1        1 PEF      0.068200
     54 H41        -4.0880   -2.8500    3.9170 h1        1 PEF      0.014700
     55 H42        -2.3170   -2.4560    4.1780 h1        1 PEF      0.014700
     56 H51        -3.5620   -1.5480    6.0320 h1        1 PEF      0.027200
     57 H52        -2.9260   -0.1760    5.0140 h1        1 PEF      0.027200
     58 H112        0.3570    1.1610   -3.6460 hc        1 PEF      0.075200
     59 H111       -0.2880   -0.5330   -3.6850 hc        1 PEF      0.075200
     60 H122       -1.7120    0.0190   -5.6610 hc        1 PEF      0.056700
     61 H121       -1.2010    1.7480   -5.5830 hc        1 PEF      0.056700
     62 H132        1.1910    1.0600   -5.9840 hc        1 PEF      0.039200
     63 H131        0.6880   -0.6740   -6.0360 hc        1 PEF      0.039200
     64 H142       -0.8270   -0.1760   -7.9840 hc        1 PEF      0.042200
     65 H141       -0.3310    1.5590   -7.9290 hc        1 PEF      0.042200
     66 H152        2.0660    0.8850   -8.3160 hc        1 PEF      0.038700
     67 H151        1.5690   -0.8500   -8.3700 hc        1 PEF      0.038700
     68 H162        0.0500   -0.3550  -10.3170 hc        1 PEF      0.040200
     69 H161        0.5460    1.3800  -10.2630 hc        1 PEF      0.040200
     70 H172        2.9420    0.7070  -10.6500 hc        1 PEF      0.039200
     71 H171        2.4470   -1.0280  -10.7040 hc        1 PEF      0.039200
     72 H182        0.9270   -0.5340  -12.6510 hc        1 PEF      0.039200
     73 H181        1.4230    1.2010  -12.5970 hc        1 PEF      0.039200
     74 H192        3.8190    0.5290  -12.9840 hc        1 PEF      0.039200
     75 H191        3.3240   -1.2060  -13.0370 hc        1 PEF      0.039200
     76 H202        1.8040   -0.7120  -14.9840 hc        1 PEF      0.039200
     77 H201        2.3000    1.0230  -14.9310 hc        1 PEF      0.039200
     78 H212        4.6960    0.3500  -15.3180 hc        1 PEF      0.039200
     79 H211        4.2010   -1.3850  -15.3710 hc        1 PEF      0.039200
     80 H222        2.6810   -0.8910  -17.3180 hc        1 PEF      0.039200
     81 H221        3.1760    0.8440  -17.2650 hc        1 PEF      0.039200
     82 H232        5.5730    0.1720  -17.6520 hc        1 PEF      0.039200
     83 H231        5.0780   -1.5630  -17.7050 hc        1 PEF      0.039200
     84 H242        3.5580   -1.0700  -19.6500 hc        1 PEF      0.038200
     85 H241        4.0530    0.6650  -19.5960 hc        1 PEF      0.038200
     86 H252        5.3370   -0.5870  -21.3310 hc        1 PEF      0.031367
     87 H251        6.4440   -0.0010  -20.0210 hc        1 PEF      0.031367
     88 H253        5.9470   -1.7410  -20.0740 hc        1 PEF      0.031367
     89 H312        0.1720    0.4070    2.5360 hc        1 PEF      0.101700
     90 H311       -1.4600   -0.1110    3.1490 hc        1 PEF      0.101700
     91 H322       -1.4400    1.8800    4.7450 hc        1 PEF      0.050200
     92 H321        0.2260    2.2990    4.1880 hc        1 PEF      0.050200
     93 H332        1.0250    0.0010    4.8980 hc        1 PEF      0.043200
     94 H331       -0.6430   -0.3840    5.4780 hc        1 PEF      0.043200
     95 H342       -0.5390    1.5650    7.0680 hc        1 PEF      0.039200
     96 H341        1.1270    1.9540    6.4890 hc        1 PEF      0.039200
     97 H352        1.9090   -0.3300    7.2120 hc        1 PEF      0.040200
     98 H351        0.2440   -0.7150    7.7930 hc        1 PEF      0.040200
     99 H362        0.3460    1.2340    9.3830 hc        1 PEF      0.038700
    100 H361        2.0110    1.6220    8.8030 hc        1 PEF      0.038700
    101 H372        2.7940   -0.6620    9.5260 hc        1 PEF      0.039200
    102 H371        1.1290   -1.0470   10.1070 hc        1 PEF      0.039200
    103 H382        1.2320    0.9020   11.6980 hc        1 PEF      0.038200
    104 H381        2.8960    1.2890   11.1170 hc        1 PEF      0.038200
    105 H392        3.6790   -0.9940   11.8400 hc        1 PEF      0.039200
    106 H391        2.0140   -1.3790   12.4210 hc        1 PEF      0.039200
    107 H402        2.1170    0.5710   14.0120 hc        1 PEF      0.038700
    108 H401        3.7810    0.9570   13.4310 hc        1 PEF      0.038700
    109 H412        4.5640   -1.3260   14.1530 hc        1 PEF      0.039200
    110 H411        2.8990   -1.7120   14.7350 hc        1 PEF      0.039200
    111 H422        3.0020    0.2380   16.3260 hc        1 PEF      0.038700
    112 H421        4.6670    0.6250   15.7440 hc        1 PEF      0.038700
    113 H432        5.4490   -1.6580   16.4670 hc        1 PEF      0.039200
    114 H431        3.7840   -2.0440   17.0490 hc        1 PEF      0.039200
    115 H442        3.8870   -0.0940   18.6370 hc        1 PEF      0.038200
    116 H441        5.5510    0.2920   18.0560 hc        1 PEF      0.038200
    117 H452        5.6180   -1.0250   20.1740 hc        1 PEF      0.031367
    118 H451        4.6760   -2.3620   19.3950 hc        1 PEF      0.031367
    119 H453        6.3450   -1.9750   18.8130 hc        1 PEF      0.031367
    120 C10        -1.6790    0.9880   -3.0620 c         1 PEF      0.633100
@<TRIPOS>BOND
     1    1    2 1   
     2    1    4 1   
     3    1   40 1   
     4    1   47 1   
     5    2   44 1   
     6    2   48 1   
     7    2   49 1   
     8    3    6 1   
     9    3   50 1   
    10    3   51 1   
    11    4   41 1   
    12    4   52 1   
    13    4   53 1   
    14    5    6 1   
    15    5   45 1   
    16    5   54 1   
    17    5   55 1   
    18    6   56 1   
    19    6   57 1   
    20    7    8 1   
    21    7   58 1   
    22    7   59 1   
    23    7  120 1   
    24    8    9 1   
    25    8   60 1   
    26    8   61 1   
    27    9   10 1   
    28    9   62 1   
    29    9   63 1   
    30   10   11 1   
    31   10   64 1   
    32   10   65 1   
    33   11   12 1   
    34   11   66 1   
    35   11   67 1   
    36   12   13 1   
    37   12   68 1   
    38   12   69 1   
    39   13   14 1   
    40   13   70 1   
    41   13   71 1   
    42   14   15 1   
    43   14   72 1   
    44   14   73 1   
    45   15   16 1   
    46   15   74 1   
    47   15   75 1   
    48   16   17 1   
    49   16   76 1   
    50   16   77 1   
    51   17   18 1   
    52   17   78 1   
    53   17   79 1   
    54   18   19 1   
    55   18   80 1   
    56   18   81 1   
    57   19   20 1   
    58   19   82 1   
    59   19   83 1   
    60   20   21 1   
    61   20   84 1   
    62   20   85 1   
    63   21   86 1   
    64   21   87 1   
    65   21   88 1   
    66   22   23 1   
    67   22   39 2   
    68   22   41 1   
    69   23   24 1   
    70   23   89 1   
    71   23   90 1   
    72   24   25 1   
    73   24   91 1   
    74   24   92 1   
    75   25   26 1   
    76   25   93 1   
    77   25   94 1   
    78   26   27 1   
    79   26   95 1   
    80   26   96 1   
    81   27   28 1   
    82   27   97 1   
    83   27   98 1   
    84   28   29 1   
    85   28   99 1   
    86   28  100 1   
    87   29   30 1   
    88   29  101 1   
    89   29  102 1   
    90   30   31 1   
    91   30  103 1   
    92   30  104 1   
    93   31   32 1   
    94   31  105 1   
    95   31  106 1   
    96   32   33 1   
    97   32  107 1   
    98   32  108 1   
    99   33   34 1   
   100   33  109 1   
   101   33  110 1   
   102   34   35 1   
   103   34  111 1   
   104   34  112 1   
   105   35   36 1   
   106   35  113 1   
   107   35  114 1   
   108   36   37 1   
   109   36  115 1   
   110   36  116 1   
   111   37  117 1   
   112   37  118 1   
   113   37  119 1   
   114   38  120 2   
   115   40  120 1   
   116   42   46 1   
   117   43   46 1   
   118   44   46 1   
   119   45   46 1   
@<TRIPOS>SUBSTRUCTURE
     1 PEF         1 TEMP              0 ****  ****    0 ROOT
