@<TRIPOS>MOLECULE
PEG
   17    16     1     0     0
SMALL
bcc


@<TRIPOS>ATOM
      1 C1         -0.1000    0.1360   -0.0150 c3        1 PEG      0.131400
      2 O1          1.3040   -0.0040   -0.0740 oh        1 PEG     -0.597800
      3 C2         -0.6130    0.0590    1.4190 c3        1 PEG      0.088400
      4 O2         -0.1280    1.2280    2.0770 os        1 PEG     -0.447600
      5 C3         -0.4700    1.2550    3.4620 c3        1 PEG      0.088400
      6 C4          0.0390    2.5890    3.9990 c3        1 PEG      0.131400
      7 O4         -0.6780    3.6760    3.4550 oh        1 PEG     -0.597800
      8 H11        -0.5040   -0.7260   -0.6100 h1        1 PEG      0.054200
      9 H12        -0.4120    1.1070   -0.4840 h1        1 PEG      0.054200
     10 HO1         1.6790    0.6930    0.4800 ho        1 PEG      0.412000
     11 H21        -1.7340    0.0510    1.4380 h1        1 PEG      0.041200
     12 H22        -0.2180   -0.8560    1.9340 h1        1 PEG      0.041200
     13 H31        -1.5830    1.1780    3.5780 h1        1 PEG      0.041200
     14 H32         0.0260    0.4000    3.9910 h1        1 PEG      0.041200
     15 H41        -0.1400    2.6450    5.1060 h1        1 PEG      0.054200
     16 H42         1.1340    2.6980    3.7810 h1        1 PEG      0.054200
     17 HO4        -0.5910    3.6180    2.4950 ho        1 PEG      0.412000
@<TRIPOS>BOND
     1    1    2 1   
     2    1    3 1   
     3    1    8 1   
     4    1    9 1   
     5    2   10 1   
     6    3    4 1   
     7    3   11 1   
     8    3   12 1   
     9    4    5 1   
    10    5    6 1   
    11    5   13 1   
    12    5   14 1   
    13    6    7 1   
    14    6   15 1   
    15    6   16 1   
    16    7   17 1   
@<TRIPOS>SUBSTRUCTURE
     1 PEG         1 TEMP              0 ****  ****    0 ROOT
