@<TRIPOS>MOLECULE
PEG
   17    16     1     0     0
SMALL
bcc


@<TRIPOS>ATOM
      1 C1         -0.1330    0.1330   -0.0150 c3        1 PEG      0.131400
      2 O1          1.2720    0.0160   -0.1060 oh        1 PEG     -0.597800
      3 C2         -0.6110    0.0510    1.4310 c3        1 PEG      0.088400
      4 O2         -0.1300    1.2280    2.0760 os        1 PEG     -0.447600
      5 C3         -0.4390    1.2520    3.4680 c3        1 PEG      0.088400
      6 C4          0.0590    2.5960    3.9910 c3        1 PEG      0.131400
      7 O4         -0.6890    3.6700    3.4630 oh        1 PEG     -0.597800
      8 H11        -0.5370   -0.7360   -0.5990 h1        1 PEG      0.054200
      9 H12        -0.4720    1.0980   -0.4780 h1        1 PEG      0.054200
     10 HO1         1.6480    0.7190    0.4380 ho        1 PEG      0.412000
     11 H21        -1.7310    0.0250    1.4770 h1        1 PEG      0.041200
     12 H22        -0.1900   -0.8570    1.9380 h1        1 PEG      0.041200
     13 H31        -1.5480    1.1570    3.6100 h1        1 PEG      0.041200
     14 H32         0.0830    0.4070    3.9870 h1        1 PEG      0.041200
     15 H41        -0.0950    2.6510    5.1020 h1        1 PEG      0.054200
     16 H42         1.1470    2.7230    3.7470 h1        1 PEG      0.054200
     17 HO4        -0.6240    3.6120    2.5010 ho        1 PEG      0.412000
@<TRIPOS>BOND
     1    1    2 1   
     2    1    3 1   
     3    1    8 1   
     4    1    9 1   
     5    2   10 1   
     6    3    4 1   
     7    3   11 1   
     8    3   12 1   
     9    4    5 1   
    10    5    6 1   
    11    5   13 1   
    12    5   14 1   
    13    6    7 1   
    14    6   15 1   
    15    6   16 1   
    16    7   17 1   
@<TRIPOS>SUBSTRUCTURE
     1 PEG         1 TEMP              0 ****  ****    0 ROOT
