@<TRIPOS>MOLECULE
PEG
   17    16     1     0     0
SMALL
bcc


@<TRIPOS>ATOM
      1 C1         -2.2440   -0.0900   -0.7100 c3        1 PEG      0.131400
      2 O1         -2.6960   -0.7560    0.4500 oh        1 PEG     -0.597800
      3 C2         -1.1170    0.8880   -0.3940 c3        1 PEG      0.088400
      4 O2          0.0000    0.0940   -0.0010 os        1 PEG     -0.447600
      5 C3          1.1170    0.8850    0.4020 c3        1 PEG      0.088400
      6 C4          2.2440   -0.0960    0.7070 c3        1 PEG      0.131400
      7 O4          2.6970   -0.7480   -0.4600 oh        1 PEG     -0.597800
      8 H11        -1.9020   -0.8360   -1.4760 h1        1 PEG      0.054200
      9 H12        -3.1380    0.4710   -1.0930 h1        1 PEG      0.054200
     10 HO1        -1.9310   -1.2000    0.8360 ho        1 PEG      0.412000
     11 H21        -0.8520    1.4920   -1.3000 h1        1 PEG      0.041200
     12 H22        -1.4090    1.5720    0.4460 h1        1 PEG      0.041200
     13 H31         1.4070    1.5780   -0.4310 h1        1 PEG      0.041200
     14 H32         0.8510    1.4790    1.3140 h1        1 PEG      0.041200
     15 H41         3.1370    0.4620    1.0960 h1        1 PEG      0.054200
     16 H42         1.9030   -0.8500    1.4640 h1        1 PEG      0.054200
     17 HO4         1.9320   -1.1890   -0.8510 ho        1 PEG      0.412000
@<TRIPOS>BOND
     1    1    2 1   
     2    1    3 1   
     3    1    8 1   
     4    1    9 1   
     5    2   10 1   
     6    3    4 1   
     7    3   11 1   
     8    3   12 1   
     9    4    5 1   
    10    5    6 1   
    11    5   13 1   
    12    5   14 1   
    13    6    7 1   
    14    6   15 1   
    15    6   16 1   
    16    7   17 1   
@<TRIPOS>SUBSTRUCTURE
     1 PEG         1 TEMP              0 ****  ****    0 ROOT
