@<TRIPOS>MOLECULE
PEH
  132   131     1     0     0
SMALL
bcc


@<TRIPOS>ATOM
      1 P          -4.8130   -1.9700    1.6830 p5        1 PEH      1.427800
      2 N          -5.4160   -0.6160    5.0750 n3        1 PEH     -0.907800
      3 O11        -4.6350   -0.7080    0.6370 os        1 PEH     -0.560200
      4 O12        -3.6100   -1.5140    2.7410 os        1 PEH     -0.591200
      5 O13        -4.3650   -3.1850    0.9820 o         1 PEH     -0.827000
      6 O14        -6.0610   -1.7960    2.4490 o         1 PEH     -0.827000
      7 C11        -3.6640   -2.1190    3.9940 c3        1 PEH      0.161400
      8 C12        -4.0680   -1.1240    5.0980 c3        1 PEH      0.132800
      9 C1         -3.5200   -0.8580   -0.1910 c3        1 PEH      0.181400
     10 C2         -3.3300    0.4490   -0.9740 c3        1 PEH      0.136100
     11 C3         -2.9670    1.6340   -0.0830 c3        1 PEH      0.126400
     12 O31        -1.9280    1.2200    0.8120 os        1 PEH     -0.442900
     13 O32        -2.6260    2.7160    2.3220 o         1 PEH     -0.560000
     14 C31        -1.9950    1.6790    2.1020 c         1 PEH      0.653100
     15 C32        -1.2500    0.7980    3.0510 c3        1 PEH     -0.149400
     16 C33        -0.9990    1.4860    4.3740 c3        1 PEH     -0.074400
     17 C34        -0.3730    0.5270    5.3650 c3        1 PEH     -0.080400
     18 C35        -0.0980    1.2110    6.6870 c3        1 PEH     -0.078400
     19 C36         0.5250    0.2540    7.6800 c3        1 PEH     -0.079400
     20 C37         0.8010    0.9360    9.0030 c3        1 PEH     -0.078400
     21 C38         1.4240   -0.0210    9.9960 c3        1 PEH     -0.079400
     22 C39         1.7010    0.6610   11.3190 c3        1 PEH     -0.078400
     23 C3A         2.3230   -0.2970   12.3120 c3        1 PEH     -0.079400
     24 C3B         2.6000    0.3850   13.6340 c3        1 PEH     -0.078400
     25 C3C         3.2230   -0.5720   14.6270 c3        1 PEH     -0.079400
     26 C3D         3.5000    0.1100   15.9500 c3        1 PEH     -0.078400
     27 C3E         4.1220   -0.8480   16.9430 c3        1 PEH     -0.079400
     28 C3F         4.3990   -0.1660   18.2660 c3        1 PEH     -0.079400
     29 C3G         5.0220   -1.1240   19.2590 c3        1 PEH     -0.079400
     30 C3H         5.2990   -0.4430   20.5820 c3        1 PEH     -0.080400
     31 C3I         5.9200   -1.3930   21.5740 c3        1 PEH     -0.092100
     32 O21        -2.2580    0.1680   -1.9000 os        1 PEH     -0.425900
     33 O22        -2.9760    1.8350   -3.2240 o         1 PEH     -0.563000
     34 C21        -2.1610    0.9300   -3.0210 c         1 PEH      0.633100
     35 C22        -0.9950    0.5310   -3.8770 c3        1 PEH     -0.130400
     36 C23        -1.3250    0.6740   -5.3470 c3        1 PEH     -0.078400
     37 C24        -0.1060    0.4060   -6.2020 c3        1 PEH     -0.078400
     38 C25        -0.4350    0.5290   -7.6750 c3        1 PEH     -0.079400
     39 C26         0.7840    0.2680   -8.5330 c3        1 PEH     -0.078400
     40 C27         0.4550    0.3900  -10.0060 c3        1 PEH     -0.079400
     41 C28         1.6740    0.1290  -10.8650 c3        1 PEH     -0.078400
     42 C29         1.3450    0.2510  -12.3370 c3        1 PEH     -0.079400
     43 C2A         2.5630   -0.0100  -13.1970 c3        1 PEH     -0.078400
     44 C2B         2.2340    0.1120  -14.6690 c3        1 PEH     -0.079400
     45 C2C         3.4530   -0.1480  -15.5280 c3        1 PEH     -0.079400
     46 C2D         3.1240   -0.0260  -17.0000 c3        1 PEH     -0.079400
     47 C2E         4.3420   -0.2870  -17.8600 c3        1 PEH     -0.078400
     48 C2F         4.0130   -0.1650  -19.3320 c3        1 PEH     -0.079400
     49 C2G         5.2310   -0.4250  -20.1910 c3        1 PEH     -0.079400
     50 C2H         4.9030   -0.3030  -21.6640 c3        1 PEH     -0.080400
     51 C2I         6.1140   -0.5620  -22.5240 c3        1 PEH     -0.092100
     52 HN1        -5.5160    0.0590    4.3380 hn        1 PEH      0.361800
     53 HN2        -6.0620   -1.3600    4.8720 hn        1 PEH      0.361800
     54 H111       -4.3810   -2.9870    3.9760 h1        1 PEH      0.014700
     55 H112       -2.6320   -2.5040    4.2360 h1        1 PEH      0.014700
     56 H121       -3.9220   -1.6500    6.0850 h1        1 PEH      0.027200
     57 H122       -3.3540   -0.2530    5.0600 h1        1 PEH      0.027200
     58 H11        -3.6910   -1.7150   -0.8960 h1        1 PEH      0.051200
     59 H12        -2.6120   -1.0720    0.4370 h1        1 PEH      0.051200
     60 H2         -4.2630    0.7100   -1.5450 h1        1 PEH      0.080700
     61 H31        -3.8780    1.9520    0.4900 h1        1 PEH      0.068200
     62 H32        -2.5670    2.4850   -0.6930 h1        1 PEH      0.068200
     63 H321       -0.2880    0.4700    2.5800 hc        1 PEH      0.101700
     64 H322       -1.8920   -0.1240    3.1950 hc        1 PEH      0.101700
     65 H331       -1.9720    1.8730    4.7800 hc        1 PEH      0.050200
     66 H332       -0.3290    2.3720    4.2220 hc        1 PEH      0.050200
     67 H341        0.5830    0.1200    4.9440 hc        1 PEH      0.043200
     68 H342       -1.0640   -0.3440    5.5260 hc        1 PEH      0.043200
     69 H351       -1.0560    1.6170    7.1050 hc        1 PEH      0.039200
     70 H352        0.5880    2.0840    6.5240 hc        1 PEH      0.039200
     71 H361        1.4820   -0.1550    7.2600 hc        1 PEH      0.040200
     72 H362       -0.1630   -0.6180    7.8430 hc        1 PEH      0.040200
     73 H371       -0.1570    1.3430    9.4220 hc        1 PEH      0.038700
     74 H372        1.4880    1.8080    8.8400 hc        1 PEH      0.038700
     75 H381        2.3810   -0.4300    9.5760 hc        1 PEH      0.039200
     76 H382        0.7370   -0.8930   10.1590 hc        1 PEH      0.039200
     77 H391        0.7430    1.0680   11.7390 hc        1 PEH      0.038200
     78 H392        2.3870    1.5330   11.1560 hc        1 PEH      0.038200
     79 H3A1        3.2800   -0.7050   11.8920 hc        1 PEH      0.039200
     80 H3A2        1.6360   -1.1690   12.4750 hc        1 PEH      0.039200
     81 H3B1        1.6430    0.7930   14.0550 hc        1 PEH      0.038700
     82 H3B2        3.2870    1.2570   13.4710 hc        1 PEH      0.038700
     83 H3C1        4.1800   -0.9800   14.2070 hc        1 PEH      0.039200
     84 H3C2        2.5360   -1.4440   14.7900 hc        1 PEH      0.039200
     85 H3D1        2.5430    0.5170   16.3700 hc        1 PEH      0.039200
     86 H3D2        4.1860    0.9820   15.7870 hc        1 PEH      0.039200
     87 H3E1        5.0790   -1.2560   16.5230 hc        1 PEH      0.039200
     88 H3E2        3.4350   -1.7200   17.1060 hc        1 PEH      0.039200
     89 H3F1        3.4420    0.2420   18.6860 hc        1 PEH      0.039200
     90 H3F2        5.0860    0.7060   18.1020 hc        1 PEH      0.039200
     91 H3G1        5.9790   -1.5320   18.8380 hc        1 PEH      0.039200
     92 H3G2        4.3350   -1.9960   19.4220 hc        1 PEH      0.039200
     93 H3H1        4.3410   -0.0340   21.0000 hc        1 PEH      0.038200
     94 H3H2        5.9850    0.4300   20.4160 hc        1 PEH      0.038200
     95 H3I1        6.1160   -0.8710   22.5410 hc        1 PEH      0.031367
     96 H3I2        5.2400   -2.2570   21.7700 hc        1 PEH      0.031367
     97 H3I3        6.8880   -1.7910   21.1860 hc        1 PEH      0.031367
     98 H221       -0.1350    1.1980   -3.6020 hc        1 PEH      0.075200
     99 H222       -0.7000   -0.5250   -3.6390 hc        1 PEH      0.075200
    100 H231       -2.1440   -0.0440   -5.6190 hc        1 PEH      0.056700
    101 H232       -1.7150    1.7080   -5.5430 hc        1 PEH      0.056700
    102 H241        0.7080    1.1320   -5.9370 hc        1 PEH      0.039200
    103 H242        0.2860   -0.6230   -5.9890 hc        1 PEH      0.039200
    104 H251       -1.2460   -0.1990   -7.9410 hc        1 PEH      0.042200
    105 H252       -0.8310    1.5570   -7.8860 hc        1 PEH      0.042200
    106 H261        1.5950    0.9960   -8.2670 hc        1 PEH      0.038700
    107 H262        1.1810   -0.7600   -8.3200 hc        1 PEH      0.038700
    108 H271       -0.3550   -0.3390  -10.2710 hc        1 PEH      0.040200
    109 H272        0.0580    1.4170  -10.2180 hc        1 PEH      0.040200
    110 H281        2.4850    0.8570  -10.5990 hc        1 PEH      0.039200
    111 H282        2.0710   -0.8990  -10.6520 hc        1 PEH      0.039200
    112 H291        0.5340   -0.4780  -12.6030 hc        1 PEH      0.039200
    113 H292        0.9480    1.2790  -12.5500 hc        1 PEH      0.039200
    114 H2A1        3.3740    0.7190  -12.9310 hc        1 PEH      0.039200
    115 H2A2        2.9600   -1.0380  -12.9840 hc        1 PEH      0.039200
    116 H2B1        1.4240   -0.6170  -14.9350 hc        1 PEH      0.039200
    117 H2B2        1.8370    1.1400  -14.8810 hc        1 PEH      0.039200
    118 H2C1        4.2630    0.5800  -15.2620 hc        1 PEH      0.039200
    119 H2C2        3.8500   -1.1760  -15.3150 hc        1 PEH      0.039200
    120 H2D1        2.3130   -0.7550  -17.2660 hc        1 PEH      0.039200
    121 H2D2        2.7260    1.0010  -17.2130 hc        1 PEH      0.039200
    122 H2E1        5.1530    0.4420  -17.5940 hc        1 PEH      0.039200
    123 H2E2        4.7390   -1.3150  -17.6470 hc        1 PEH      0.039200
    124 H2F1        3.2020   -0.8940  -19.5980 hc        1 PEH      0.039200
    125 H2F2        3.6150    0.8630  -19.5440 hc        1 PEH      0.039200
    126 H2G1        6.0420    0.3030  -19.9260 hc        1 PEH      0.039200
    127 H2G2        5.6290   -1.4530  -19.9790 hc        1 PEH      0.039200
    128 H2H1        4.0910   -1.0320  -21.9280 hc        1 PEH      0.038200
    129 H2H2        4.5050    0.7240  -21.8740 hc        1 PEH      0.038200
    130 H2I1        5.8500   -0.4670  -23.6050 hc        1 PEH      0.031367
    131 H2I2        6.9250    0.1700  -22.2930 hc        1 PEH      0.031367
    132 H2I3        6.5110   -1.5910  -22.3470 hc        1 PEH      0.031367
@<TRIPOS>BOND
     1    1    3 1   
     2    1    4 1   
     3    1    5 1   
     4    1    6 1   
     5    2    8 1   
     6    2   52 1   
     7    2   53 1   
     8    3    9 1   
     9    4    7 1   
    10    7    8 1   
    11    7   54 1   
    12    7   55 1   
    13    8   56 1   
    14    8   57 1   
    15    9   10 1   
    16    9   58 1   
    17    9   59 1   
    18   10   11 1   
    19   10   32 1   
    20   10   60 1   
    21   11   12 1   
    22   11   61 1   
    23   11   62 1   
    24   12   14 1   
    25   13   14 2   
    26   14   15 1   
    27   15   16 1   
    28   15   63 1   
    29   15   64 1   
    30   16   17 1   
    31   16   65 1   
    32   16   66 1   
    33   17   18 1   
    34   17   67 1   
    35   17   68 1   
    36   18   19 1   
    37   18   69 1   
    38   18   70 1   
    39   19   20 1   
    40   19   71 1   
    41   19   72 1   
    42   20   21 1   
    43   20   73 1   
    44   20   74 1   
    45   21   22 1   
    46   21   75 1   
    47   21   76 1   
    48   22   23 1   
    49   22   77 1   
    50   22   78 1   
    51   23   24 1   
    52   23   79 1   
    53   23   80 1   
    54   24   25 1   
    55   24   81 1   
    56   24   82 1   
    57   25   26 1   
    58   25   83 1   
    59   25   84 1   
    60   26   27 1   
    61   26   85 1   
    62   26   86 1   
    63   27   28 1   
    64   27   87 1   
    65   27   88 1   
    66   28   29 1   
    67   28   89 1   
    68   28   90 1   
    69   29   30 1   
    70   29   91 1   
    71   29   92 1   
    72   30   31 1   
    73   30   93 1   
    74   30   94 1   
    75   31   95 1   
    76   31   96 1   
    77   31   97 1   
    78   32   34 1   
    79   33   34 2   
    80   34   35 1   
    81   35   36 1   
    82   35   98 1   
    83   35   99 1   
    84   36   37 1   
    85   36  100 1   
    86   36  101 1   
    87   37   38 1   
    88   37  102 1   
    89   37  103 1   
    90   38   39 1   
    91   38  104 1   
    92   38  105 1   
    93   39   40 1   
    94   39  106 1   
    95   39  107 1   
    96   40   41 1   
    97   40  108 1   
    98   40  109 1   
    99   41   42 1   
   100   41  110 1   
   101   41  111 1   
   102   42   43 1   
   103   42  112 1   
   104   42  113 1   
   105   43   44 1   
   106   43  114 1   
   107   43  115 1   
   108   44   45 1   
   109   44  116 1   
   110   44  117 1   
   111   45   46 1   
   112   45  118 1   
   113   45  119 1   
   114   46   47 1   
   115   46  120 1   
   116   46  121 1   
   117   47   48 1   
   118   47  122 1   
   119   47  123 1   
   120   48   49 1   
   121   48  124 1   
   122   48  125 1   
   123   49   50 1   
   124   49  126 1   
   125   49  127 1   
   126   50   51 1   
   127   50  128 1   
   128   50  129 1   
   129   51  130 1   
   130   51  131 1   
   131   51  132 1   
@<TRIPOS>SUBSTRUCTURE
     1 PEH         1 TEMP              0 ****  ****    0 ROOT
