@<TRIPOS>MOLECULE
PEI
   16    15     1     0     0
SMALL
bcc


@<TRIPOS>ATOM
      1 C1         -0.3370   -0.0000    3.3990 c3        1 PEI     -0.086100
      2 C2          0.5810   -0.0000    2.2030 c3        1 PEI     -0.082400
      3 C3         -0.1910   -0.0000    0.9000 c3        1 PEI     -0.062400
      4 C4          0.7240   -0.0000   -0.2980 c3        1 PEI     -0.193400
      5 C5         -0.0480    0.0000   -1.6280 c         1 PEI      0.907600
      6 O1          0.6370    0.0000   -2.6920 o         1 PEI     -0.854800
      7 O2         -1.3130    0.0000   -1.6090 o         1 PEI     -0.854800
      8 H11         0.2500   -0.0000    4.3490 hc        1 PEI      0.018700
      9 H12        -0.9930    0.9040    3.3890 hc        1 PEI      0.018700
     10 H13        -0.9930   -0.9040    3.3890 hc        1 PEI      0.018700
     11 H21         1.2480    0.9020    2.2430 hc        1 PEI      0.022700
     12 H22         1.2480   -0.9020    2.2430 hc        1 PEI      0.022700
     13 H31        -0.8600   -0.8990    0.8510 hc        1 PEI      0.043700
     14 H32        -0.8600    0.8990    0.8510 hc        1 PEI      0.043700
     15 H41         1.3860    0.9030   -0.2790 hc        1 PEI      0.018700
     16 H42         1.3860   -0.9030   -0.2790 hc        1 PEI      0.018700
@<TRIPOS>BOND
     1    1    2 1   
     2    1    8 1   
     3    1    9 1   
     4    1   10 1   
     5    2    3 1   
     6    2   11 1   
     7    2   12 1   
     8    3    4 1   
     9    3   13 1   
    10    3   14 1   
    11    4    5 1   
    12    4   15 1   
    13    4   16 1   
    14    5    6 1   
    15    5    7 1   
@<TRIPOS>SUBSTRUCTURE
     1 PEI         1 TEMP              0 ****  ****    0 ROOT
