@<TRIPOS>MOLECULE
PEK
  130   129     1     0     0
SMALL
bcc


@<TRIPOS>ATOM
      1 P          -5.3340   -0.9780   -0.0510 p5        1 PEK      1.427800
      2 N          -5.5210    0.9470    3.1040 n3        1 PEK     -0.907800
      3 C01        -2.6020    1.7300   -2.2500 c3        1 PEK      0.127400
      4 C02        -3.2850    0.5700   -2.9700 c3        1 PEK      0.135100
      5 C03        -3.8030   -0.5140   -2.0150 c3        1 PEK      0.180400
      6 C04        -4.2470   -1.1050    2.2910 c3        1 PEK      0.161400
      7 C05        -4.3570    0.1080    3.2350 c3        1 PEK      0.132800
      8 O01        -2.3420   -0.1160   -3.8230 os        1 PEK     -0.424900
      9 O04        -1.9700    3.0040   -0.0020 o         1 PEK     -0.559000
     10 O11        -4.8340    0.0380   -1.2500 os        1 PEK     -0.560200
     11 O12        -4.0430   -0.7190    0.9690 os        1 PEK     -0.591200
     12 O13        -6.4830   -0.3770    0.6500 o         1 PEK     -0.826500
     13 O14        -5.2320   -2.3510   -0.5740 o         1 PEK     -0.826500
     14 C1         -2.0870    0.4090   -5.0500 c         1 PEK      0.633100
     15 C2         -1.1110   -0.4090   -5.8430 c3        1 PEK     -0.128400
     16 C3         -1.6650   -1.7870   -6.1420 c3        1 PEK     -0.078400
     17 C4         -0.6610   -2.6090   -6.9230 c3        1 PEK     -0.050200
     18 C5         -1.1750   -3.9620   -7.2390 c2        1 PEK     -0.160200
     19 C6         -0.6040   -4.7920   -8.1190 c2        1 PEK     -0.182200
     20 C7          0.6080   -4.4480   -8.9010 c3        1 PEK     -0.019000
     21 C8          1.1780   -5.5910   -9.6530 c2        1 PEK     -0.161200
     22 C9          2.1920   -5.4760  -10.5170 c2        1 PEK     -0.180200
     23 C10         2.8570   -4.1890  -10.8310 c3        1 PEK     -0.019000
     24 C11         4.0230   -4.3210  -11.7360 c2        1 PEK     -0.168200
     25 C12         4.8150   -3.2980  -12.0750 c2        1 PEK     -0.174200
     26 C13         4.6220   -1.9150  -11.5790 c3        1 PEK     -0.020000
     27 C14         5.5460   -0.9260  -12.1840 c2        1 PEK     -0.172200
     28 C15         5.5840    0.3620  -11.8280 c2        1 PEK     -0.173200
     29 C16         4.7130    0.9540  -10.7860 c3        1 PEK     -0.050200
     30 C17         4.9310    2.4450  -10.6310 c3        1 PEK     -0.076400
     31 C18         4.0280    3.0210   -9.5620 c3        1 PEK     -0.081400
     32 C19         4.2420    4.5120   -9.4040 c3        1 PEK     -0.078400
     33 C20         3.3450    5.0880   -8.3390 c3        1 PEK     -0.094100
     34 C21        -1.6380    1.8180   -0.0610 c         1 PEK      0.653100
     35 C22        -1.1500    0.9100    1.0200 c3        1 PEK     -0.149400
     36 C23        -0.7130    1.6810    2.2450 c3        1 PEK     -0.074400
     37 C24        -0.3580    0.7360    3.3730 c3        1 PEK     -0.080400
     38 C25         0.1000    1.4970    4.5980 c3        1 PEK     -0.078400
     39 C26         0.4530    0.5540    5.7290 c3        1 PEK     -0.079400
     40 C27         0.9100    1.3140    6.9560 c3        1 PEK     -0.078400
     41 C28         1.2630    0.3720    8.0860 c3        1 PEK     -0.079400
     42 C29         1.7200    1.1310    9.3140 c3        1 PEK     -0.078400
     43 C30         2.0730    0.1890   10.4440 c3        1 PEK     -0.079400
     44 C31         2.5300    0.9490   11.6710 c3        1 PEK     -0.078400
     45 C32         2.8830    0.0060   12.8020 c3        1 PEK     -0.079400
     46 C33         3.3400    0.7660   14.0290 c3        1 PEK     -0.078400
     47 C34         3.6920   -0.1770   15.1590 c3        1 PEK     -0.079400
     48 C35         4.1490    0.5830   16.3860 c3        1 PEK     -0.079400
     49 C36         4.5020   -0.3600   17.5170 c3        1 PEK     -0.079400
     50 C37         4.9590    0.3990   18.7450 c3        1 PEK     -0.080400
     51 C38         5.3110   -0.5360   19.8730 c3        1 PEK     -0.092100
     52 HN1        -5.4450    1.5140    2.2800 hn        1 PEK      0.361800
     53 HN2        -6.3450    0.3810    2.9890 hn        1 PEK      0.361800
     54 H011       -3.3840    2.3630   -1.7540 h1        1 PEK      0.068200
     55 H012       -1.9930    2.3410   -2.9650 h1        1 PEK      0.068200
     56 H02        -4.1240    0.9860   -3.5920 h1        1 PEK      0.081700
     57 H031       -4.1980   -1.3910   -2.5960 h1        1 PEK      0.051200
     58 H032       -2.9780   -0.8630   -1.3360 h1        1 PEK      0.051200
     59 H041       -5.1710   -1.7430    2.3720 h1        1 PEK      0.014700
     60 H042       -3.3540   -1.7140    2.6130 h1        1 PEK      0.014700
     61 H051       -4.3460   -0.2930    4.2890 h1        1 PEK      0.027200
     62 H052       -3.4370    0.7430    3.0950 h1        1 PEK      0.027200
     63 H21        -0.8860    0.1400   -6.7950 hc        1 PEK      0.068700
     64 H22        -0.1620   -0.4980   -5.2510 hc        1 PEK      0.068700
     65 H31        -1.9170   -2.3010   -5.1760 hc        1 PEK      0.063700
     66 H32        -2.6150   -1.6930   -6.7300 hc        1 PEK      0.063700
     67 H41        -0.3920   -2.0720   -7.8750 hc        1 PEK      0.044700
     68 H42         0.2890   -2.7080   -6.3270 hc        1 PEK      0.044700
     69 H5         -2.0800   -4.2720   -6.6880 ha        1 PEK      0.133000
     70 H6         -1.0340   -5.7900   -8.3010 ha        1 PEK      0.122000
     71 H71         0.3570   -3.6160   -9.6200 hc        1 PEK      0.054700
     72 H72         1.3970   -4.0350   -8.2080 hc        1 PEK      0.054700
     73 H8          0.7230   -6.5770   -9.4610 ha        1 PEK      0.124000
     74 H9          2.5770   -6.3660  -11.0420 ha        1 PEK      0.120000
     75 H101        2.1040   -3.4900  -11.3000 hc        1 PEK      0.056700
     76 H102        3.1840   -3.6950   -9.8700 hc        1 PEK      0.056700
     77 H11         4.2210   -5.3300  -12.1350 ha        1 PEK      0.122000
     78 H12         5.6670   -3.4580  -12.7550 ha        1 PEK      0.121000
     79 H131        3.5580   -1.5920  -11.7740 hc        1 PEK      0.057200
     80 H132        4.7490   -1.9050  -10.4570 hc        1 PEK      0.057200
     81 H14         6.2220   -1.3050  -12.9680 ha        1 PEK      0.120000
     82 H15         6.2910    1.0530  -12.3160 ha        1 PEK      0.120000
     83 H161        3.6350    0.7570  -11.0410 hc        1 PEK      0.049200
     84 H162        4.9080    0.4430   -9.8020 hc        1 PEK      0.049200
     85 H171        6.0030    2.6440  -10.3660 hc        1 PEK      0.039200
     86 H172        4.7310    2.9580  -11.6090 hc        1 PEK      0.039200
     87 H181        2.9560    2.8220   -9.8260 hc        1 PEK      0.042700
     88 H182        4.2280    2.5080   -8.5840 hc        1 PEK      0.042700
     89 H191        5.3150    4.7090   -9.1410 hc        1 PEK      0.035700
     90 H192        4.0430    5.0230  -10.3830 hc        1 PEK      0.035700
     91 H201        3.5180    6.1870   -8.2390 hc        1 PEK      0.035367
     92 H202        2.2710    4.9220   -8.5950 hc        1 PEK      0.035367
     93 H203        3.5460    4.6090   -7.3510 hc        1 PEK      0.035367
     94 H221       -0.3140    0.2760    0.6250 hc        1 PEK      0.102200
     95 H222       -2.0140    0.2200    1.2670 hc        1 PEK      0.102200
     96 H231       -1.5440    2.3650    2.5670 hc        1 PEK      0.050700
     97 H232        0.1680    2.3280    1.9940 hc        1 PEK      0.050700
     98 H241        0.4530    0.0360    3.0390 hc        1 PEK      0.043700
     99 H242       -1.2540    0.1090    3.6290 hc        1 PEK      0.043700
    100 H251       -0.7130    2.1950    4.9310 hc        1 PEK      0.039200
    101 H252        0.9920    2.1270    4.3410 hc        1 PEK      0.039200
    102 H261        1.2640   -0.1450    5.3960 hc        1 PEK      0.040200
    103 H262       -0.4400   -0.0740    5.9870 hc        1 PEK      0.040200
    104 H271        0.0980    2.0130    7.2880 hc        1 PEK      0.038700
    105 H272        1.8020    1.9440    6.6980 hc        1 PEK      0.038700
    106 H281        2.0750   -0.3280    7.7530 hc        1 PEK      0.039200
    107 H282        0.3700   -0.2570    8.3440 hc        1 PEK      0.039200
    108 H291        0.9080    1.8310    9.6460 hc        1 PEK      0.038200
    109 H292        2.6120    1.7610    9.0560 hc        1 PEK      0.038200
    110 H301        2.8850   -0.5100   10.1110 hc        1 PEK      0.039200
    111 H302        1.1800   -0.4400   10.7020 hc        1 PEK      0.039200
    112 H311        1.7180    1.6480   12.0040 hc        1 PEK      0.038700
    113 H312        3.4220    1.5780   11.4130 hc        1 PEK      0.038700
    114 H321        3.6940   -0.6930   12.4690 hc        1 PEK      0.039200
    115 H322        1.9900   -0.6230   13.0590 hc        1 PEK      0.039200
    116 H331        2.5280    1.4650   14.3620 hc        1 PEK      0.039200
    117 H332        4.2320    1.3950   13.7710 hc        1 PEK      0.039200
    118 H341        4.5040   -0.8760   14.8260 hc        1 PEK      0.039200
    119 H342        2.8000   -0.8060   15.4170 hc        1 PEK      0.039200
    120 H351        3.3370    1.2820   16.7190 hc        1 PEK      0.039200
    121 H352        5.0420    1.2120   16.1280 hc        1 PEK      0.039200
    122 H361        5.3140   -1.0590   17.1840 hc        1 PEK      0.039200
    123 H362        3.6100   -0.9890   17.7740 hc        1 PEK      0.039200
    124 H371        4.1460    1.0980   19.0750 hc        1 PEK      0.038200
    125 H372        5.8500    1.0280   18.4850 hc        1 PEK      0.038200
    126 H381        5.6450    0.0430   20.7680 hc        1 PEK      0.031700
    127 H382        4.4280   -1.1550   20.1630 hc        1 PEK      0.031700
    128 H383        6.1370   -1.2250   19.5710 hc        1 PEK      0.031700
    129 O03        -1.7020    1.1850   -1.2770 os        1 PEK     -0.442900
    130 O02        -2.6310    1.4620   -5.3980 o         1 PEK     -0.561000
@<TRIPOS>BOND
     1    1   10 1   
     2    1   11 1   
     3    1   12 1   
     4    1   13 1   
     5    2    7 1   
     6    2   52 1   
     7    2   53 1   
     8    3    4 1   
     9    3   54 1   
    10    3   55 1   
    11    3  129 1   
    12    4    5 1   
    13    4    8 1   
    14    4   56 1   
    15    5   10 1   
    16    5   57 1   
    17    5   58 1   
    18    6    7 1   
    19    6   11 1   
    20    6   59 1   
    21    6   60 1   
    22    7   61 1   
    23    7   62 1   
    24    8   14 1   
    25    9   34 2   
    26   14   15 1   
    27   14  130 2   
    28   15   16 1   
    29   15   63 1   
    30   15   64 1   
    31   16   17 1   
    32   16   65 1   
    33   16   66 1   
    34   17   18 1   
    35   17   67 1   
    36   17   68 1   
    37   18   19 2   
    38   18   69 1   
    39   19   20 1   
    40   19   70 1   
    41   20   21 1   
    42   20   71 1   
    43   20   72 1   
    44   21   22 2   
    45   21   73 1   
    46   22   23 1   
    47   22   74 1   
    48   23   24 1   
    49   23   75 1   
    50   23   76 1   
    51   24   25 2   
    52   24   77 1   
    53   25   26 1   
    54   25   78 1   
    55   26   27 1   
    56   26   79 1   
    57   26   80 1   
    58   27   28 2   
    59   27   81 1   
    60   28   29 1   
    61   28   82 1   
    62   29   30 1   
    63   29   83 1   
    64   29   84 1   
    65   30   31 1   
    66   30   85 1   
    67   30   86 1   
    68   31   32 1   
    69   31   87 1   
    70   31   88 1   
    71   32   33 1   
    72   32   89 1   
    73   32   90 1   
    74   33   91 1   
    75   33   92 1   
    76   33   93 1   
    77   34   35 1   
    78   34  129 1   
    79   35   36 1   
    80   35   94 1   
    81   35   95 1   
    82   36   37 1   
    83   36   96 1   
    84   36   97 1   
    85   37   38 1   
    86   37   98 1   
    87   37   99 1   
    88   38   39 1   
    89   38  100 1   
    90   38  101 1   
    91   39   40 1   
    92   39  102 1   
    93   39  103 1   
    94   40   41 1   
    95   40  104 1   
    96   40  105 1   
    97   41   42 1   
    98   41  106 1   
    99   41  107 1   
   100   42   43 1   
   101   42  108 1   
   102   42  109 1   
   103   43   44 1   
   104   43  110 1   
   105   43  111 1   
   106   44   45 1   
   107   44  112 1   
   108   44  113 1   
   109   45   46 1   
   110   45  114 1   
   111   45  115 1   
   112   46   47 1   
   113   46  116 1   
   114   46  117 1   
   115   47   48 1   
   116   47  118 1   
   117   47  119 1   
   118   48   49 1   
   119   48  120 1   
   120   48  121 1   
   121   49   50 1   
   122   49  122 1   
   123   49  123 1   
   124   50   51 1   
   125   50  124 1   
   126   50  125 1   
   127   51  126 1   
   128   51  127 1   
   129   51  128 1   
@<TRIPOS>SUBSTRUCTURE
     1 PEK         1 TEMP              0 ****  ****    0 ROOT
