@<TRIPOS>MOLECULE
PEL
   19    19     1     0     0
SMALL
bcc


@<TRIPOS>ATOM
      1 C1'        -0.0070   -0.0190   -0.0100 ca        1 PEL     -0.082300
      2 C2'         1.3930   -0.0110   -0.0020 ca        1 PEL     -0.126500
      3 C3'         2.0890    0.0080    1.2060 ca        1 PEL     -0.128500
      4 C4'         1.3930    0.0200    2.4150 ca        1 PEL     -0.131000
      5 C5'        -0.0020    0.0130    2.4130 ca        1 PEL     -0.128500
      6 C6'        -0.7000   -0.0060    1.2060 ca        1 PEL     -0.126500
      7 CA         -0.7510   -0.0300   -1.2980 c3        1 PEL     -0.042100
      8 C          -1.0160   -1.4580   -1.7590 c3        1 PEL      0.134400
      9 OXT        -1.7240   -1.3670   -2.9850 oh        1 PEL     -0.603800
     10 H2          1.9440   -0.0170   -0.9540 ha        1 PEL      0.132000
     11 H3          3.1880    0.0150    1.2040 ha        1 PEL      0.131000
     12 H4          1.9430    0.0350    3.3670 ha        1 PEL      0.131000
     13 H5         -0.5530    0.0240    3.3640 ha        1 PEL      0.131000
     14 H6         -1.8000   -0.0080    1.2080 ha        1 PEL      0.132000
     15 HA1        -1.7320    0.5040   -1.1890 hc        1 PEL      0.062700
     16 HA2        -0.1670    0.5060   -2.0920 hc        1 PEL      0.062700
     17 H11        -0.0490   -2.0080   -1.9130 h1        1 PEL      0.024700
     18 H12        -1.6320   -2.0090   -0.9990 h1        1 PEL      0.024700
     19 HXT        -1.8900   -2.2720   -3.2730 ho        1 PEL      0.400000
@<TRIPOS>BOND
     1    1    2 ar  
     2    1    6 ar  
     3    1    7 1   
     4    2    3 ar  
     5    2   10 1   
     6    3    4 ar  
     7    3   11 1   
     8    4    5 ar  
     9    4   12 1   
    10    5    6 ar  
    11    5   13 1   
    12    6   14 1   
    13    7    8 1   
    14    7   15 1   
    15    7   16 1   
    16    8    9 1   
    17    8   17 1   
    18    8   18 1   
    19    9   19 1   
@<TRIPOS>SUBSTRUCTURE
     1 PEL         1 TEMP              0 ****  ****    0 ROOT
