@<TRIPOS>MOLECULE
PEL
   19    19     1     0     0
SMALL
bcc


@<TRIPOS>ATOM
      1 C1'        -0.0830   -0.3350   -0.0690 ca        1 PEL     -0.082300
      2 C2'         1.1450   -0.0730   -0.6900 ca        1 PEL     -0.126500
      3 C3'         1.1950    0.2390   -2.0470 ca        1 PEL     -0.128500
      4 C4'         0.0200    0.2920   -2.7970 ca        1 PEL     -0.131000
      5 C5'        -1.2050    0.0310   -2.1850 ca        1 PEL     -0.128500
      6 C6'        -1.2580   -0.2810   -0.8270 ca        1 PEL     -0.126500
      7 CA         -0.1310   -0.6800    1.3760 c3        1 PEL     -0.042100
      8 C           0.1080    0.5510    2.2400 c3        1 PEL      0.134400
      9 OXT         0.1100    0.1110    3.5890 oh        1 PEL     -0.603800
     10 H2          2.0730   -0.1180   -0.1000 ha        1 PEL      0.132000
     11 H3          2.1640    0.4430   -2.5270 ha        1 PEL      0.131000
     12 H4          0.0600    0.5380   -3.8680 ha        1 PEL      0.131000
     13 H5         -2.1340    0.0700   -2.7730 ha        1 PEL      0.131000
     14 H6         -2.2270   -0.4890   -0.3490 ha        1 PEL      0.132000
     15 HA1         0.6540   -1.4480    1.6140 hc        1 PEL      0.062700
     16 HA2        -1.1240   -1.1270    1.6460 hc        1 PEL      0.062700
     17 H11        -0.7070    1.3080    2.0840 h1        1 PEL      0.024700
     18 H12         1.0960    1.0220    1.9880 h1        1 PEL      0.024700
     19 HXT         0.2410    0.8960    4.1330 ho        1 PEL      0.400000
@<TRIPOS>BOND
     1    1    2 ar  
     2    1    6 ar  
     3    1    7 1   
     4    2    3 ar  
     5    2   10 1   
     6    3    4 ar  
     7    3   11 1   
     8    4    5 ar  
     9    4   12 1   
    10    5    6 ar  
    11    5   13 1   
    12    6   14 1   
    13    7    8 1   
    14    7   15 1   
    15    7   16 1   
    16    8    9 1   
    17    8   17 1   
    18    8   18 1   
    19    9   19 1   
@<TRIPOS>SUBSTRUCTURE
     1 PEL         1 TEMP              0 ****  ****    0 ROOT
