@<TRIPOS>MOLECULE
PEM
   44    45     1     0     0
SMALL
bcc


@<TRIPOS>ATOM
      1 C1          1.1230   -4.0760    8.7510 ca        1 PEM     -0.160600
      2 C2          1.3760   -4.1170   10.1310 ca        1 PEM     -0.080000
      3 C3          1.5940   -2.9410   10.8400 ca        1 PEM     -0.130500
      4 C4          1.5640   -1.7140   10.1640 ca        1 PEM      0.025400
      5 C5          1.3250   -1.6600    8.7920 ca        1 PEM     -0.130500
      6 C6          1.1060   -2.8480    8.0860 ca        1 PEM     -0.080000
      7 CL          1.8260   -0.2770   11.0440 cl        1 PEM     -0.122400
      8 C7          0.9000   -5.3730    8.0520 c         1 PEM      0.667700
      9 O1          1.4010   -6.4380    8.4810 o         1 PEM     -0.639100
     10 N1          0.0450   -5.3780    6.9620 n         1 PEM     -0.541900
     11 C8         -0.0550   -6.5060    6.0780 c3        1 PEM      0.087000
     12 C9          0.7610   -6.4010    4.7790 c3        1 PEM     -0.056100
     13 C10         0.4190   -2.4150    3.2650 ca        1 PEM      0.143100
     14 C11        -0.6350   -3.3230    3.0760 ca        1 PEM     -0.146500
     15 C12        -0.5010   -4.6330    3.5300 ca        1 PEM     -0.129000
     16 C13         0.6680   -5.0460    4.1760 ca        1 PEM     -0.130300
     17 C14         1.7330   -4.1450    4.3140 ca        1 PEM     -0.129000
     18 C15         1.6180   -2.8350    3.8640 ca        1 PEM     -0.146500
     19 C16         0.0710   -0.0940    3.7570 c3        1 PEM      0.037800
     20 C17        -1.4000   -0.1010    4.1360 c3        1 PEM     -0.083600
     21 C18         0.4420    1.1900    3.0300 c3        1 PEM     -0.083600
     22 C19         0.9740   -0.2720    5.0160 c         1 PEM      0.900600
     23 O3          0.4320   -0.6750    6.0860 o         1 PEM     -0.833800
     24 O4          2.2000    0.0050    4.9160 o         1 PEM     -0.833800
     25 H21         1.4080   -5.0920   10.6420 ha        1 PEM      0.168000
     26 H31         1.7910   -2.9770   11.9210 ha        1 PEM      0.172000
     27 H51         1.2920   -0.7080    8.2230 ha        1 PEM      0.172000
     28 HC6         0.9320   -2.7460    6.9960 ha        1 PEM      0.168000
     29 HN1        -0.1790   -4.4960    6.5520 hn        1 PEM      0.323500
     30 HC81       -1.1440   -6.6090    5.8000 h1        1 PEM      0.052200
     31 HC82        0.2630   -7.4350    6.6300 h1        1 PEM      0.052200
     32 HC91        1.8330   -6.6530    4.9950 hc        1 PEM      0.044700
     33 HC92        0.3690   -7.1730    4.0660 hc        1 PEM      0.044700
     34 H11        -1.5590   -2.9860    2.5880 ha        1 PEM      0.161500
     35 H12        -1.3310   -5.3430    3.4010 ha        1 PEM      0.120000
     36 H14         2.6640   -4.4700    4.8020 ha        1 PEM      0.120000
     37 H15         2.4280   -2.0990    4.0180 ha        1 PEM      0.161500
     38 H171       -1.5800    0.6680    4.9230 hc        1 PEM      0.032700
     39 H172       -2.0390    0.1130    3.2470 hc        1 PEM      0.032700
     40 H173       -1.6720   -1.1020    4.5510 hc        1 PEM      0.032700
     41 H181        1.5470    1.2150    2.8690 hc        1 PEM      0.032700
     42 H182        0.1450    2.0600    3.6600 hc        1 PEM      0.032700
     43 H183       -0.0780    1.2500    2.0450 hc        1 PEM      0.032700
     44 O2          0.2910   -1.1360    2.7610 os        1 PEM     -0.362900
@<TRIPOS>BOND
     1    1    2 ar  
     2    1    6 ar  
     3    1    8 1   
     4    2    3 ar  
     5    2   25 1   
     6    3    4 ar  
     7    3   26 1   
     8    4    5 ar  
     9    4    7 1   
    10    5    6 ar  
    11    5   27 1   
    12    6   28 1   
    13    8    9 2   
    14    8   10 1   
    15   10   11 1   
    16   10   29 1   
    17   11   12 1   
    18   11   30 1   
    19   11   31 1   
    20   12   16 1   
    21   12   32 1   
    22   12   33 1   
    23   13   14 ar  
    24   13   18 ar  
    25   13   44 1   
    26   14   15 ar  
    27   14   34 1   
    28   15   16 ar  
    29   15   35 1   
    30   16   17 ar  
    31   17   18 ar  
    32   17   36 1   
    33   18   37 1   
    34   19   20 1   
    35   19   21 1   
    36   19   22 1   
    37   19   44 1   
    38   20   38 1   
    39   20   39 1   
    40   20   40 1   
    41   21   41 1   
    42   21   42 1   
    43   21   43 1   
    44   22   23 1   
    45   22   24 1   
@<TRIPOS>SUBSTRUCTURE
     1 PEM         1 TEMP              0 ****  ****    0 ROOT
