@<TRIPOS>MOLECULE
PEM
   44    45     1     0     0
SMALL
bcc


@<TRIPOS>ATOM
      1 C1          1.2370    1.7530    1.7520 cx        1 PEM     -0.020500
      2 C2          1.6050    2.2250    3.1890 cx        1 PEM     -0.147300
      3 C3          1.1360    1.7720    4.5180 c2        1 PEM     -0.136200
      4 C4         -0.2120    2.0390    4.6280 ce        1 PEM     -0.013600
      5 C5         -0.7760    2.4100    3.3140 ce        1 PEM     -0.041000
      6 C6          0.2960    2.5620    2.4930 cu        1 PEM     -0.201400
      7 CL         -1.1520    1.8470    6.0060 cl        1 PEM     -0.093400
      8 C7          0.9140    0.3260    1.3780 c         1 PEM      0.653100
      9 O1          1.8610   -0.4740    1.1670 o         1 PEM     -0.678100
     10 N1         -0.3840   -0.0220    1.2220 n         1 PEM     -0.620000
     11 C8         -7.1670    1.5450   -5.2500 c2        1 PEM     -0.262000
     12 C9         -6.1880    0.9880   -4.5320 ce        1 PEM     -0.069200
     13 C10        -5.9300    0.7160   -0.2820 ca        1 PEM      0.182100
     14 C11        -6.9420    1.5040   -0.8750 ca        1 PEM     -0.197500
     15 C12        -7.0270    1.5970   -2.2570 ca        1 PEM     -0.084500
     16 C13        -6.1230    0.9160   -3.0840 ca        1 PEM     -0.138800
     17 C14        -5.1150    0.1450   -2.4800 ca        1 PEM     -0.084500
     18 C15        -5.0120    0.0370   -1.0990 ca        1 PEM     -0.197500
     19 C16        -5.1640   -0.2290    1.8370 c3        1 PEM      0.043800
     20 C17        -5.6510   -1.6400    1.5600 c3        1 PEM     -0.089600
     21 C18        -5.4580    0.1570    3.2850 c3        1 PEM     -0.089600
     22 C19        -3.6380   -0.0790    1.5940 c         1 PEM      0.903600
     23 O3         -2.9930   -1.0810    1.1720 o         1 PEM     -0.836300
     24 O4         -3.0880    1.0280    1.8610 o         1 PEM     -0.836300
     25 H21         1.8970    2.2080    0.9810 hc        1 PEM      0.102700
     26 H31         2.5070    2.8560    3.2210 hc        1 PEM      0.103700
     27 H51         1.8060    1.4160    5.2980 ha        1 PEM      0.145000
     28 HC6        -1.8450    2.4130    3.0700 ha        1 PEM      0.223000
     29 HN1        -1.1400    0.5970    1.4500 hn        1 PEM      0.351000
     30 HC81       -0.6440   -0.9580    1.0090 hn        1 PEM      0.351000
     31 HC82       -7.1400    1.5600   -6.3470 ha        1 PEM      0.101500
     32 HC91       -8.0500    2.0180   -4.8050 ha        1 PEM      0.101500
     33 HC92       -5.3300    0.5240   -5.0520 ha        1 PEM      0.110000
     34 H11        -7.8160    2.2200   -2.7040 ha        1 PEM      0.118500
     35 H12        -7.6460    2.0450   -0.2280 ha        1 PEM      0.163500
     36 H14        -4.1980   -0.5610   -0.6500 ha        1 PEM      0.163500
     37 H15        -4.3860   -0.3850   -3.1120 ha        1 PEM      0.118500
     38 H171       -5.5390   -1.8870    0.4780 hc        1 PEM      0.038200
     39 H172       -5.0280   -2.3570    2.1460 hc        1 PEM      0.038200
     40 H173       -6.7230   -1.7490    1.8490 hc        1 PEM      0.038200
     41 H181       -4.9540   -0.5750    3.9590 hc        1 PEM      0.038200
     42 H182       -6.5560    0.1500    3.4800 hc        1 PEM      0.038200
     43 H183       -5.0530    1.1790    3.4820 hc        1 PEM      0.038200
     44 O2         -5.9510    0.7290    1.0860 os        1 PEM     -0.326900
@<TRIPOS>BOND
     1    1    2 1   
     2    1    6 1   
     3    1    8 1   
     4    1   25 1   
     5    2    3 1   
     6    2    6 1   
     7    2   26 1   
     8    3    4 2   
     9    3   27 1   
    10    4    5 1   
    11    4    7 1   
    12    5    6 2   
    13    5   28 1   
    14    8    9 2   
    15    8   10 1   
    16   10   29 1   
    17   10   30 1   
    18   11   12 2   
    19   11   31 1   
    20   11   32 1   
    21   12   16 1   
    22   12   33 1   
    23   13   14 ar  
    24   13   18 ar  
    25   13   44 1   
    26   14   15 ar  
    27   14   35 1   
    28   15   16 ar  
    29   15   34 1   
    30   16   17 ar  
    31   17   18 ar  
    32   17   37 1   
    33   18   36 1   
    34   19   20 1   
    35   19   21 1   
    36   19   22 1   
    37   19   44 1   
    38   20   38 1   
    39   20   39 1   
    40   20   40 1   
    41   21   41 1   
    42   21   42 1   
    43   21   43 1   
    44   22   23 1   
    45   22   24 1   
@<TRIPOS>SUBSTRUCTURE
     1 PEM         1 TEMP              0 ****  ****    0 ROOT
