@<TRIPOS>MOLECULE
PEM
   45    44     1     0     0
SMALL
bcc


@<TRIPOS>ATOM
      1 C1          0.1940    0.6890   -0.1230 c3        1 PEM      0.024000
      2 C2          1.0040   -0.5150    0.2420 c2        1 PEM     -0.079000
      3 C3          1.0150   -1.0840    1.4130 c1        1 PEM     -0.164000
      4 C4          1.0600   -1.6590    2.5780 c2        1 PEM     -0.088000
      5 C5         -1.4560    1.5180    1.7520 c1        1 PEM     -0.168000
      6 C6         -0.7100    1.1290    0.9010 c1        1 PEM     -0.193000
      7 CL          0.0430   -2.9460    3.0120 cl        1 PEM     -0.020000
      8 C7         -0.5360    0.4000   -1.4480 c2        1 PEM      0.311000
      9 O1         -0.0460    0.7900   -2.5250 o         1 PEM     -0.364000
     10 N1         -1.6920   -0.3460   -1.3910 n         1 PEM     -0.366000
     11 C8         -2.4750   -0.6220   -2.5620 c3        1 PEM     -0.038000
     12 C9         -3.8950   -0.1660   -2.5620 c2        1 PEM     -0.011000
     13 C10        -6.0900    2.1460    0.4520 c3        1 PEM      0.289000
     14 C11        -6.7210    1.5360   -0.8150 c3        1 PEM     -0.177000
     15 C12        -5.9200    0.7760   -1.7390 c1        1 PEM     -0.086000
     16 C13        -4.5540    0.4430   -1.5540 c2        1 PEM     -0.235000
     17 C14        -4.3650    4.0720   -0.1110 c1        1 PEM     -0.141000
     18 C15        -5.1370    3.1990    0.1560 c1        1 PEM     -0.211000
     19 C16        -5.9300    1.1870    2.6200 c3        1 PEM      0.055000
     20 C17        -4.7950    1.6740    3.5010 c3        1 PEM     -0.217000
     21 C18        -6.4210   -0.1890    3.0330 c3        1 PEM     -0.217000
     22 C19        -7.0650    2.1970    2.5590 c2        1 PEM      0.288000
     23 O3         -7.8690    2.6230    3.3730 o         1 PEM     -0.264000
     24 O4         -7.1610    2.6770    1.2690 os        1 PEM     -0.262000
     25 H21         0.9230    1.5320   -0.3480 hc        1 PEM      0.155000
     26 H31         1.6420   -0.8960   -0.5780 ha        1 PEM      0.161000
     27 H51         1.7550   -1.3690    3.3790 h4        1 PEM      0.169000
     28 HC6        -2.1280    1.8620    2.4990 ha        1 PEM      0.229000
     29 HN1        -3.3190   -0.2030    1.4960 ha        1 PEM      0.002000
     30 HC81       -2.1090   -0.5250   -0.5050 hn        1 PEM      0.241000
     31 HC82       -1.9580   -0.1660   -3.4630 h1        1 PEM      0.127000
     32 HC91       -2.4930   -1.7460   -2.7150 h1        1 PEM      0.127000
     33 HC92       -4.4210   -0.3760   -3.5140 ha        1 PEM      0.153000
     34 H11        -7.1970    2.3830   -1.3910 hc        1 PEM      0.156500
     35 H12        -7.5620    0.8540   -0.4890 hc        1 PEM      0.156500
     36 H14        -4.0580    0.6640   -0.5870 ha        1 PEM      0.118000
     37 H15        -3.6790    4.8450   -0.3550 ha        1 PEM      0.229000
     38 H171       -4.3940    2.6440    3.1200 hc        1 PEM      0.098333
     39 H172       -5.1650    1.8110    4.5450 hc        1 PEM      0.098333
     40 H173       -3.9710    0.9190    3.4940 hc        1 PEM      0.098333
     41 H181       -5.5760   -0.9170    2.9750 hc        1 PEM      0.098333
     42 H182       -7.2360   -0.5320    2.3530 hc        1 PEM      0.098333
     43 H183       -6.8060   -0.1440    4.0800 hc        1 PEM      0.098333
     44 H121       -3.8030   -0.6710    1.4090 ha        1 PEM      0.002000
     45 O2         -5.4840    1.1100    1.2490 os        1 PEM     -0.284000
@<TRIPOS>BOND
     1    1    2 1   
     2    1    6 1   
     3    1    8 1   
     4    1   25 1   
     5    2    3 1   
     6    2   26 1   
     7    3    4 1   
     8    4    7 1   
     9    4   27 1   
    10    5    6 1   
    11    5   28 1   
    12    8    9 1   
    13    8   10 1   
    14   10   11 1   
    15   10   30 1   
    16   11   12 1   
    17   11   31 1   
    18   11   32 1   
    19   12   16 1   
    20   12   33 1   
    21   13   14 1   
    22   13   18 1   
    23   13   24 1   
    24   13   45 1   
    25   14   15 1   
    26   14   34 1   
    27   14   35 1   
    28   15   16 1   
    29   16   36 1   
    30   17   18 1   
    31   17   37 1   
    32   19   20 1   
    33   19   21 1   
    34   19   22 1   
    35   19   45 1   
    36   20   38 1   
    37   20   39 1   
    38   20   40 1   
    39   21   41 1   
    40   21   42 1   
    41   21   43 1   
    42   22   23 1   
    43   22   24 1   
    44   29   44 1   
@<TRIPOS>SUBSTRUCTURE
     1 PEM         1 TEMP              0 ****  ****    0 ROOT
