@<TRIPOS>MOLECULE
PEO
    4     3     1     0     0
SMALL
bcc


@<TRIPOS>ATOM
      1 O1         -0.1160   -0.0280    0.6720 oh        1 PEO     -0.412000
      2 O2         -0.0950    0.3690   -0.5660 oh        1 PEO     -0.412000
      3 HO1         0.8210   -0.0430    0.9670 ho        1 PEO      0.412000
      4 HO2        -0.6100   -0.2970   -1.0730 ho        1 PEO      0.412000
@<TRIPOS>BOND
     1    1    2 1   
     2    1    3 1   
     3    2    4 1   
@<TRIPOS>SUBSTRUCTURE
     1 PEO         1 TEMP              0 ****  ****    0 ROOT
