@<TRIPOS>MOLECULE
PEP
   12    11     1     0     0
SMALL
bcc


@<TRIPOS>ATOM
      1 C1         -0.1710   -0.1140    0.4000 c         1 PEP      0.891800
      2 O1          0.6220   -1.0990    0.5480 o         1 PEP     -0.908300
      3 O2'        -0.6100    0.5000    1.4280 o         1 PEP     -0.908300
      4 C2         -0.6740    0.2690   -1.0000 ce        1 PEP      0.260900
      5 C3         -1.8020   -0.3690   -1.4190 c2        1 PEP     -0.546000
      6 O2          0.0450    1.1710   -1.6330 os        1 PEP     -0.472500
      7 P           0.0110    2.0090   -3.2050 p5        1 PEP      1.353900
      8 O1P         1.2330    2.8760   -3.0670 o         1 PEP     -0.934167
      9 O2P         0.1270    0.9180   -4.2320 o         1 PEP     -0.934167
     10 O3P        -1.2920    2.7590   -3.2200 o         1 PEP     -0.934167
     11 H31        -2.2880   -1.1010   -0.7700 ha        1 PEP      0.065500
     12 H32        -2.2740   -0.2010   -2.3870 ha        1 PEP      0.065500
@<TRIPOS>BOND
     1    1    2 1   
     2    1    3 1   
     3    1    4 1   
     4    4    5 2   
     5    4    6 1   
     6    5   11 1   
     7    5   12 1   
     8    6    7 1   
     9    7    8 1   
    10    7    9 1   
    11    7   10 1   
@<TRIPOS>SUBSTRUCTURE
     1 PEP         1 TEMP              0 ****  ****    0 ROOT
