@<TRIPOS>MOLECULE
PEP
   12     9     1     0     0
SMALL
bcc


@<TRIPOS>ATOM
      1 C1          0.4650   -0.6490    1.5190 c1        1 PEP      0.342000
      2 O1          1.7240   -0.6490    1.5190 o         1 PEP     -0.643000
      3 O2'        -0.1640   -0.6490    2.6100 os        1 PEP     -0.643000
      4 C2         -0.2910   -0.6490    0.2090 c2        1 PEP      0.236000
      5 C3         -0.2940   -1.7500   -0.5670 c1        1 PEP     -0.546000
      6 O2         -0.9910    0.5000   -0.1980 os        1 PEP     -0.662000
      7 P          -0.1630    1.7390   -0.7230 p5        1 PEP      1.587500
      8 O1P         0.1210    2.6780    0.4250 o         1 PEP     -0.934167
      9 O2P        -0.9590    2.4650   -1.7810 o         1 PEP     -0.934167
     10 O3P         1.1410    1.2600   -1.3150 o         1 PEP     -0.934167
     11 H31         0.1920   -2.5480   -0.2840 DU        1 PEP      0.046000
     12 H32        -0.7820   -1.7500   -1.4130 ha        1 PEP      0.085000
@<TRIPOS>BOND
     1    1    2 1   
     2    1    4 1   
     3    4    5 1   
     4    4    6 1   
     5    5   12 1   
     6    6    7 1   
     7    7    8 1   
     8    7    9 1   
     9    7   10 1   
@<TRIPOS>SUBSTRUCTURE
     1 PEP         1 TEMP              0 ****  ****    0 ROOT
