@<TRIPOS>MOLECULE
PEP
   12    11     1     0     0
SMALL
bcc


@<TRIPOS>ATOM
      1 C1         -0.1870   -0.1520    0.3880 c         1 PEP      0.891800
      2 O1          0.6250   -1.1250    0.5250 o         1 PEP     -0.908300
      3 O2'        -0.6530    0.4270    1.4230 o         1 PEP     -0.908300
      4 C2         -0.6760    0.2550   -1.0100 ce        1 PEP      0.260900
      5 C3         -1.7840   -0.3960   -1.4630 c2        1 PEP     -0.546000
      6 O2          0.0340    1.1870   -1.6100 os        1 PEP     -0.472500
      7 P           0.0090    2.0600   -3.1620 p5        1 PEP      1.353900
      8 O1P         1.2010    2.9600   -2.9770 o         1 PEP     -0.934167
      9 O2P         0.1820    0.9960   -4.2110 o         1 PEP     -0.934167
     10 O3P        -1.3160    2.7710   -3.1910 o         1 PEP     -0.934167
     11 H31        -2.2640   -1.1530   -0.8390 ha        1 PEP      0.065500
     12 H32        -2.2440   -0.2120   -2.4330 ha        1 PEP      0.065500
@<TRIPOS>BOND
     1    1    2 1   
     2    1    3 1   
     3    1    4 1   
     4    4    5 2   
     5    4    6 1   
     6    5   11 1   
     7    5   12 1   
     8    6    7 1   
     9    7    8 1   
    10    7    9 1   
    11    7   10 1   
@<TRIPOS>SUBSTRUCTURE
     1 PEP         1 TEMP              0 ****  ****    0 ROOT
