@<TRIPOS>MOLECULE
PEP
   12    11     1     0     0
SMALL
bcc


@<TRIPOS>ATOM
      1 C1          0.2360   -0.0160    2.3810 c         1 PEP      0.891800
      2 O1          0.9100   -0.9910    2.8480 o         1 PEP     -0.908300
      3 O2'         0.0740    1.0320    3.0870 o         1 PEP     -0.908300
      4 C2         -0.4610   -0.1430    1.0180 ce        1 PEP      0.260900
      5 C3         -1.7190   -0.6660    1.0420 c2        1 PEP     -0.546000
      6 O2          0.2390    0.2690   -0.0170 os        1 PEP     -0.472500
      7 P           0.0270    0.3900   -1.7820 p5        1 PEP      1.353900
      8 O1P         1.3540    0.9840   -2.1670 o         1 PEP     -0.934167
      9 O2P        -0.1870   -1.0240   -2.2470 o         1 PEP     -0.934167
     10 O3P        -1.1510    1.3050   -1.9720 o         1 PEP     -0.934167
     11 H31        -2.3340   -0.8150    0.1550 ha        1 PEP      0.065500
     12 H32        -2.1680   -0.9640    1.9920 ha        1 PEP      0.065500
@<TRIPOS>BOND
     1    1    2 1   
     2    1    3 1   
     3    1    4 1   
     4    4    5 2   
     5    4    6 1   
     6    5   11 1   
     7    5   12 1   
     8    6    7 1   
     9    7    8 1   
    10    7    9 1   
    11    7   10 1   
@<TRIPOS>SUBSTRUCTURE
     1 PEP         1 TEMP              0 ****  ****    0 ROOT
