@<TRIPOS>MOLECULE
PEQ
   14    13     1     0     0
SMALL
bcc


@<TRIPOS>ATOM
      1 C1         -0.1870    0.0500    0.1910 c         1 PEQ      0.894600
      2 O1         -0.7110    1.0540    0.7760 o         1 PEQ     -0.922800
      3 O2'        -0.9130   -0.9770   -0.0400 o         1 PEQ     -0.922800
      4 C2          1.3330   -0.0290   -0.1210 c3        1 PEQ      0.152100
      5 C3          2.0220   -0.0250    1.2560 c3        1 PEQ     -0.113100
      6 O2          1.7940    0.9880   -0.9340 os        1 PEQ     -0.568200
      7 P           3.1110    0.6460   -1.9880 p5        1 PEQ      1.327900
      8 O1P         4.2630    0.3800   -1.0410 o         1 PEQ     -0.955167
      9 O2P         2.7100   -0.5580   -2.8080 o         1 PEQ     -0.955167
     10 O3P         3.2420    1.9290   -2.7790 o         1 PEQ     -0.955167
     11 H21         1.5380   -1.0210   -0.6230 h1        1 PEQ      0.014700
     12 H31         1.6460   -0.8770    1.8720 hc        1 PEQ      0.000700
     13 H32         1.7840    0.9290    1.7840 hc        1 PEQ      0.000700
     14 H33         3.1280   -0.1110    1.1410 hc        1 PEQ      0.000700
@<TRIPOS>BOND
     1    1    2 1   
     2    1    3 1   
     3    1    4 1   
     4    4    5 1   
     5    4    6 1   
     6    4   11 1   
     7    5   12 1   
     8    5   13 1   
     9    5   14 1   
    10    6    7 1   
    11    7    8 1   
    12    7    9 1   
    13    7   10 1   
@<TRIPOS>SUBSTRUCTURE
     1 PEQ         1 TEMP              0 ****  ****    0 ROOT
