@<TRIPOS>MOLECULE
PEQ
   14    13     1     0     0
SMALL
bcc


@<TRIPOS>ATOM
      1 C1         -2.2890   -0.3500   -0.1730 c         1 PEQ      0.894600
      2 O1         -2.8040   -0.4280   -1.3360 o         1 PEQ     -0.922800
      3 O2'        -2.9450   -0.8090    0.8240 o         1 PEQ     -0.922800
      4 C2         -0.9610    0.4100    0.0970 c3        1 PEQ      0.152100
      5 C3         -1.2660    1.8790   -0.2520 c3        1 PEQ     -0.113100
      6 O2          0.1200   -0.0760   -0.6110 os        1 PEQ     -0.568200
      7 P           1.6790    0.0470    0.1090 p5        1 PEQ      1.327900
      8 O1P         1.9220    1.5410    0.1730 o         1 PEQ     -0.955167
      9 O2P         1.5850   -0.6110    1.4650 o         1 PEQ     -0.955167
     10 O3P         2.5580   -0.6820   -0.8830 o         1 PEQ     -0.955167
     11 H21        -0.7360    0.3430    1.2030 h1        1 PEQ      0.014700
     12 H31        -1.5410    1.9510   -1.3310 hc        1 PEQ      0.000700
     13 H32        -2.1260    2.2450    0.3610 hc        1 PEQ      0.000700
     14 H33        -0.3740    2.5210   -0.0590 hc        1 PEQ      0.000700
@<TRIPOS>BOND
     1    1    2 1   
     2    1    3 1   
     3    1    4 1   
     4    4    5 1   
     5    4    6 1   
     6    4   11 1   
     7    5   12 1   
     8    5   13 1   
     9    5   14 1   
    10    6    7 1   
    11    7    8 1   
    12    7    9 1   
    13    7   10 1   
@<TRIPOS>SUBSTRUCTURE
     1 PEQ         1 TEMP              0 ****  ****    0 ROOT
