@<TRIPOS>MOLECULE
PEQ
   14    13     1     0     0
SMALL
bcc


@<TRIPOS>ATOM
      1 C1         -0.1970    0.0690    0.1500 c         1 PEQ      0.894600
      2 O1         -0.7390    1.1070    0.6490 o         1 PEQ     -0.922800
      3 O2'        -0.9120   -0.9770   -0.0260 o         1 PEQ     -0.922800
      4 C2          1.3310   -0.0230   -0.1190 c3        1 PEQ      0.152100
      5 C3          1.9860    0.0810    1.2720 c3        1 PEQ     -0.113100
      6 O2          1.8080    0.9380   -0.9880 os        1 PEQ     -0.568200
      7 P           3.1520    0.5310   -1.9840 p5        1 PEQ      1.327900
      8 O1P         4.2810    0.3350   -0.9920 o         1 PEQ     -0.955167
      9 O2P         2.7760   -0.7270   -2.7300 o         1 PEQ     -0.955167
     10 O3P         3.3000    1.7580   -2.8560 o         1 PEQ     -0.955167
     11 H21         1.5530   -1.0470   -0.5450 h1        1 PEQ      0.014700
     12 H31         1.5970   -0.7290    1.9370 hc        1 PEQ      0.000700
     13 H32         3.0940   -0.0080    1.1900 hc        1 PEQ      0.000700
     14 H33         1.7300    1.0680    1.7250 hc        1 PEQ      0.000700
@<TRIPOS>BOND
     1    1    2 1   
     2    1    3 1   
     3    1    4 1   
     4    4    5 1   
     5    4    6 1   
     6    4   11 1   
     7    5   12 1   
     8    5   13 1   
     9    5   14 1   
    10    6    7 1   
    11    7    8 1   
    12    7    9 1   
    13    7   10 1   
@<TRIPOS>SUBSTRUCTURE
     1 PEQ         1 TEMP              0 ****  ****    0 ROOT
