@<TRIPOS>MOLECULE
PET
   49    50     1     0     0
SMALL
bcc


@<TRIPOS>ATOM
      1 C1         -0.2320    0.1740    0.8250 ca        1 PET      0.196100
      2 C2          0.5250    1.3700    0.8760 ca        1 PET     -0.179000
      3 C3          1.3170    1.6260    1.9810 ca        1 PET     -0.050500
      4 C4          1.3690    0.7070    3.0430 ca        1 PET     -0.316900
      5 C5          0.6260   -0.4780    2.9860 ca        1 PET     -0.050500
      6 C6         -0.1770   -0.7490    1.8820 ca        1 PET     -0.179000
      7 C7          2.2500    0.9550    4.1970 ce        1 PET      0.599800
      8 CA         -1.7890   -1.1650   -0.4040 c3        1 PET      0.119400
      9 CB         -2.5640   -1.0190   -1.7100 c3        1 PET      0.125400
     10 C1'        -3.0080   -4.6410   -5.9020 ca        1 PET      0.196100
     11 C2'        -4.2230   -5.3310   -6.1260 ca        1 PET     -0.179000
     12 C3'        -4.2300   -6.4540   -6.9360 ca        1 PET     -0.050500
     13 C4'        -3.0380   -6.9040   -7.5290 ca        1 PET     -0.316900
     14 C5'        -1.8360   -6.2240   -7.2990 ca        1 PET     -0.050500
     15 C6'        -1.8150   -5.0940   -6.4890 ca        1 PET     -0.179000
     16 C7'        -3.0350   -8.1270   -8.3510 ce        1 PET      0.599800
     17 CA'        -1.9120   -2.7940   -4.8460 c3        1 PET      0.119400
     18 CB'        -2.3490   -1.6050   -3.9960 c3        1 PET      0.125400
     19 N1          3.3020    0.3640    4.6130 n2        1 PET     -0.711100
     20 N2          1.7780    2.1330    5.0150 n4        1 PET     -0.825600
     21 N1'        -2.5080   -9.2750   -8.1730 n2        1 PET     -0.711100
     22 N2'        -3.8050   -7.9370   -9.6360 n4        1 PET     -0.825600
     23 O1         -0.9850    0.0260   -0.3060 os        1 PET     -0.312900
     24 O1'        -3.1160   -3.5440   -5.0950 os        1 PET     -0.312900
     25 O2         -1.9380   -1.8830   -2.6580 os        1 PET     -0.430600
     26 H2          0.4760    2.0750    0.0310 ha        1 PET      0.172500
     27 H3          1.9250    2.5450    2.0070 ha        1 PET      0.147000
     28 H5          0.6720   -1.2060    3.8120 ha        1 PET      0.147000
     29 H6         -0.7530   -1.6850    1.8470 ha        1 PET      0.172500
     30 HA1        -2.4930   -1.2090    0.4670 h1        1 PET      0.068200
     31 HA2        -1.1210   -2.0660   -0.4240 h1        1 PET      0.068200
     32 HB1        -2.5400    0.0440   -2.0690 h1        1 PET      0.062200
     33 HB2        -3.6260   -1.3500   -1.5640 h1        1 PET      0.062200
     34 H2'        -5.1460   -4.9660   -5.6460 ha        1 PET      0.172500
     35 H3'        -5.1730   -7.0030   -7.0880 ha        1 PET      0.147000
     36 H5'        -0.8980   -6.5810   -7.7550 ha        1 PET      0.147000
     37 H6'        -0.8630   -4.5710   -6.3130 ha        1 PET      0.172500
     38 HA'1       -1.1770   -3.4390   -4.2980 h1        1 PET      0.068200
     39 HA'2       -1.4870   -2.4430   -5.8220 h1        1 PET      0.068200
     40 HB'1       -1.8330   -0.6720   -4.3470 h1        1 PET      0.062200
     41 HB'2       -3.4620   -1.4680   -4.0470 h1        1 PET      0.062200
     42 HN1         3.6520   -0.4140    4.0910 hn        1 PET      0.489400
     43 HN21        1.6630    2.9330    4.3850 hn        1 PET      0.469800
     44 HN22        0.8700    1.8950    5.4260 hn        1 PET      0.469800
     45 HN1'       -2.0000   -9.4420   -7.3280 hn        1 PET      0.489400
     46 HN'1       -3.8910   -8.8110  -10.1700 hn        1 PET      0.469800
     47 HN'2       -3.3140   -7.2390  -10.2040 hn        1 PET      0.469800
     48 H23         2.4390    2.3760    5.7650 hn        1 PET      0.469800
     49 H2'3       -4.7370   -7.5830   -9.4000 hn        1 PET      0.469800
@<TRIPOS>BOND
     1    1    2 ar  
     2    1    6 ar  
     3    1   23 1   
     4    2    3 ar  
     5    2   26 1   
     6    3    4 ar  
     7    3   27 1   
     8    4    5 ar  
     9    4    7 1   
    10    5    6 ar  
    11    5   28 1   
    12    6   29 1   
    13    7   19 2   
    14    7   20 1   
    15    8    9 1   
    16    8   23 1   
    17    8   30 1   
    18    8   31 1   
    19    9   25 1   
    20    9   32 1   
    21    9   33 1   
    22   10   11 ar  
    23   10   15 ar  
    24   10   24 1   
    25   11   12 ar  
    26   11   34 1   
    27   12   13 ar  
    28   12   35 1   
    29   13   14 ar  
    30   13   16 1   
    31   14   15 ar  
    32   14   36 1   
    33   15   37 1   
    34   16   21 2   
    35   16   22 1   
    36   17   18 1   
    37   17   24 1   
    38   17   38 1   
    39   17   39 1   
    40   18   25 1   
    41   18   40 1   
    42   18   41 1   
    43   19   42 1   
    44   20   43 1   
    45   20   44 1   
    46   20   48 1   
    47   21   45 1   
    48   22   46 1   
    49   22   47 1   
    50   22   49 1   
@<TRIPOS>SUBSTRUCTURE
     1 PET         1 TEMP              0 ****  ****    0 ROOT
