@<TRIPOS>MOLECULE
PET
   47    48     1     0     0
SMALL
bcc


@<TRIPOS>ATOM
      1 C1         -0.8210    0.1280    4.2610 ca        1 PET      0.140600
      2 C2         -0.9950    1.1840    5.1780 ca        1 PET     -0.184000
      3 C3         -0.2030    1.2320    6.3170 ca        1 PET     -0.071750
      4 C4          0.7570    0.2400    6.5540 ca        1 PET     -0.197400
      5 C5          0.9210   -0.8040    5.6440 ca        1 PET     -0.071750
      6 C6          0.1370   -0.8670    4.4920 ca        1 PET     -0.184000
      7 C7          1.6140    0.3270    7.7790 ce        1 PET      0.651800
      8 CA         -1.4670   -0.8550    2.1850 c3        1 PET      0.123900
      9 CB         -2.4380   -0.5290    1.0550 c3        1 PET      0.126400
     10 C1'        -0.8390   -0.1230   -4.2610 ca        1 PET      0.140600
     11 C2'        -0.9760   -1.2100   -5.1470 ca        1 PET     -0.184000
     12 C3'        -0.1790   -1.2650   -6.2830 ca        1 PET     -0.071750
     13 C4'         0.7480   -0.2480   -6.5470 ca        1 PET     -0.197400
     14 C5'         0.8820    0.8210   -5.6600 ca        1 PET     -0.071750
     15 C6'         0.0910    0.8920   -4.5130 ca        1 PET     -0.184000
     16 C7'         1.6020   -0.3220   -7.7740 ce        1 PET      0.651800
     17 CA'        -1.5000    0.8780   -2.1990 c3        1 PET      0.123900
     18 CB'        -2.4570    0.5440   -1.0580 c3        1 PET      0.126400
     19 N1          2.3660    1.3480    8.0710 n2        1 PET     -0.834600
     20 N2          1.4900   -0.7700    8.6530 nh        1 PET     -0.928800
     21 N1'         2.2620   -1.4170   -8.0030 n2        1 PET     -0.834600
     22 N2'         1.5270    0.8180   -8.6020 nh        1 PET     -0.928800
     23 O1         -1.6620    0.1690    3.1690 os        1 PET     -0.331400
     24 O1'        -1.6870   -0.1560   -3.1730 os        1 PET     -0.331400
     25 O2         -1.6540    0.0240   -0.0000 os        1 PET     -0.426600
     26 H2         -1.7550    1.9530    4.9780 ha        1 PET      0.146500
     27 H3         -0.3360    2.0520    7.0400 ha        1 PET      0.140250
     28 H5          1.6780   -1.5820    5.8210 ha        1 PET      0.140250
     29 H6          0.2820   -1.6930    3.7820 ha        1 PET      0.146500
     30 HA1        -0.4070   -0.8400    1.8190 h1        1 PET      0.057950
     31 HA2        -1.7110   -1.8510    2.6370 h1        1 PET      0.057950
     32 HB1        -2.9380   -1.4650    0.6910 h1        1 PET      0.048950
     33 HB2        -3.2130    0.2090    1.3930 h1        1 PET      0.048950
     34 H2'        -1.7070   -1.9990   -4.9260 ha        1 PET      0.146500
     35 H3'        -0.2700   -2.1170   -6.9760 ha        1 PET      0.140250
     36 H5'         1.6230    1.6130   -5.8470 ha        1 PET      0.140250
     37 H6'         0.2110    1.7390   -3.8240 ha        1 PET      0.146500
     38 HA'1       -1.7650    1.8660   -2.6560 h1        1 PET      0.057950
     39 HA'2       -0.4380    0.8840   -1.8410 h1        1 PET      0.057950
     40 HB'1       -3.2170   -0.2150   -1.3820 h1        1 PET      0.048950
     41 HB'2       -2.9760    1.4730   -0.7020 h1        1 PET      0.048950
     42 HN1         2.2930    2.1030    7.4240 hn        1 PET      0.387400
     43 HN21        2.1770   -0.8330    9.3730 hn        1 PET      0.399300
     44 HN22        1.3090   -1.6320    8.1910 hn        1 PET      0.399300
     45 HN1'        2.8200   -1.4350   -8.8300 hn        1 PET      0.387400
     46 HN'1        2.2840    0.9770   -9.2240 hn        1 PET      0.399300
     47 HN'2        1.1560    1.6370   -8.1830 hn        1 PET      0.399300
@<TRIPOS>BOND
     1    1    2 ar  
     2    1    6 ar  
     3    1   23 1   
     4    2    3 ar  
     5    2   26 1   
     6    3    4 ar  
     7    3   27 1   
     8    4    5 ar  
     9    4    7 1   
    10    5    6 ar  
    11    5   28 1   
    12    6   29 1   
    13    7   19 2   
    14    7   20 1   
    15    8    9 1   
    16    8   23 1   
    17    8   30 1   
    18    8   31 1   
    19    9   25 1   
    20    9   32 1   
    21    9   33 1   
    22   10   11 ar  
    23   10   15 ar  
    24   10   24 1   
    25   11   12 ar  
    26   11   34 1   
    27   12   13 ar  
    28   12   35 1   
    29   13   14 ar  
    30   13   16 1   
    31   14   15 ar  
    32   14   36 1   
    33   15   37 1   
    34   16   21 2   
    35   16   22 1   
    36   17   18 1   
    37   17   24 1   
    38   17   38 1   
    39   17   39 1   
    40   18   25 1   
    41   18   40 1   
    42   18   41 1   
    43   19   42 1   
    44   20   43 1   
    45   20   44 1   
    46   21   45 1   
    47   22   46 1   
    48   22   47 1   
@<TRIPOS>SUBSTRUCTURE
     1 PET         1 TEMP              0 ****  ****    0 ROOT
