@<TRIPOS>MOLECULE
PET
   49    50     1     0     0
SMALL
bcc


@<TRIPOS>ATOM
      1 C1         -0.2160    0.1820    0.8110 ca        1 PET      0.196100
      2 C2          0.5420    1.3770    0.8550 ca        1 PET     -0.179000
      3 C3          1.3430    1.6360    1.9540 ca        1 PET     -0.050500
      4 C4          1.4030    0.7180    3.0160 ca        1 PET     -0.316900
      5 C5          0.6590   -0.4670    2.9670 ca        1 PET     -0.050500
      6 C6         -0.1520   -0.7390    1.8700 ca        1 PET     -0.179000
      7 C7          2.2920    0.9690    4.1630 ce        1 PET      0.599800
      8 CA         -1.7810   -1.1610   -0.4040 c3        1 PET      0.119400
      9 CB         -2.5660   -1.0170   -1.7040 c3        1 PET      0.125400
     10 C1'        -3.0290   -4.6500   -5.8850 ca        1 PET      0.196100
     11 C2'        -4.2430   -5.3470   -6.0960 ca        1 PET     -0.179000
     12 C3'        -4.2510   -6.4710   -6.9030 ca        1 PET     -0.050500
     13 C4'        -3.0620   -6.9150   -7.5080 ca        1 PET     -0.316900
     14 C5'        -1.8620   -6.2290   -7.2900 ca        1 PET     -0.050500
     15 C6'        -1.8390   -5.0970   -6.4820 ca        1 PET     -0.179000
     16 C7'        -3.0600   -8.1400   -8.3270 ce        1 PET      0.599800
     17 CA'        -1.9340   -2.7940   -4.8430 c3        1 PET      0.119400
     18 CB'        -2.3700   -1.6070   -3.9900 c3        1 PET      0.125400
     19 N1          3.3470    0.3780    4.5720 n2        1 PET     -0.711100
     20 N2          1.8270    2.1480    4.9830 nz        1 PET     -0.825600
     21 N1'        -2.5240   -9.2840   -8.1520 n2        1 PET     -0.711100
     22 N2'        -3.8430   -7.9570   -9.6060 nz        1 PET     -0.825600
     23 O1         -0.9770    0.0310   -0.3130 os        1 PET     -0.311900
     24 O1'        -3.1370   -3.5520   -5.0790 os        1 PET     -0.311900
     25 O2         -1.9460   -1.8810   -2.6550 os        1 PET     -0.430600
     26 H2          0.4860    2.0810    0.0090 ha        1 PET      0.172500
     27 H3          1.9500    2.5550    1.9740 ha        1 PET      0.147000
     28 H5          0.7120   -1.1940    3.7940 ha        1 PET      0.147000
     29 H6         -0.7280   -1.6760    1.8410 ha        1 PET      0.172500
     30 HA1        -2.4780   -1.2030    0.4730 h1        1 PET      0.068200
     31 HA2        -1.1130   -2.0610   -0.4270 h1        1 PET      0.068200
     32 HB1        -2.5460    0.0460   -2.0640 h1        1 PET      0.062200
     33 HB2        -3.6270   -1.3490   -1.5500 h1        1 PET      0.062200
     34 H2'        -5.1630   -4.9870   -5.6080 ha        1 PET      0.172500
     35 H3'        -5.1920   -7.0260   -7.0460 ha        1 PET      0.147000
     36 H5'        -0.9260   -6.5810   -7.7540 ha        1 PET      0.147000
     37 H6'        -0.8880   -4.5680   -6.3160 ha        1 PET      0.172500
     38 HA'1       -1.1900   -3.4350   -4.3010 h1        1 PET      0.068200
     39 HA'2       -1.5200   -2.4430   -5.8230 h1        1 PET      0.068200
     40 HB'1       -1.8610   -0.6720   -4.3470 h1        1 PET      0.062200
     41 HB'2       -3.4840   -1.4750   -4.0320 h1        1 PET      0.062200
     42 HN1         3.6930   -0.4000    4.0490 hn        1 PET      0.489400
     43 HN21        1.7070    2.9480    4.3520 hn        1 PET      0.469800
     44 HN22        0.9210    1.9110    5.4010 hn        1 PET      0.469800
     45 HN1'       -2.0070   -9.4480   -7.3120 hn        1 PET      0.489400
     46 HN'1       -3.9300   -8.8330  -10.1370 hn        1 PET      0.469800
     47 HN'2       -3.3610   -7.2570  -10.1800 hn        1 PET      0.469800
     48 H23         2.4930    2.3920    5.7270 hn        1 PET      0.469800
     49 H2'3       -4.7750   -7.6080   -9.3610 hn        1 PET      0.469800
@<TRIPOS>BOND
     1    1    2 ar  
     2    1    6 ar  
     3    1   23 1   
     4    2    3 ar  
     5    2   26 1   
     6    3    4 ar  
     7    3   27 1   
     8    4    5 ar  
     9    4    7 1   
    10    5    6 ar  
    11    5   28 1   
    12    6   29 1   
    13    7   19 2   
    14    7   20 1   
    15    8    9 1   
    16    8   23 1   
    17    8   30 1   
    18    8   31 1   
    19    9   25 1   
    20    9   32 1   
    21    9   33 1   
    22   10   11 ar  
    23   10   15 ar  
    24   10   24 1   
    25   11   12 ar  
    26   11   34 1   
    27   12   13 ar  
    28   12   35 1   
    29   13   14 ar  
    30   13   16 1   
    31   14   15 ar  
    32   14   36 1   
    33   15   37 1   
    34   16   21 2   
    35   16   22 1   
    36   17   18 1   
    37   17   24 1   
    38   17   38 1   
    39   17   39 1   
    40   18   25 1   
    41   18   40 1   
    42   18   41 1   
    43   19   42 1   
    44   20   43 1   
    45   20   44 1   
    46   20   48 1   
    47   21   45 1   
    48   22   46 1   
    49   22   47 1   
    50   22   49 1   
@<TRIPOS>SUBSTRUCTURE
     1 PET         1 TEMP              0 ****  ****    0 ROOT
