@<TRIPOS>MOLECULE
PET
   49    50     1     0     0
SMALL
bcc


@<TRIPOS>ATOM
      1 C1         -0.2150    0.1880    0.8050 ca        1 PET      0.196100
      2 C2          0.5570    1.3740    0.8500 ca        1 PET     -0.179000
      3 C3          1.3500    1.6280    1.9550 ca        1 PET     -0.050500
      4 C4          1.3870    0.7170    3.0240 ca        1 PET     -0.316900
      5 C5          0.6290   -0.4590    2.9740 ca        1 PET     -0.050500
      6 C6         -0.1740   -0.7280    1.8700 ca        1 PET     -0.179000
      7 C7          2.2680    0.9630    4.1780 ce        1 PET      0.599800
      8 CA         -1.7860   -1.1420   -0.4170 c3        1 PET      0.119400
      9 CB         -2.5550   -0.9960   -1.7270 c3        1 PET      0.125400
     10 C1'        -3.0190   -4.6490   -5.8890 ca        1 PET      0.196100
     11 C2'        -4.2390   -5.3340   -6.1090 ca        1 PET     -0.179000
     12 C3'        -4.2520   -6.4630   -6.9090 ca        1 PET     -0.050500
     13 C4'        -3.0620   -6.9250   -7.4990 ca        1 PET     -0.316900
     14 C5'        -1.8570   -6.2500   -7.2740 ca        1 PET     -0.050500
     15 C6'        -1.8290   -5.1130   -6.4730 ca        1 PET     -0.179000
     16 C7'        -3.0660   -8.1540   -8.3110 ce        1 PET      0.599800
     17 CA'        -1.9130   -2.8000   -4.8480 c3        1 PET      0.119400
     18 CB'        -2.3440   -1.6020   -4.0070 c3        1 PET      0.125400
     19 N1          3.3110    0.3610    4.6010 n2        1 PET     -0.711100
     20 N2          1.8100    2.1530    4.9870 n4        1 PET     -0.825600
     21 N1'        -2.5450   -9.3030   -8.1230 n2        1 PET     -0.711100
     22 N2'        -3.8340   -7.9700   -9.5980 n4        1 PET     -0.825600
     23 O1         -0.9670    0.0400   -0.3260 os        1 PET     -0.311900
     24 O1'        -3.1220   -3.5450   -5.0910 os        1 PET     -0.311900
     25 O2         -1.9360   -1.8730   -2.6670 os        1 PET     -0.430600
     26 H2          0.5190    2.0730   -0.0010 ha        1 PET      0.172500
     27 H3          1.9690    2.5400    1.9760 ha        1 PET      0.147000
     28 H5          0.6640   -1.1820    3.8050 ha        1 PET      0.147000
     29 H6         -0.7620   -1.6570    1.8400 ha        1 PET      0.172500
     30 HA1        -2.4920   -1.1690    0.4520 h1        1 PET      0.068200
     31 HA2        -1.1290   -2.0500   -0.4290 h1        1 PET      0.068200
     32 HB1        -3.6210   -1.3130   -1.5810 h1        1 PET      0.062200
     33 HB2        -2.5180    0.0650   -2.0930 h1        1 PET      0.062200
     34 H2'        -5.1590   -4.9600   -5.6320 ha        1 PET      0.172500
     35 H3'        -5.1980   -7.0080   -7.0580 ha        1 PET      0.147000
     36 H5'        -0.9200   -6.6150   -7.7260 ha        1 PET      0.147000
     37 H6'        -0.8740   -4.5940   -6.3000 ha        1 PET      0.172500
     38 HA'1       -1.1820   -3.4460   -4.2950 h1        1 PET      0.068200
     39 HA'2       -1.4860   -2.4600   -5.8260 h1        1 PET      0.068200
     40 HB'1       -3.4560   -1.4580   -4.0610 h1        1 PET      0.062200
     41 HB'2       -1.8200   -0.6760   -4.3650 h1        1 PET      0.062200
     42 HN1         3.6530   -0.4250    4.0870 hn        1 PET      0.489400
     43 HN21        0.8970    1.9300    5.3970 hn        1 PET      0.469800
     44 HN22        1.7060    2.9500    4.3500 hn        1 PET      0.469800
     45 HN1'       -2.0380   -9.4670   -7.2770 hn        1 PET      0.489400
     46 HN'1       -3.3390   -7.2790  -10.1710 hn        1 PET      0.469800
     47 HN'2       -3.9250   -8.8480  -10.1250 hn        1 PET      0.469800
     48 H23         2.4710    2.3930    5.7360 hn        1 PET      0.469800
     49 H2'3       -4.7650   -7.6090   -9.3650 hn        1 PET      0.469800
@<TRIPOS>BOND
     1    1    2 ar  
     2    1    6 ar  
     3    1   23 1   
     4    2    3 ar  
     5    2   26 1   
     6    3    4 ar  
     7    3   27 1   
     8    4    5 ar  
     9    4    7 1   
    10    5    6 ar  
    11    5   28 1   
    12    6   29 1   
    13    7   19 2   
    14    7   20 1   
    15    8    9 1   
    16    8   23 1   
    17    8   30 1   
    18    8   31 1   
    19    9   25 1   
    20    9   32 1   
    21    9   33 1   
    22   10   11 ar  
    23   10   15 ar  
    24   10   24 1   
    25   11   12 ar  
    26   11   34 1   
    27   12   13 ar  
    28   12   35 1   
    29   13   14 ar  
    30   13   16 1   
    31   14   15 ar  
    32   14   36 1   
    33   15   37 1   
    34   16   21 2   
    35   16   22 1   
    36   17   18 1   
    37   17   24 1   
    38   17   38 1   
    39   17   39 1   
    40   18   25 1   
    41   18   40 1   
    42   18   41 1   
    43   19   42 1   
    44   20   43 1   
    45   20   44 1   
    46   20   48 1   
    47   21   45 1   
    48   22   46 1   
    49   22   47 1   
    50   22   49 1   
@<TRIPOS>SUBSTRUCTURE
     1 PET         1 TEMP              0 ****  ****    0 ROOT
