@<TRIPOS>MOLECULE
PEU
  195   194     1     0     0
SMALL
bcc


@<TRIPOS>ATOM
      1 CAA       -43.8800   -0.2350    0.7270 c3        1 PEU      0.117700
      2 OAB       -42.8150    0.3530    0.0010 os        1 PEU     -0.425600
      3 CAC       -41.7530   -0.5650   -0.2540 c3        1 PEU      0.123400
      4 CAD       -40.6270    0.2420   -0.8920 c3        1 PEU      0.127400
      5 OAE       -39.5720    0.2910    0.0670 os        1 PEU     -0.429600
      6 CAF       -38.5160    1.1610   -0.3370 c3        1 PEU      0.127400
      7 CAG       -37.3940    0.9810    0.6800 c3        1 PEU      0.127400
      8 OAH       -36.3640    0.2470    0.0220 os        1 PEU     -0.429600
      9 CAI       -35.3170   -0.1320    0.9130 c3        1 PEU      0.127400
     10 CAJ       -34.2150   -0.7410    0.0530 c3        1 PEU      0.127400
     11 OAK       -33.1520    0.2090    0.0240 os        1 PEU     -0.429600
     12 CAL       -32.1170   -0.1660   -0.8830 c3        1 PEU      0.127400
     13 CAM       -30.9810    0.8300   -0.6800 c3        1 PEU      0.127400
     14 OAN       -29.9430    0.1290    0.0020 os        1 PEU     -0.429600
     15 CAO       -28.8800    0.9920    0.4010 c3        1 PEU      0.127400
     16 CAP       -27.7760    0.0940    0.9500 c3        1 PEU      0.127400
     17 OAQ       -26.7320    0.0970   -0.0210 os        1 PEU     -0.429600
     18 CAR       -25.7000   -0.8350    0.2930 c3        1 PEU      0.127400
     19 CAS       -24.5790   -0.5980   -0.7150 c3        1 PEU      0.127400
     20 OAT       -23.5220    0.0410   -0.0020 os        1 PEU     -0.429600
     21 CAU       -22.4700    0.4680   -0.8650 c3        1 PEU      0.127400
     22 CAV       -21.3450    0.9650    0.0360 c3        1 PEU      0.127400
     23 OAW       -20.3120   -0.0160   -0.0280 os        1 PEU     -0.429600
     24 CAX       -19.2610    0.2450    0.9000 c3        1 PEU      0.127400
     25 CAY       -18.1570   -0.7630    0.6000 c3        1 PEU      0.127400
     26 OAZ       -17.1010   -0.0340   -0.0220 os        1 PEU     -0.429600
     27 CBA       -16.0650   -0.8890   -0.5020 c3        1 PEU      0.127400
     28 CBB       -14.9360    0.0210   -0.9740 c3        1 PEU      0.127400
     29 OBC       -13.8920   -0.0950   -0.0090 os        1 PEU     -0.429600
     30 CCG       -12.8350    0.8330   -0.2420 c3        1 PEU      0.127400
     31 CCF       -11.7240    0.4810    0.7410 c3        1 PEU      0.127400
     32 OCE       -10.6800   -0.1170   -0.0250 os        1 PEU     -0.429600
     33 CCD        -9.6400   -0.6420    0.7970 c3        1 PEU      0.127400
     34 CCC        -8.5220   -1.0790   -0.1440 c3        1 PEU      0.127400
     35 OCB        -7.4710   -0.1270    0.0060 os        1 PEU     -0.429600
     36 CCA        -6.4230   -0.3260   -0.9410 c3        1 PEU      0.127400
     37 CBZ        -5.3030    0.6340   -0.5550 c3        1 PEU      0.127400
     38 OBY        -4.2610   -0.1620    0.0040 os        1 PEU     -0.429600
     39 CBX        -3.2130    0.6310    0.5590 c3        1 PEU      0.127400
     40 CBW        -2.1000   -0.3340    0.9510 c3        1 PEU      0.127400
     41 OBV        -1.0490   -0.1470    0.0040 os        1 PEU     -0.429600
     42 CBU        -0.0050   -1.1050    0.1610 c3        1 PEU      0.127400
     43 CBT         1.1170   -0.6810   -0.7820 c3        1 PEU      0.127400
     44 OBS         2.1590   -0.1570    0.0390 os        1 PEU     -0.429600
     45 CBR         3.2080    0.4290   -0.7300 c3        1 PEU      0.127400
     46 CBQ         4.3200    0.7810    0.2530 c3        1 PEU      0.127400
     47 OBP         5.3720   -0.1540    0.0260 os        1 PEU     -0.429600
     48 CBO         6.4150   -0.0380    0.9910 c3        1 PEU      0.127400
     49 CBN         7.5400   -0.9580    0.5270 c3        1 PEU      0.127400
     50 OBM         8.5800   -0.1120    0.0410 os        1 PEU     -0.429600
     51 CBL         9.6320   -0.8510   -0.5760 c3        1 PEU      0.127400
     52 CBK        10.7420    0.1500   -0.8840 c3        1 PEU      0.127400
     53 OBJ        11.7910   -0.1110    0.0460 os        1 PEU     -0.429600
     54 CBI        12.8290    0.8650   -0.0240 c3        1 PEU      0.127400
     55 CBH        13.9520    0.3680    0.8800 c3        1 PEU      0.127400
     56 OBG        15.0020   -0.0690    0.0200 os        1 PEU     -0.429600
     57 CBF        16.0550   -0.7100    0.7360 c3        1 PEU      0.127400
     58 CBE        17.1740   -0.9600   -0.2700 c3        1 PEU      0.127400
     59 OBD        18.2110   -0.0300    0.0380 os        1 PEU     -0.429600
     60 CCH        19.2560   -0.0460   -0.9330 c3        1 PEU      0.127400
     61 CCI        20.3640    0.8510   -0.3910 c3        1 PEU      0.127400
     62 OCJ        21.4220   -0.0150    0.0160 os        1 PEU     -0.429600
     63 CCK        22.4630    0.6870    0.6940 c3        1 PEU      0.127400
     64 CCL        23.5930   -0.3150    0.9060 c3        1 PEU      0.127400
     65 OCM        24.6310    0.0470   -0.0020 os        1 PEU     -0.429600
     66 CCN        25.6880   -0.9100   -0.0230 c3        1 PEU      0.127400
     67 CCO        26.7940   -0.3150   -0.8890 c3        1 PEU      0.127400
     68 OCP        27.8410    0.0690   -0.0000 os        1 PEU     -0.429600
     69 CCQ        28.8750    0.7930   -0.6650 c3        1 PEU      0.127400
     70 CCR        29.9960    0.9800    0.3510 c3        1 PEU      0.127400
     71 OCS        31.0500    0.1040   -0.0430 os        1 PEU     -0.429600
     72 CCT        32.1020    0.0580    0.9190 c3        1 PEU      0.127400
     73 CCU        33.2250   -0.7630    0.2950 c3        1 PEU      0.127400
     74 OCV        34.2580    0.1580   -0.0510 os        1 PEU     -0.429600
     75 CCW        35.3030   -0.4590   -0.7990 c3        1 PEU      0.127400
     76 CCX        36.4050    0.5860   -0.9460 c3        1 PEU      0.127400
     77 OCY        37.4600    0.1880   -0.0720 os        1 PEU     -0.428600
     78 CCZ        38.4880    1.1720    0.0140 c3        1 PEU      0.127400
     79 CDA        39.6140    0.5490    0.8330 c3        1 PEU      0.128400
     80 ODB        40.6650    0.2470   -0.0840 os        1 PEU     -0.438600
     81 CDC        41.7160   -0.5010    0.5210 c3        1 PEU      0.087400
     82 CDD        42.7780   -0.6900   -0.5570 c3        1 PEU      0.131400
     83 ODE        43.3720    0.5370   -0.9240 oh        1 PEU     -0.600800
     84 HAA1      -44.6290    0.5880    0.8420 h1        1 PEU      0.032700
     85 HAA2      -44.3220   -1.0890    0.1570 h1        1 PEU      0.032700
     86 HAA3      -43.5290   -0.5880    1.7280 h1        1 PEU      0.032700
     87 HAC1      -41.4110   -1.0380    0.7040 h1        1 PEU      0.042700
     88 HAC2      -42.1150   -1.3590   -0.9580 h1        1 PEU      0.042700
     89 HAD1      -40.2560   -0.2650   -1.8210 h1        1 PEU      0.043200
     90 HAD2      -40.9740    1.2800   -1.1420 h1        1 PEU      0.043200
     91 HAF1      -38.1650    0.8930   -1.3690 h1        1 PEU      0.043700
     92 HAF2      -38.8870    2.2200   -0.3280 h1        1 PEU      0.043700
     93 HAG1      -36.9900    1.9780    0.9970 h1        1 PEU      0.043700
     94 HAG2      -37.7590    0.4180    1.5800 h1        1 PEU      0.043700
     95 HAI1      -34.9380    0.7650    1.4710 h1        1 PEU      0.043700
     96 HAI2      -35.7100   -0.8900    1.6410 h1        1 PEU      0.043700
     97 HAJ1      -33.8430   -1.6950    0.5110 h1        1 PEU      0.043700
     98 HAJ2      -34.5860   -0.9420   -0.9870 h1        1 PEU      0.043700
     99 HAL1      -31.7730   -1.2130   -0.6670 h1        1 PEU      0.043200
    100 HAL2      -32.5080   -0.1060   -1.9330 h1        1 PEU      0.043200
    101 HAM1      -30.5930    1.1890   -1.6700 h1        1 PEU      0.043700
    102 HAM2      -31.3240    1.7070   -0.0690 h1        1 PEU      0.043700
    103 HAO1      -28.5120    1.5860   -0.4770 h1        1 PEU      0.043700
    104 HAO2      -29.2510    1.6880    1.1990 h1        1 PEU      0.043700
    105 HAP1      -27.3810    0.5040    1.9160 h1        1 PEU      0.043700
    106 HAP2      -28.1550   -0.9510    1.1100 h1        1 PEU      0.043700
    107 HAR1      -25.3340   -0.6710    1.3410 h1        1 PEU      0.043700
    108 HAR2      -26.1020   -1.8780    0.1920 h1        1 PEU      0.043700
    109 HAS1      -24.2090   -1.5740   -1.1250 h1        1 PEU      0.043700
    110 HAS2      -24.9320    0.0560   -1.5560 h1        1 PEU      0.043700
    111 HAU1      -22.1220   -0.3860   -1.5040 h1        1 PEU      0.043700
    112 HAU2      -22.8450    1.3000   -1.5180 h1        1 PEU      0.043700
    113 HAV1      -20.9460    1.9440   -0.3390 h1        1 PEU      0.043700
    114 HAV2      -21.7040    1.0830    1.0930 h1        1 PEU      0.043700
    115 HAX1      -18.8860    1.2960    0.7760 h1        1 PEU      0.043700
    116 HAX2      -19.6480    0.1030    1.9440 h1        1 PEU      0.043700
    117 HAY1      -17.7770   -1.2220    1.5510 h1        1 PEU      0.043700
    118 HAY2      -18.5300   -1.5700   -0.0860 h1        1 PEU      0.043700
    119 HBA1      -15.7120   -1.5700    0.3170 h1        1 PEU      0.043700
    120 HBA2      -16.4580   -1.5000   -1.3580 h1        1 PEU      0.043700
    121 HBB1      -14.5530   -0.3160   -1.9720 h1        1 PEU      0.043700
    122 HBB2      -15.2850    1.0860   -1.0430 h1        1 PEU      0.043700
    123 HCG1      -12.4720    0.7500   -1.3010 h1        1 PEU      0.043700
    124 HCG2      -13.2100    1.8730   -0.0520 h1        1 PEU      0.043700
    125 HCF1      -11.3320    1.4070    1.2370 h1        1 PEU      0.043700
    126 HCF2      -12.0940   -0.2370    1.5200 h1        1 PEU      0.043700
    127 HCD1       -9.2750    0.1420    1.5120 h1        1 PEU      0.043700
    128 HCD2      -10.0340   -1.5220    1.3710 h1        1 PEU      0.043700
    129 HCC1       -8.1430   -2.0950    0.1440 h1        1 PEU      0.043700
    130 HCC2       -8.8810   -1.0970   -1.2070 h1        1 PEU      0.043700
    131 HCA1       -6.0660   -1.3890   -0.9060 h1        1 PEU      0.043700
    132 HCA2       -6.8050   -0.0890   -1.9680 h1        1 PEU      0.043700
    133 HBZ1       -4.9130    1.1660   -1.4630 h1        1 PEU      0.043700
    134 HBZ2       -5.6630    1.3860    0.1970 h1        1 PEU      0.043700
    135 HBX1       -2.8480    1.3750   -0.1970 h1        1 PEU      0.043700
    136 HBX2       -3.6000    1.1710    1.4630 h1        1 PEU      0.043700
    137 HBW1       -1.7170   -0.0940    1.9780 h1        1 PEU      0.043700
    138 HBW2       -2.4640   -1.3950    0.9230 h1        1 PEU      0.043700
    139 HBU1        0.3530   -1.1200    1.2240 h1        1 PEU      0.043700
    140 HBU2       -0.3910   -2.1200   -0.1220 h1        1 PEU      0.043700
    141 HBT1        1.5060   -1.5670   -1.3500 h1        1 PEU      0.043700
    142 HBT2        0.7580    0.1020   -1.5010 h1        1 PEU      0.043700
    143 HBR1        3.5740   -0.2950   -1.5040 h1        1 PEU      0.043700
    144 HBR2        2.8220    1.3550   -1.2320 h1        1 PEU      0.043700
    145 HBQ1        4.7010    1.8180    0.0570 h1        1 PEU      0.043700
    146 HBQ2        3.9550    0.7070    1.3110 h1        1 PEU      0.043700
    147 HBO1        6.7700    1.0250    1.0540 h1        1 PEU      0.043700
    148 HBO2        6.0290   -0.3670    1.9920 h1        1 PEU      0.043700
    149 HBN1        7.9290   -1.5640    1.3860 h1        1 PEU      0.043700
    150 HBN2        7.1830   -1.6430   -0.2880 h1        1 PEU      0.043700
    151 HBL1       10.0010   -1.6540    0.1150 h1        1 PEU      0.043700
    152 HBL2        9.2500   -1.3140   -1.5240 h1        1 PEU      0.043700
    153 HBK1       11.1270   -0.0020   -1.9260 h1        1 PEU      0.043700
    154 HBK2       10.3720    1.2030   -0.7670 h1        1 PEU      0.043700
    155 HBI1       13.1880    0.9740   -1.0820 h1        1 PEU      0.043700
    156 HBI2       12.4350    1.8480    0.3440 h1        1 PEU      0.043700
    157 HBH1       14.3310    1.2030    1.5280 h1        1 PEU      0.043700
    158 HBH2       13.5990   -0.4790    1.5250 h1        1 PEU      0.043700
    159 HBF1       16.4120   -0.0520    1.5730 h1        1 PEU      0.043700
    160 HBF2       15.6800   -1.6810    1.1530 h1        1 PEU      0.043700
    161 HBE1       17.5710   -2.0030   -0.1620 h1        1 PEU      0.043700
    162 HBE2       16.8090   -0.8010   -1.3190 h1        1 PEU      0.043700
    163 HCH1       19.6290   -1.0930   -1.0860 h1        1 PEU      0.043700
    164 HCH2       18.8630    0.3600   -1.9020 h1        1 PEU      0.043700
    165 HCI1       20.7390    1.5380   -1.1940 h1        1 PEU      0.043700
    166 HCI2       19.9980    1.4540    0.4820 h1        1 PEU      0.043700
    167 HCK1       22.8120    1.5560    0.0760 h1        1 PEU      0.043700
    168 HCK2       22.0760    1.0550    1.6800 h1        1 PEU      0.043700
    169 HCL1       23.9830   -0.2480    1.9560 h1        1 PEU      0.043700
    170 HCL2       23.2430   -1.3610    0.6990 h1        1 PEU      0.043700
    171 HCN1       26.0580   -1.1030    1.0190 h1        1 PEU      0.043200
    172 HCN2       25.3110   -1.8660   -0.4730 h1        1 PEU      0.043200
    173 HCO1       27.1850   -1.0830   -1.6070 h1        1 PEU      0.043700
    174 HCO2       26.4190    0.5770   -1.4570 h1        1 PEU      0.043700
    175 HCQ1       29.2380    0.2190   -1.5580 h1        1 PEU      0.043700
    176 HCQ2       28.4750    1.7880   -0.9940 h1        1 PEU      0.043700
    177 HCR1       30.3700    2.0370    0.3320 h1        1 PEU      0.043700
    178 HCR2       29.6430    0.7230    1.3850 h1        1 PEU      0.043700
    179 HCT1       32.4550    1.0960    1.1600 h1        1 PEU      0.043200
    180 HCT2       31.7270   -0.4390    1.8520 h1        1 PEU      0.043200
    181 HCU1       33.6260   -1.5040    1.0350 h1        1 PEU      0.043700
    182 HCU2       32.8630   -1.3020   -0.6210 h1        1 PEU      0.043700
    183 HCW1       35.6840   -1.3660   -0.2590 h1        1 PEU      0.043700
    184 HCW2       34.9100   -0.7560   -1.8060 h1        1 PEU      0.043700
    185 HCX1       36.7880    0.6040   -2.0010 h1        1 PEU      0.044200
    186 HCX2       36.0280    1.6040   -0.6630 h1        1 PEU      0.044200
    187 HCZ1       38.8470    1.4500   -1.0120 h1        1 PEU      0.043200
    188 HCZ2       38.0860    2.0820    0.5320 h1        1 PEU      0.043200
    189 HDA1       39.9930    1.2780    1.5970 h1        1 PEU      0.045200
    190 HDA2       39.2640   -0.3870    1.3430 h1        1 PEU      0.045200
    191 HDC1       42.1320    0.0690    1.3930 h1        1 PEU      0.039200
    192 HDC2       41.3260   -1.4930    0.8690 h1        1 PEU      0.039200
    193 HDD1       43.6190   -1.3150   -0.1570 h1        1 PEU      0.053700
    194 HDD2       42.3250   -1.1850   -1.4580 h1        1 PEU      0.053700
    195 HDE        42.6570    1.1200   -1.2120 ho        1 PEU      0.412000
@<TRIPOS>BOND
     1    1    2 1   
     2    1   84 1   
     3    1   85 1   
     4    1   86 1   
     5    2    3 1   
     6    3    4 1   
     7    3   87 1   
     8    3   88 1   
     9    4    5 1   
    10    4   89 1   
    11    4   90 1   
    12    5    6 1   
    13    6    7 1   
    14    6   91 1   
    15    6   92 1   
    16    7    8 1   
    17    7   93 1   
    18    7   94 1   
    19    8    9 1   
    20    9   10 1   
    21    9   95 1   
    22    9   96 1   
    23   10   11 1   
    24   10   97 1   
    25   10   98 1   
    26   11   12 1   
    27   12   13 1   
    28   12   99 1   
    29   12  100 1   
    30   13   14 1   
    31   13  101 1   
    32   13  102 1   
    33   14   15 1   
    34   15   16 1   
    35   15  103 1   
    36   15  104 1   
    37   16   17 1   
    38   16  105 1   
    39   16  106 1   
    40   17   18 1   
    41   18   19 1   
    42   18  107 1   
    43   18  108 1   
    44   19   20 1   
    45   19  109 1   
    46   19  110 1   
    47   20   21 1   
    48   21   22 1   
    49   21  111 1   
    50   21  112 1   
    51   22   23 1   
    52   22  113 1   
    53   22  114 1   
    54   23   24 1   
    55   24   25 1   
    56   24  115 1   
    57   24  116 1   
    58   25   26 1   
    59   25  117 1   
    60   25  118 1   
    61   26   27 1   
    62   27   28 1   
    63   27  119 1   
    64   27  120 1   
    65   28   29 1   
    66   28  121 1   
    67   28  122 1   
    68   29   30 1   
    69   30   31 1   
    70   30  123 1   
    71   30  124 1   
    72   31   32 1   
    73   31  125 1   
    74   31  126 1   
    75   32   33 1   
    76   33   34 1   
    77   33  127 1   
    78   33  128 1   
    79   34   35 1   
    80   34  129 1   
    81   34  130 1   
    82   35   36 1   
    83   36   37 1   
    84   36  131 1   
    85   36  132 1   
    86   37   38 1   
    87   37  133 1   
    88   37  134 1   
    89   38   39 1   
    90   39   40 1   
    91   39  135 1   
    92   39  136 1   
    93   40   41 1   
    94   40  137 1   
    95   40  138 1   
    96   41   42 1   
    97   42   43 1   
    98   42  139 1   
    99   42  140 1   
   100   43   44 1   
   101   43  141 1   
   102   43  142 1   
   103   44   45 1   
   104   45   46 1   
   105   45  143 1   
   106   45  144 1   
   107   46   47 1   
   108   46  145 1   
   109   46  146 1   
   110   47   48 1   
   111   48   49 1   
   112   48  147 1   
   113   48  148 1   
   114   49   50 1   
   115   49  149 1   
   116   49  150 1   
   117   50   51 1   
   118   51   52 1   
   119   51  151 1   
   120   51  152 1   
   121   52   53 1   
   122   52  153 1   
   123   52  154 1   
   124   53   54 1   
   125   54   55 1   
   126   54  155 1   
   127   54  156 1   
   128   55   56 1   
   129   55  157 1   
   130   55  158 1   
   131   56   57 1   
   132   57   58 1   
   133   57  159 1   
   134   57  160 1   
   135   58   59 1   
   136   58  161 1   
   137   58  162 1   
   138   59   60 1   
   139   60   61 1   
   140   60  163 1   
   141   60  164 1   
   142   61   62 1   
   143   61  165 1   
   144   61  166 1   
   145   62   63 1   
   146   63   64 1   
   147   63  167 1   
   148   63  168 1   
   149   64   65 1   
   150   64  169 1   
   151   64  170 1   
   152   65   66 1   
   153   66   67 1   
   154   66  171 1   
   155   66  172 1   
   156   67   68 1   
   157   67  173 1   
   158   67  174 1   
   159   68   69 1   
   160   69   70 1   
   161   69  175 1   
   162   69  176 1   
   163   70   71 1   
   164   70  177 1   
   165   70  178 1   
   166   71   72 1   
   167   72   73 1   
   168   72  179 1   
   169   72  180 1   
   170   73   74 1   
   171   73  181 1   
   172   73  182 1   
   173   74   75 1   
   174   75   76 1   
   175   75  183 1   
   176   75  184 1   
   177   76   77 1   
   178   76  185 1   
   179   76  186 1   
   180   77   78 1   
   181   78   79 1   
   182   78  187 1   
   183   78  188 1   
   184   79   80 1   
   185   79  189 1   
   186   79  190 1   
   187   80   81 1   
   188   81   82 1   
   189   81  191 1   
   190   81  192 1   
   191   82   83 1   
   192   82  193 1   
   193   82  194 1   
   194   83  195 1   
@<TRIPOS>SUBSTRUCTURE
     1 PEU         1 TEMP              0 ****  ****    0 ROOT
