@<TRIPOS>MOLECULE
PEU
  195   194     1     0     0
SMALL
bcc


@<TRIPOS>ATOM
      1 CAA         7.7180    6.9820    1.6530 c3        1 PEU      0.107700
      2 OAB         6.9230    5.8220    1.3930 os        1 PEU     -0.436600
      3 CAC         7.3940    4.6440    2.0370 c3        1 PEU      0.120400
      4 CAD         6.2160    3.7030    2.3070 c3        1 PEU      0.127400
      5 OAE         6.7020    2.3310    2.3900 os        1 PEU     -0.431600
      6 CAF         5.7620    1.4040    2.9770 c3        1 PEU      0.129400
      7 CAG         6.2080   -0.0390    2.6680 c3        1 PEU      0.128400
      8 OAH         5.5230   -0.9420    3.5310 os        1 PEU     -0.427600
      9 CAI         5.9160   -2.3080    3.3730 c3        1 PEU      0.128400
     10 CAJ         5.1510   -3.1820    4.3840 c3        1 PEU      0.128400
     11 OAK         6.0870   -3.8350    5.2540 os        1 PEU     -0.429600
     12 CAL         5.4720   -4.6390    6.2780 c3        1 PEU      0.128400
     13 CAM         6.5600   -5.2290    7.1870 c3        1 PEU      0.129400
     14 OAN         6.7130   -4.4020    8.3430 os        1 PEU     -0.428600
     15 CAO         7.7880   -4.7790    9.1790 c3        1 PEU      0.128400
     16 CAP         7.6790   -4.0320   10.5280 c3        1 PEU      0.128400
     17 OAQ         8.4360   -2.8230   10.4680 os        1 PEU     -0.428600
     18 CAR         8.6390   -2.1990   11.7400 c3        1 PEU      0.128400
     19 CAS         9.1230   -0.8020   11.5320 c3        1 PEU      0.130400
     20 OAT         8.4260    0.0990   12.4520 os        1 PEU     -0.430600
     21 CAU         8.7560    1.4740   12.2770 c3        1 PEU      0.130400
     22 CAV         8.1960    2.2890   13.4550 c3        1 PEU      0.128400
     23 OAW         7.3410    3.3360   12.9500 os        1 PEU     -0.428600
     24 CAX         6.8090    4.1700   13.9520 c3        1 PEU      0.128400
     25 CAY         5.8730    5.2330   13.3030 c3        1 PEU      0.128400
     26 OAZ         4.5180    4.9730   13.6750 os        1 PEU     -0.428600
     27 CBA         3.6050    6.0460   13.3380 c3        1 PEU      0.128400
     28 CBB         2.1960    5.7380   13.9320 c3        1 PEU      0.129400
     29 OBC         1.3070    5.4150   12.8880 os        1 PEU     -0.429600
     30 CCG        -0.0810    5.5030   13.2540 c3        1 PEU      0.100400
     31 CCF        -0.9390    5.3850   12.0130 c3        1 PEU      0.128400
     32 OCE        -2.0880    4.5960   12.3050 os        1 PEU     -0.422600
     33 CCD        -2.4540    3.7100   11.2680 c3        1 PEU      0.122400
     34 CCC        -4.0160    3.6460   11.1600 c3        1 PEU      0.127400
     35 OCB        -4.3850    2.6900   10.1670 os        1 PEU     -0.429600
     36 CCA        -5.8130    2.5960    9.9430 c3        1 PEU      0.127400
     37 CBZ        -6.0890    1.5540    8.8830 c3        1 PEU      0.128400
     38 OBY        -6.5430    2.2240    7.6460 os        1 PEU     -0.427600
     39 CBX        -6.8070    1.3170    6.5490 c3        1 PEU      0.099400
     40 CBW        -7.0640    2.1260    5.2570 c3        1 PEU      0.122400
     41 OBV        -6.9000    1.2800    4.1350 os        1 PEU     -0.413600
     42 CBU        -5.7160    1.5220    3.3960 c3        1 PEU      0.122400
     43 CBT        -6.0810    1.9410    1.9920 c3        1 PEU      0.100400
     44 OBS        -4.8870    2.0840    1.2110 os        1 PEU     -0.427600
     45 CBR        -5.0160    2.9970    0.0880 c3        1 PEU      0.129400
     46 CBQ        -3.6440    3.1940   -0.5670 c3        1 PEU      0.130400
     47 OBP        -3.7110    4.2670   -1.5140 os        1 PEU     -0.430600
     48 CBO        -2.4130    4.8430   -1.8480 c3        1 PEU      0.129400
     49 CBN        -2.3990    5.2540   -3.3510 c3        1 PEU      0.128400
     50 OBM        -1.0390    5.3500   -3.8120 os        1 PEU     -0.430600
     51 CBL        -0.9130    5.8310   -5.1600 c3        1 PEU      0.128400
     52 CBK         0.5480    5.9660   -5.5120 c3        1 PEU      0.120400
     53 OBJ         0.8580    5.0900   -6.6100 os        1 PEU     -0.431600
     54 CBI         2.1920    5.1980   -7.0710 c3        1 PEU      0.123400
     55 CBH         2.3580    4.3820   -8.3430 c3        1 PEU      0.127400
     56 OBG         2.2660    2.9940   -8.0300 os        1 PEU     -0.432600
     57 CBF         2.6670    2.1270   -9.1010 c3        1 PEU      0.128400
     58 CBE         2.4720    0.6770   -8.6800 c3        1 PEU      0.127400
     59 OBD         1.1200    0.2610   -8.9890 os        1 PEU     -0.429600
     60 CCH         0.7720   -1.0160   -8.4550 c3        1 PEU      0.129400
     61 CCI        -0.4630   -1.5760   -9.2130 c3        1 PEU      0.117400
     62 OCJ        -1.6310   -1.4290   -8.3970 os        1 PEU     -0.429600
     63 CCK        -2.7530   -2.2050   -8.8410 c3        1 PEU      0.127400
     64 CCL        -4.0720   -1.6410   -8.1850 c3        1 PEU      0.126400
     65 OCM        -5.2040   -2.0110   -8.9870 os        1 PEU     -0.434600
     66 CCN        -6.4350   -1.4060   -8.5690 c3        1 PEU      0.123400
     67 CCO        -7.6060   -2.1630   -9.1770 c3        1 PEU      0.116400
     68 OCP        -7.6060   -1.9790  -10.5870 os        1 PEU     -0.426600
     69 CCQ        -8.8720   -2.1470  -11.1890 c3        1 PEU      0.129400
     70 CCR        -8.7060   -2.1960  -12.7440 c3        1 PEU      0.086400
     71 OCS        -7.8460   -3.2530  -13.0940 os        1 PEU     -0.426600
     72 CCT        -7.9860   -3.6870  -14.4560 c3        1 PEU      0.126400
     73 CCU        -6.6410   -4.1320  -14.9840 c3        1 PEU      0.088400
     74 OCV        -6.5410   -5.5400  -14.8900 os        1 PEU     -0.426600
     75 CCW        -5.2660   -6.0430  -15.1810 c3        1 PEU      0.123400
     76 CCX        -5.3070   -7.6060  -15.1530 c3        1 PEU      0.128400
     77 OCY        -4.3480   -8.0970  -14.2020 os        1 PEU     -0.436600
     78 CCZ        -4.0880   -9.5050  -14.3150 c3        1 PEU      0.129400
     79 CDA        -3.2210   -9.9570  -13.1350 c3        1 PEU      0.128400
     80 ODB        -3.7240  -11.2030  -12.6120 os        1 PEU     -0.428600
     81 CDC        -2.7810  -11.9140  -11.8160 c3        1 PEU      0.127400
     82 CDD        -3.5180  -13.0820  -11.0500 c3        1 PEU      0.127400
     83 ODE        -2.5450  -13.8700  -10.2990 oh        1 PEU     -0.610800
     84 HAA1        8.6640    6.7230    1.7190 h1        1 PEU      0.041367
     85 HAA2        7.4320    7.3900    2.4940 h1        1 PEU      0.041367
     86 HAA3        7.6060    7.6200    0.9280 h1        1 PEU      0.041367
     87 HAC1        8.0410    4.1960    1.4620 h1        1 PEU      0.047700
     88 HAC2        7.8180    4.8810    2.8780 h1        1 PEU      0.047700
     89 HAD1        5.7890    3.9500    3.1490 h1        1 PEU      0.039700
     90 HAD2        5.5590    3.7760    1.5700 h1        1 PEU      0.039700
     91 HAF1        5.7340    1.5390    3.9560 h1        1 PEU      0.043200
     92 HAF2        4.8810    1.5560    2.6030 h1        1 PEU      0.043200
     93 HAG1        7.1480   -0.1180    2.8070 h1        1 PEU      0.040200
     94 HAG2        5.9970   -0.2540    1.7380 h1        1 PEU      0.040200
     95 HAI1        5.7080   -2.6070    2.4580 h1        1 PEU      0.044200
     96 HAI2        6.8910   -2.3920    3.5340 h1        1 PEU      0.044200
     97 HAJ1        4.6230   -3.8590    3.9000 h1        1 PEU      0.045200
     98 HAJ2        4.5410   -2.6090    4.9220 h1        1 PEU      0.045200
     99 HAL1        4.9660   -5.3650    5.8610 h1        1 PEU      0.041700
    100 HAL2        4.8650   -4.0810    6.8140 h1        1 PEU      0.041700
    101 HAM1        7.4120   -5.2680    6.6970 h1        1 PEU      0.040700
    102 HAM2        6.2950   -6.1500    7.4690 h1        1 PEU      0.040700
    103 HAO1        8.6350   -4.5480    8.7460 h1        1 PEU      0.044700
    104 HAO2        7.7540   -5.7540    9.3390 h1        1 PEU      0.044700
    105 HAP1        6.7440   -3.8210   10.7090 h1        1 PEU      0.044700
    106 HAP2        8.0330   -4.6050   11.2500 h1        1 PEU      0.044700
    107 HAR1        9.2990   -2.6990   12.2440 h1        1 PEU      0.041200
    108 HAR2        7.8020   -2.1830   12.2300 h1        1 PEU      0.041200
    109 HAS1        8.9420   -0.5310   10.6090 h1        1 PEU      0.042700
    110 HAS2       10.0860   -0.7620   11.7010 h1        1 PEU      0.042700
    111 HAU1        9.7160    1.5740   12.2440 h1        1 PEU      0.042200
    112 HAU2        8.3620    1.8030   11.4330 h1        1 PEU      0.042200
    113 HAV1        7.6740    1.6960   14.0470 h1        1 PEU      0.040700
    114 HAV2        8.9490    2.6920   13.9680 h1        1 PEU      0.040700
    115 HAX1        6.2990    3.6300   14.5900 h1        1 PEU      0.044700
    116 HAX2        7.5440    4.6240   14.4220 h1        1 PEU      0.044700
    117 HAY1        5.9590    5.1900   12.3120 h1        1 PEU      0.044700
    118 HAY2        6.1280    6.1190   13.6120 h1        1 PEU      0.044700
    119 HBA1        3.5380    6.1250   12.3560 h1        1 PEU      0.040700
    120 HBA2        3.9470    6.9090   13.7200 h1        1 PEU      0.040700
    121 HBB1        2.2600    4.9840   14.5510 h1        1 PEU      0.042200
    122 HBB2        1.8700    6.5100   14.4010 h1        1 PEU      0.042200
    123 HCG1       -0.2550    6.3770   13.6940 h1        1 PEU      0.038700
    124 HCG2       -0.3030    4.7710   13.8780 h1        1 PEU      0.038700
    125 HCF1       -0.4140    4.9520   11.2890 h1        1 PEU      0.059700
    126 HCF2       -1.2220    6.2840   11.7220 h1        1 PEU      0.059700
    127 HCD1       -2.1050    2.8180   11.4640 h1        1 PEU      0.045200
    128 HCD2       -2.0850    4.0240   10.4290 h1        1 PEU      0.045200
    129 HCC1       -4.3610    4.5240   10.9110 h1        1 PEU      0.044200
    130 HCC2       -4.3920    3.3810   12.0220 h1        1 PEU      0.044200
    131 HCA1       -6.1480    3.4480    9.6480 h1        1 PEU      0.044200
    132 HCA2       -6.2590    2.3400   10.7770 h1        1 PEU      0.044200
    133 HBZ1       -6.7940    0.9350    9.2020 h1        1 PEU      0.044700
    134 HBZ2       -5.2820    1.0550    8.7030 h1        1 PEU      0.044700
    135 HBX1       -6.0370    0.7330    6.4190 h1        1 PEU      0.035700
    136 HBX2       -7.5820    0.7850    6.7530 h1        1 PEU      0.035700
    137 HBW1       -6.4340    2.8600    5.2030 h1        1 PEU      0.061200
    138 HBW2       -7.9970    2.4870    5.2690 h1        1 PEU      0.061200
    139 HBU1       -5.1990    2.2330    3.8280 h1        1 PEU      0.061700
    140 HBU2       -5.1760    0.6980    3.3620 h1        1 PEU      0.061700
    141 HBT1       -6.6580    1.2530    1.5870 h1        1 PEU      0.036700
    142 HBT2       -6.5540    2.7840    2.0180 h1        1 PEU      0.036700
    143 HBR1       -5.3530    3.8610    0.4040 h1        1 PEU      0.041700
    144 HBR2       -5.6470    2.6190   -0.5750 h1        1 PEU      0.041700
    145 HBQ1       -3.3840    2.3820   -1.0180 h1        1 PEU      0.042200
    146 HBQ2       -2.9940    3.4050    0.1120 h1        1 PEU      0.042200
    147 HBO1       -2.2520    5.6360   -1.2880 h1        1 PEU      0.042200
    148 HBO2       -1.7050    4.1750   -1.6830 h1        1 PEU      0.042200
    149 HBN1       -2.8410    6.1230   -3.4550 h1        1 PEU      0.040700
    150 HBN2       -2.8720    4.5860   -3.8720 h1        1 PEU      0.040700
    151 HBL1       -1.3310    5.2100   -5.7600 h1        1 PEU      0.043700
    152 HBL2       -1.3460    6.6970   -5.2360 h1        1 PEU      0.043700
    153 HBK1        0.7370    6.8860   -5.7680 h1        1 PEU      0.054700
    154 HBK2        1.0880    5.7270   -4.7470 h1        1 PEU      0.054700
    155 HBI1        2.7870    4.8670   -6.4020 h1        1 PEU      0.046700
    156 HBI2        2.3950    6.1210   -7.2540 h1        1 PEU      0.046700
    157 HBH1        1.6520    4.6220   -8.9800 h1        1 PEU      0.039700
    158 HBH2        3.2410    4.5720   -8.7430 h1        1 PEU      0.039700
    159 HBF1        3.6180    2.2830   -9.3110 h1        1 PEU      0.044200
    160 HBF2        2.1230    2.3130   -9.8920 h1        1 PEU      0.044200
    161 HBE1        2.6280    0.5930   -7.7110 h1        1 PEU      0.042700
    162 HBE2        3.1160    0.1010   -9.1700 h1        1 PEU      0.042700
    163 HCH1        1.5230   -1.6270   -8.5610 h1        1 PEU      0.043200
    164 HCH2        0.5570   -0.9230   -7.4970 h1        1 PEU      0.043200
    165 HCI1       -0.3210   -2.5330   -9.4140 h1        1 PEU      0.052200
    166 HCI2       -0.5860   -1.0750  -10.0580 h1        1 PEU      0.052200
    167 HCK1       -2.8240   -2.1490   -9.8140 h1        1 PEU      0.039700
    168 HCK2       -2.6280   -3.1480   -8.5730 h1        1 PEU      0.039700
    169 HCL1       -4.0180   -0.6690   -8.1290 h1        1 PEU      0.044200
    170 HCL2       -4.1740   -2.0140   -7.2870 h1        1 PEU      0.044200
    171 HCN1       -6.4990   -1.4370   -7.5780 h1        1 PEU      0.042700
    172 HCN2       -6.4580   -0.4760   -8.8670 h1        1 PEU      0.042700
    173 HCO1       -8.4400   -1.8250   -8.8050 h1        1 PEU      0.056200
    174 HCO2       -7.5210   -3.0970   -8.9770 h1        1 PEU      0.056200
    175 HCQ1       -9.2660   -2.9670  -10.8820 h1        1 PEU      0.060200
    176 HCQ2       -9.4470   -1.4010  -10.9480 h1        1 PEU      0.060200
    177 HCR1       -9.6010   -2.3400  -13.1710 h1        1 PEU      0.043700
    178 HCR2       -8.3300   -1.3580  -13.0540 h1        1 PEU      0.043700
    179 HCT1       -8.6170   -4.4370  -14.4970 h1        1 PEU      0.061200
    180 HCT2       -8.3230   -2.9460  -15.0030 h1        1 PEU      0.061200
    181 HCU1       -6.5520   -3.8590  -15.9280 h1        1 PEU      0.047700
    182 HCU2       -5.9300   -3.7180  -14.4560 h1        1 PEU      0.047700
    183 HCW1       -4.9900   -5.7410  -16.0690 h1        1 PEU      0.044700
    184 HCW2       -4.6270   -5.7200  -14.5130 h1        1 PEU      0.044700
    185 HCX1       -5.0900   -7.9560  -16.0480 h1        1 PEU      0.044200
    186 HCX2       -6.2040   -7.9030  -14.8950 h1        1 PEU      0.044200
    187 HCZ1       -4.9410   -9.9990  -14.3050 h1        1 PEU      0.043200
    188 HCZ2       -3.6100   -9.6860  -15.1670 h1        1 PEU      0.043200
    189 HDA1       -2.2840  -10.0810  -13.4420 h1        1 PEU      0.042200
    190 HDA2       -3.2480   -9.2680  -12.4260 h1        1 PEU      0.042200
    191 HDC1       -2.3740  -11.3000  -11.1640 h1        1 PEU      0.042200
    192 HDC2       -2.0860  -12.2870  -12.3910 h1        1 PEU      0.042200
    193 HDD1       -4.1790  -12.6990  -10.4270 h1        1 PEU      0.038700
    194 HDD2       -3.9800  -13.6650  -11.7040 h1        1 PEU      0.038700
    195 HDE        -2.9760  -14.4940   -9.8120 ho        1 PEU      0.410000
@<TRIPOS>BOND
     1    1    2 1   
     2    1   84 1   
     3    1   85 1   
     4    1   86 1   
     5    2    3 1   
     6    3    4 1   
     7    3   87 1   
     8    3   88 1   
     9    4    5 1   
    10    4   89 1   
    11    4   90 1   
    12    5    6 1   
    13    6    7 1   
    14    6   91 1   
    15    6   92 1   
    16    7    8 1   
    17    7   93 1   
    18    7   94 1   
    19    8    9 1   
    20    9   10 1   
    21    9   95 1   
    22    9   96 1   
    23   10   11 1   
    24   10   97 1   
    25   10   98 1   
    26   11   12 1   
    27   12   13 1   
    28   12   99 1   
    29   12  100 1   
    30   13   14 1   
    31   13  101 1   
    32   13  102 1   
    33   14   15 1   
    34   15   16 1   
    35   15  103 1   
    36   15  104 1   
    37   16   17 1   
    38   16  105 1   
    39   16  106 1   
    40   17   18 1   
    41   18   19 1   
    42   18  107 1   
    43   18  108 1   
    44   19   20 1   
    45   19  109 1   
    46   19  110 1   
    47   20   21 1   
    48   21   22 1   
    49   21  111 1   
    50   21  112 1   
    51   22   23 1   
    52   22  113 1   
    53   22  114 1   
    54   23   24 1   
    55   24   25 1   
    56   24  115 1   
    57   24  116 1   
    58   25   26 1   
    59   25  117 1   
    60   25  118 1   
    61   26   27 1   
    62   27   28 1   
    63   27  119 1   
    64   27  120 1   
    65   28   29 1   
    66   28  121 1   
    67   28  122 1   
    68   29   30 1   
    69   30   31 1   
    70   30  123 1   
    71   30  124 1   
    72   31   32 1   
    73   31  125 1   
    74   31  126 1   
    75   32   33 1   
    76   33   34 1   
    77   33  127 1   
    78   33  128 1   
    79   34   35 1   
    80   34  129 1   
    81   34  130 1   
    82   35   36 1   
    83   36   37 1   
    84   36  131 1   
    85   36  132 1   
    86   37   38 1   
    87   37  133 1   
    88   37  134 1   
    89   38   39 1   
    90   39   40 1   
    91   39  135 1   
    92   39  136 1   
    93   40   41 1   
    94   40  137 1   
    95   40  138 1   
    96   41   42 1   
    97   42   43 1   
    98   42  139 1   
    99   42  140 1   
   100   43   44 1   
   101   43  141 1   
   102   43  142 1   
   103   44   45 1   
   104   45   46 1   
   105   45  143 1   
   106   45  144 1   
   107   46   47 1   
   108   46  145 1   
   109   46  146 1   
   110   47   48 1   
   111   48   49 1   
   112   48  147 1   
   113   48  148 1   
   114   49   50 1   
   115   49  149 1   
   116   49  150 1   
   117   50   51 1   
   118   51   52 1   
   119   51  151 1   
   120   51  152 1   
   121   52   53 1   
   122   52  153 1   
   123   52  154 1   
   124   53   54 1   
   125   54   55 1   
   126   54  155 1   
   127   54  156 1   
   128   55   56 1   
   129   55  157 1   
   130   55  158 1   
   131   56   57 1   
   132   57   58 1   
   133   57  159 1   
   134   57  160 1   
   135   58   59 1   
   136   58  161 1   
   137   58  162 1   
   138   59   60 1   
   139   60   61 1   
   140   60  163 1   
   141   60  164 1   
   142   61   62 1   
   143   61  165 1   
   144   61  166 1   
   145   62   63 1   
   146   63   64 1   
   147   63  167 1   
   148   63  168 1   
   149   64   65 1   
   150   64  169 1   
   151   64  170 1   
   152   65   66 1   
   153   66   67 1   
   154   66  171 1   
   155   66  172 1   
   156   67   68 1   
   157   67  173 1   
   158   67  174 1   
   159   68   69 1   
   160   69   70 1   
   161   69  175 1   
   162   69  176 1   
   163   70   71 1   
   164   70  177 1   
   165   70  178 1   
   166   71   72 1   
   167   72   73 1   
   168   72  179 1   
   169   72  180 1   
   170   73   74 1   
   171   73  181 1   
   172   73  182 1   
   173   74   75 1   
   174   75   76 1   
   175   75  183 1   
   176   75  184 1   
   177   76   77 1   
   178   76  185 1   
   179   76  186 1   
   180   77   78 1   
   181   78   79 1   
   182   78  187 1   
   183   78  188 1   
   184   79   80 1   
   185   79  189 1   
   186   79  190 1   
   187   80   81 1   
   188   81   82 1   
   189   81  191 1   
   190   81  192 1   
   191   82   83 1   
   192   82  193 1   
   193   82  194 1   
   194   83  195 1   
@<TRIPOS>SUBSTRUCTURE
     1 PEU         1 TEMP              0 ****  ****    0 ROOT
