@<TRIPOS>MOLECULE
PEU
  195   194     1     0     0
SMALL
bcc


@<TRIPOS>ATOM
      1 CAA        -2.9740   -5.9420   -3.4120 c3        1 PEU      0.117700
      2 OAB        -2.7570   -4.5430   -3.3890 os        1 PEU     -0.425600
      3 CAC        -1.3720   -4.2020   -3.4060 c3        1 PEU      0.123400
      4 CAD        -1.2950   -2.6910   -3.2160 c3        1 PEU      0.127400
      5 OAE        -0.7310   -2.4750   -1.9230 os        1 PEU     -0.429600
      6 CAF        -0.7560   -1.1000   -1.5470 c3        1 PEU      0.127400
      7 CAG         0.0270   -0.9940   -0.2420 c3        1 PEU      0.127400
      8 OAH         1.2650   -0.3630   -0.5630 os        1 PEU     -0.429600
      9 CAI         2.1640   -0.3450    0.5440 c3        1 PEU      0.127400
     10 CAJ         3.3570    0.5060    0.1200 c3        1 PEU      0.127400
     11 OAK         3.2530    1.7340    0.8370 os        1 PEU     -0.429600
     12 CAL         4.2210    2.6910    0.4120 c3        1 PEU      0.127400
     13 CAM         4.1130    3.8720    1.3710 c3        1 PEU      0.127400
     14 OAN         5.2700    3.8240    2.2050 os        1 PEU     -0.429600
     15 CAO         5.2150    4.7820    3.2600 c3        1 PEU      0.127400
     16 CAP         6.5730    4.7430    3.9520 c3        1 PEU      0.127400
     17 OAQ         7.2500    5.9430    3.5850 os        1 PEU     -0.429600
     18 CAR         8.6020    5.9610    4.0390 c3        1 PEU      0.127400
     19 CAS         9.1400    7.3560    3.7410 c3        1 PEU      0.127400
     20 OAT         9.2380    8.0290    4.9950 os        1 PEU     -0.429600
     21 CAU         9.5790    9.4050    4.8450 c3        1 PEU      0.127400
     22 CAV         9.8190    9.9480    6.2490 c3        1 PEU      0.127400
     23 OAW        11.2260   10.1400    6.3750 os        1 PEU     -0.429600
     24 CAX        11.6060   10.4940    7.7030 c3        1 PEU      0.127400
     25 CAY        13.0900   10.8410    7.6520 c3        1 PEU      0.127400
     26 OAZ        13.1800   12.2580    7.7930 os        1 PEU     -0.429600
     27 CBA        14.5100   12.7360    7.6040 c3        1 PEU      0.127400
     28 CBB        14.4910   14.2200    7.9580 c3        1 PEU      0.127400
     29 OBC        15.1580   14.3460    9.2120 os        1 PEU     -0.429600
     30 CCG        15.0690   15.6670    9.7410 c3        1 PEU      0.127400
     31 CCF        15.9610   15.7010   10.9770 c3        1 PEU      0.127400
     32 OCE        17.1110   16.4690   10.6260 os        1 PEU     -0.429600
     33 CCD        18.1070   16.4460   11.6450 c3        1 PEU      0.127400
     34 CCC        19.1830   17.4410   11.2220 c3        1 PEU      0.127400
     35 OCB        19.0480   18.5730   12.0790 os        1 PEU     -0.429600
     36 CCA        19.8950   19.6510   11.6870 c3        1 PEU      0.127400
     37 CBZ        19.7800   20.7110   12.7780 c3        1 PEU      0.127400
     38 OBY        21.0050   20.6770   13.5060 os        1 PEU     -0.429600
     39 CBX        20.9690   21.5110   14.6620 c3        1 PEU      0.127400
     40 CBW        22.3820   21.5180   15.2360 c3        1 PEU      0.127400
     41 OBV        22.9290   22.8040   14.9490 os        1 PEU     -0.429600
     42 CBU        24.3100   22.8910   15.2940 c3        1 PEU      0.127400
     43 CBT        24.7120   24.3500   15.1050 c3        1 PEU      0.127400
     44 OBS        24.8680   24.9000   16.4110 os        1 PEU     -0.429600
     45 CBR        25.0870   26.3090   16.3810 c3        1 PEU      0.127400
     46 CBQ        25.4100   26.7280   17.8120 c3        1 PEU      0.127400
     47 OBP        26.8050   27.0240   17.8420 os        1 PEU     -0.429600
     48 CBO        27.2740   27.2790   19.1650 c3        1 PEU      0.127400
     49 CBN        28.7170   27.7510   19.0290 c3        1 PEU      0.127400
     50 OBM        28.7120   29.1520   19.3000 os        1 PEU     -0.429600
     51 CBL        29.9800   29.7550   19.0480 c3        1 PEU      0.127400
     52 CBK        29.8800   31.1950   19.5410 c3        1 PEU      0.127400
     53 OBJ        30.6520   31.2680   20.7370 os        1 PEU     -0.429600
     54 CBI        30.5140   32.5270   21.3930 c3        1 PEU      0.127400
     55 CBH        31.5190   32.5310   22.5400 c3        1 PEU      0.127400
     56 OBG        32.5680   33.4180   22.1550 os        1 PEU     -0.429600
     57 CBF        33.6580   33.3940   23.0740 c3        1 PEU      0.127400
     58 CBE        34.6120   34.5030   22.6420 c3        1 PEU      0.127400
     59 OBD        34.4790   35.5490   23.6020 os        1 PEU     -0.429600
     60 CCH        35.1980   36.7210   23.2260 c3        1 PEU      0.127400
     61 CCI        35.1140   37.6800   24.4100 c3        1 PEU      0.127400
     62 OCJ        36.4080   37.6980   25.0090 os        1 PEU     -0.429600
     63 CCK        36.4270   38.4360   26.2290 c3        1 PEU      0.127400
     64 CCL        37.8880   38.5260   26.6580 c3        1 PEU      0.127400
     65 OCM        38.2980   39.8710   26.4220 os        1 PEU     -0.429600
     66 CCN        39.6970   40.0540   26.6310 c3        1 PEU      0.127400
     67 CCO        39.9590   41.5520   26.5170 c3        1 PEU      0.127400
     68 OCP        40.2130   42.0210   27.8390 os        1 PEU     -0.429600
     69 CCQ        40.3130   43.4420   27.8980 c3        1 PEU      0.127400
     70 CCR        40.7570   43.7870   29.3160 c3        1 PEU      0.127400
     71 OCS        42.1180   44.2020   29.2240 os        1 PEU     -0.429600
     72 CCT        42.7100   44.4010   30.5070 c3        1 PEU      0.127400
     73 CCU        44.0880   45.0040   30.2590 c3        1 PEU      0.127400
     74 OCV        44.0040   46.3770   30.6380 os        1 PEU     -0.429600
     75 CCW        45.1830   47.1040   30.3000 c3        1 PEU      0.127400
     76 CCX        45.0260   48.4920   30.9100 c3        1 PEU      0.127400
     77 OCY        45.9030   48.5440   32.0330 os        1 PEU     -0.428600
     78 CCZ        45.7310   49.7340   32.7990 c3        1 PEU      0.127400
     79 CDA        46.8350   49.7340   33.8520 c3        1 PEU      0.128400
     80 ODB        47.7820   50.7220   33.4490 os        1 PEU     -0.438600
     81 CDC        48.9570   50.7090   34.2560 c3        1 PEU      0.087400
     82 CDD        49.8350   51.8460   33.7440 c3        1 PEU      0.131400
     83 ODE        49.2460   53.1070   33.9820 oh        1 PEU     -0.600800
     84 HAA1       -2.5410   -6.3930   -4.3400 h1        1 PEU      0.032700
     85 HAA2       -2.5260   -6.4270   -2.5100 h1        1 PEU      0.032700
     86 HAA3       -4.0870   -6.0530   -3.4050 h1        1 PEU      0.032700
     87 HAC1       -0.8310   -4.7370   -2.5800 h1        1 PEU      0.042700
     88 HAC2       -0.9330   -4.4970   -4.3960 h1        1 PEU      0.042700
     89 HAD1       -0.6260   -2.2300   -3.9900 h1        1 PEU      0.043200
     90 HAD2       -2.3160   -2.2300   -3.2760 h1        1 PEU      0.043200
     91 HAF1       -1.8200   -0.7800   -1.3920 h1        1 PEU      0.043700
     92 HAF2       -0.2850   -0.4690   -2.3470 h1        1 PEU      0.043700
     93 HAG1        0.2110   -2.0100    0.1960 h1        1 PEU      0.043700
     94 HAG2       -0.5290   -0.3590    0.4970 h1        1 PEU      0.043700
     95 HAI1        1.6620    0.0940    1.4460 h1        1 PEU      0.043700
     96 HAI2        2.4930   -1.3950    0.7680 h1        1 PEU      0.043700
     97 HAJ1        4.3180   -0.0020    0.3970 h1        1 PEU      0.043700
     98 HAJ2        3.3360    0.6980   -0.9850 h1        1 PEU      0.043700
     99 HAL1        3.9840    3.0140   -0.6350 h1        1 PEU      0.043200
    100 HAL2        5.2500    2.2430    0.4460 h1        1 PEU      0.043200
    101 HAM1        4.1090    4.8390    0.8030 h1        1 PEU      0.043700
    102 HAM2        3.1820    3.7960    1.9940 h1        1 PEU      0.043700
    103 HAO1        4.4010    4.4940    3.9770 h1        1 PEU      0.043700
    104 HAO2        5.0080    5.8050    2.8450 h1        1 PEU      0.043700
    105 HAP1        6.4440    4.7190    5.0660 h1        1 PEU      0.043700
    106 HAP2        7.1630    3.8470    3.6210 h1        1 PEU      0.043700
    107 HAR1        9.1880    5.1870    3.4770 h1        1 PEU      0.043700
    108 HAR2        8.6450    5.7430    5.1390 h1        1 PEU      0.043700
    109 HAS1       10.1600    7.2920    3.2780 h1        1 PEU      0.043700
    110 HAS2        8.4480    7.9130    3.0550 h1        1 PEU      0.043700
    111 HAU1       10.5020    9.5100    4.2140 h1        1 PEU      0.043700
    112 HAU2        8.7250    9.9450    4.3570 h1        1 PEU      0.043700
    113 HAV1        9.4540    9.2230    7.0240 h1        1 PEU      0.043700
    114 HAV2        9.3000   10.9340    6.3820 h1        1 PEU      0.043700
    115 HAX1       11.4330    9.6170    8.3810 h1        1 PEU      0.043700
    116 HAX2       11.0040   11.3710    8.0600 h1        1 PEU      0.043700
    117 HAY1       13.6370   10.3510    8.5000 h1        1 PEU      0.043700
    118 HAY2       13.5410   10.5200    6.6760 h1        1 PEU      0.043700
    119 HBA1       15.2220   12.1770    8.2680 h1        1 PEU      0.043700
    120 HBA2       14.8030   12.5940    6.5310 h1        1 PEU      0.043700
    121 HBB1       13.4370   14.5970    8.0390 h1        1 PEU      0.043700
    122 HBB2       15.0460   14.8130    7.1850 h1        1 PEU      0.043700
    123 HCG1       14.0040   15.8800   10.0210 h1        1 PEU      0.043700
    124 HCG2       15.4150   16.4150    8.9790 h1        1 PEU      0.043700
    125 HCF1       15.4310   16.2010   11.8290 h1        1 PEU      0.043700
    126 HCF2       16.2650   14.6630   11.2780 h1        1 PEU      0.043700
    127 HCD1       18.5370   15.4120   11.7170 h1        1 PEU      0.043700
    128 HCD2       17.6600   16.7390   12.6320 h1        1 PEU      0.043700
    129 HCC1       19.0450   17.7460   10.1510 h1        1 PEU      0.043700
    130 HCC2       20.2040   16.9950   11.3590 h1        1 PEU      0.043700
    131 HCA1       20.9540   19.2960   11.5860 h1        1 PEU      0.043700
    132 HCA2       19.5390   20.0600   10.7050 h1        1 PEU      0.043700
    133 HBZ1       19.6500   21.7280   12.3230 h1        1 PEU      0.043700
    134 HBZ2       18.9160   20.4890   13.4590 h1        1 PEU      0.043700
    135 HBX1       20.2470   21.0800   15.4050 h1        1 PEU      0.043700
    136 HBX2       20.6470   22.5500   14.3830 h1        1 PEU      0.043700
    137 HBW1       22.3530   21.3700   16.3480 h1        1 PEU      0.043700
    138 HBW2       23.0080   20.7150   14.7640 h1        1 PEU      0.043700
    139 HBU1       24.4670   22.5690   16.3570 h1        1 PEU      0.043700
    140 HBU2       24.9030   22.2300   14.6080 h1        1 PEU      0.043700
    141 HBT1       25.6890   24.4190   14.5570 h1        1 PEU      0.043700
    142 HBT2       23.9220   24.9110   14.5390 h1        1 PEU      0.043700
    143 HBR1       25.9380   26.5550   15.6920 h1        1 PEU      0.043700
    144 HBR2       24.1540   26.8190   16.0260 h1        1 PEU      0.043700
    145 HBQ1       24.8320   27.6480   18.0900 h1        1 PEU      0.043700
    146 HBQ2       25.1730   25.9010   18.5320 h1        1 PEU      0.043700
    147 HBO1       27.2270   26.3290   19.7610 h1        1 PEU      0.043700
    148 HBO2       26.6420   28.0640   19.6570 h1        1 PEU      0.043700
    149 HBN1       29.3710   27.2340   19.7800 h1        1 PEU      0.043700
    150 HBN2       29.1050   27.5570   17.9940 h1        1 PEU      0.043700
    151 HBL1       30.1860   29.7320   17.9450 h1        1 PEU      0.043700
    152 HBL2       30.7890   29.2010   19.5950 h1        1 PEU      0.043700
    153 HBK1       30.3100   31.8990   18.7810 h1        1 PEU      0.043700
    154 HBK2       28.8120   31.4710   19.7500 h1        1 PEU      0.043700
    155 HBI1       29.4680   32.6220   21.7880 h1        1 PEU      0.043700
    156 HBI2       30.7240   33.3640   20.6750 h1        1 PEU      0.043700
    157 HBH1       31.0390   32.9140   23.4790 h1        1 PEU      0.043700
    158 HBH2       31.9260   31.5010   22.7160 h1        1 PEU      0.043700
    159 HBF1       34.1670   32.3960   23.0160 h1        1 PEU      0.043200
    160 HBF2       33.2900   33.5700   24.1190 h1        1 PEU      0.043200
    161 HBE1       34.3490   34.8790   21.6180 h1        1 PEU      0.043700
    162 HBE2       35.6710   34.1320   22.6470 h1        1 PEU      0.043700
    163 HCH1       36.2660   36.4650   22.9970 h1        1 PEU      0.043700
    164 HCH2       34.7160   37.1750   22.3210 h1        1 PEU      0.043700
    165 HCI1       34.8560   38.7140   24.0590 h1        1 PEU      0.043700
    166 HCI2       34.3470   37.3310   25.1510 h1        1 PEU      0.043700
    167 HCK1       35.8260   37.8880   27.0010 h1        1 PEU      0.043700
    168 HCK2       35.9950   39.4600   26.0710 h1        1 PEU      0.043700
    169 HCL1       38.5220   37.8160   26.0640 h1        1 PEU      0.043700
    170 HCL2       37.9890   38.2970   27.7520 h1        1 PEU      0.043700
    171 HCN1       40.2630   39.4960   25.8390 h1        1 PEU      0.043200
    172 HCN2       39.9910   39.6740   27.6450 h1        1 PEU      0.043200
    173 HCO1       40.8620   41.7440   25.8790 h1        1 PEU      0.043700
    174 HCO2       39.0710   42.0810   26.0800 h1        1 PEU      0.043700
    175 HCQ1       41.0590   43.8110   27.1460 h1        1 PEU      0.043700
    176 HCQ2       39.3070   43.8910   27.6830 h1        1 PEU      0.043700
    177 HCR1       40.6670   42.8940   29.9900 h1        1 PEU      0.043700
    178 HCR2       40.1420   44.6320   29.7240 h1        1 PEU      0.043700
    179 HCT1       42.0770   45.0930   31.1230 h1        1 PEU      0.043200
    180 HCT2       42.8040   43.4110   31.0260 h1        1 PEU      0.043200
    181 HCU1       44.8590   44.4940   30.8950 h1        1 PEU      0.043700
    182 HCU2       44.3730   44.9160   29.1770 h1        1 PEU      0.043700
    183 HCW1       46.0900   46.5870   30.7130 h1        1 PEU      0.043700
    184 HCW2       45.2650   47.1740   29.1830 h1        1 PEU      0.043700
    185 HCX1       45.3280   49.2810   30.1710 h1        1 PEU      0.044200
    186 HCX2       43.9660   48.6670   31.2360 h1        1 PEU      0.044200
    187 HCZ1       44.7230   49.7150   33.2890 h1        1 PEU      0.043200
    188 HCZ2       45.8120   50.6360   32.1360 h1        1 PEU      0.043200
    189 HDA1       46.4190   50.0130   34.8560 h1        1 PEU      0.045200
    190 HDA2       47.3270   48.7270   33.9130 h1        1 PEU      0.045200
    191 HDC1       48.6790   50.8730   35.3300 h1        1 PEU      0.039200
    192 HDC2       49.4830   49.7240   34.1480 h1        1 PEU      0.039200
    193 HDD1       50.0340   51.7130   32.6470 h1        1 PEU      0.053200
    194 HDD2       50.8030   51.8630   34.3110 h1        1 PEU      0.053200
    195 HDE        48.3780   53.0960   33.5580 ho        1 PEU      0.412000
@<TRIPOS>BOND
     1    1    2 1   
     2    1   84 1   
     3    1   85 1   
     4    1   86 1   
     5    2    3 1   
     6    3    4 1   
     7    3   87 1   
     8    3   88 1   
     9    4    5 1   
    10    4   89 1   
    11    4   90 1   
    12    5    6 1   
    13    6    7 1   
    14    6   91 1   
    15    6   92 1   
    16    7    8 1   
    17    7   93 1   
    18    7   94 1   
    19    8    9 1   
    20    9   10 1   
    21    9   95 1   
    22    9   96 1   
    23   10   11 1   
    24   10   97 1   
    25   10   98 1   
    26   11   12 1   
    27   12   13 1   
    28   12   99 1   
    29   12  100 1   
    30   13   14 1   
    31   13  101 1   
    32   13  102 1   
    33   14   15 1   
    34   15   16 1   
    35   15  103 1   
    36   15  104 1   
    37   16   17 1   
    38   16  105 1   
    39   16  106 1   
    40   17   18 1   
    41   18   19 1   
    42   18  107 1   
    43   18  108 1   
    44   19   20 1   
    45   19  109 1   
    46   19  110 1   
    47   20   21 1   
    48   21   22 1   
    49   21  111 1   
    50   21  112 1   
    51   22   23 1   
    52   22  113 1   
    53   22  114 1   
    54   23   24 1   
    55   24   25 1   
    56   24  115 1   
    57   24  116 1   
    58   25   26 1   
    59   25  117 1   
    60   25  118 1   
    61   26   27 1   
    62   27   28 1   
    63   27  119 1   
    64   27  120 1   
    65   28   29 1   
    66   28  121 1   
    67   28  122 1   
    68   29   30 1   
    69   30   31 1   
    70   30  123 1   
    71   30  124 1   
    72   31   32 1   
    73   31  125 1   
    74   31  126 1   
    75   32   33 1   
    76   33   34 1   
    77   33  127 1   
    78   33  128 1   
    79   34   35 1   
    80   34  129 1   
    81   34  130 1   
    82   35   36 1   
    83   36   37 1   
    84   36  131 1   
    85   36  132 1   
    86   37   38 1   
    87   37  133 1   
    88   37  134 1   
    89   38   39 1   
    90   39   40 1   
    91   39  135 1   
    92   39  136 1   
    93   40   41 1   
    94   40  137 1   
    95   40  138 1   
    96   41   42 1   
    97   42   43 1   
    98   42  139 1   
    99   42  140 1   
   100   43   44 1   
   101   43  141 1   
   102   43  142 1   
   103   44   45 1   
   104   45   46 1   
   105   45  143 1   
   106   45  144 1   
   107   46   47 1   
   108   46  145 1   
   109   46  146 1   
   110   47   48 1   
   111   48   49 1   
   112   48  147 1   
   113   48  148 1   
   114   49   50 1   
   115   49  149 1   
   116   49  150 1   
   117   50   51 1   
   118   51   52 1   
   119   51  151 1   
   120   51  152 1   
   121   52   53 1   
   122   52  153 1   
   123   52  154 1   
   124   53   54 1   
   125   54   55 1   
   126   54  155 1   
   127   54  156 1   
   128   55   56 1   
   129   55  157 1   
   130   55  158 1   
   131   56   57 1   
   132   57   58 1   
   133   57  159 1   
   134   57  160 1   
   135   58   59 1   
   136   58  161 1   
   137   58  162 1   
   138   59   60 1   
   139   60   61 1   
   140   60  163 1   
   141   60  164 1   
   142   61   62 1   
   143   61  165 1   
   144   61  166 1   
   145   62   63 1   
   146   63   64 1   
   147   63  167 1   
   148   63  168 1   
   149   64   65 1   
   150   64  169 1   
   151   64  170 1   
   152   65   66 1   
   153   66   67 1   
   154   66  171 1   
   155   66  172 1   
   156   67   68 1   
   157   67  173 1   
   158   67  174 1   
   159   68   69 1   
   160   69   70 1   
   161   69  175 1   
   162   69  176 1   
   163   70   71 1   
   164   70  177 1   
   165   70  178 1   
   166   71   72 1   
   167   72   73 1   
   168   72  179 1   
   169   72  180 1   
   170   73   74 1   
   171   73  181 1   
   172   73  182 1   
   173   74   75 1   
   174   75   76 1   
   175   75  183 1   
   176   75  184 1   
   177   76   77 1   
   178   76  185 1   
   179   76  186 1   
   180   77   78 1   
   181   78   79 1   
   182   78  187 1   
   183   78  188 1   
   184   79   80 1   
   185   79  189 1   
   186   79  190 1   
   187   80   81 1   
   188   81   82 1   
   189   81  191 1   
   190   81  192 1   
   191   82   83 1   
   192   82  193 1   
   193   82  194 1   
   194   83  195 1   
@<TRIPOS>SUBSTRUCTURE
     1 PEU         1 TEMP              0 ****  ****    0 ROOT
