@<TRIPOS>MOLECULE
PEU
  195   194     1     0     0
SMALL
bcc


@<TRIPOS>ATOM
      1 CAA        -2.8970   -5.9600   -3.5140 c3        1 PEU      0.117700
      2 OAB        -2.6650   -4.5630   -3.5090 os        1 PEU     -0.425600
      3 CAC        -1.2760   -4.2380   -3.4830 c3        1 PEU      0.123400
      4 CAD        -1.1890   -2.7240   -3.3200 c3        1 PEU      0.127400
      5 OAE        -0.6700   -2.4880   -2.0120 os        1 PEU     -0.429600
      6 CAF        -0.6930   -1.1050   -1.6640 c3        1 PEU      0.127400
      7 CAG         0.0430   -0.9810   -0.3340 c3        1 PEU      0.127400
      8 OAH         1.2990   -0.3710   -0.6220 os        1 PEU     -0.429600
      9 CAI         2.1580   -0.3420    0.5160 c3        1 PEU      0.127400
     10 CAJ         3.3750    0.4870    0.1200 c3        1 PEU      0.127400
     11 OAK         3.2620    1.7290    0.8120 os        1 PEU     -0.429600
     12 CAL         4.2560    2.6670    0.4050 c3        1 PEU      0.127400
     13 CAM         4.1310    3.8640    1.3400 c3        1 PEU      0.127400
     14 OAN         5.2590    3.8170    2.2120 os        1 PEU     -0.429600
     15 CAO         5.1810    4.7930    3.2490 c3        1 PEU      0.127400
     16 CAP         6.5160    4.7500    3.9860 c3        1 PEU      0.127400
     17 OAQ         7.2190    5.9350    3.6200 os        1 PEU     -0.429600
     18 CAR         8.5570    5.9440    4.1140 c3        1 PEU      0.127400
     19 CAS         9.1230    7.3270    3.8090 c3        1 PEU      0.127400
     20 OAT         9.1970    8.0180    5.0550 os        1 PEU     -0.429600
     21 CAU         9.5600    9.3870    4.8910 c3        1 PEU      0.127400
     22 CAV         9.7760    9.9480    6.2930 c3        1 PEU      0.127400
     23 OAW        11.1830   10.1220    6.4480 os        1 PEU     -0.429600
     24 CAX        11.5370   10.4910    7.7790 c3        1 PEU      0.127400
     25 CAY        13.0270   10.8160    7.7560 c3        1 PEU      0.127400
     26 OAZ        13.1350   12.2330    7.8770 os        1 PEU     -0.429600
     27 CBA        14.4750   12.6890    7.7070 c3        1 PEU      0.127400
     28 CBB        14.4710   14.1780    8.0360 c3        1 PEU      0.127400
     29 OBC        15.1210   14.3160    9.2980 os        1 PEU     -0.429600
     30 CCG        15.0410   15.6470    9.8040 c3        1 PEU      0.127400
     31 CCF        15.9190   15.6900   11.0500 c3        1 PEU      0.127400
     32 OCE        17.0820   16.4380   10.7010 os        1 PEU     -0.429600
     33 CCD        18.0660   16.4190   11.7330 c3        1 PEU      0.127400
     34 CCC        19.1590   17.3930   11.3070 c3        1 PEU      0.127400
     35 OCB        19.0290   18.5400   12.1450 os        1 PEU     -0.429600
     36 CCA        19.8920   19.6020   11.7430 c3        1 PEU      0.127400
     37 CBZ        19.7800   20.6800   12.8160 c3        1 PEU      0.127400
     38 OBY        21.0010   20.6490   13.5520 os        1 PEU     -0.429600
     39 CBX        20.9650   21.5010   14.6950 c3        1 PEU      0.127400
     40 CBW        22.3750   21.5090   15.2740 c3        1 PEU      0.127400
     41 OBV        22.9310   22.7870   14.9710 os        1 PEU     -0.429600
     42 CBU        24.3110   22.8730   15.3190 c3        1 PEU      0.127400
     43 CBT        24.7210   24.3270   15.1110 c3        1 PEU      0.127400
     44 OBS        24.8770   24.8930   16.4110 os        1 PEU     -0.429600
     45 CBR        25.1010   26.3010   16.3630 c3        1 PEU      0.127400
     46 CBQ        25.4240   26.7370   17.7880 c3        1 PEU      0.127400
     47 OBP        26.8190   27.0330   17.8150 os        1 PEU     -0.429600
     48 CBO        27.2880   27.3010   19.1350 c3        1 PEU      0.127400
     49 CBN        28.7310   27.7750   18.9930 c3        1 PEU      0.127400
     50 OBM        28.7240   29.1770   19.2540 os        1 PEU     -0.429600
     51 CBL        29.9900   29.7810   18.9970 c3        1 PEU      0.127400
     52 CBK        29.8900   31.2230   19.4820 c3        1 PEU      0.127400
     53 OBJ        30.6630   31.3030   20.6770 os        1 PEU     -0.429600
     54 CBI        30.5220   32.5650   21.3280 c3        1 PEU      0.127400
     55 CBH        31.5290   32.5760   22.4740 c3        1 PEU      0.127400
     56 OBG        32.5720   33.4670   22.0870 os        1 PEU     -0.429600
     57 CBF        33.6650   33.4500   23.0030 c3        1 PEU      0.127400
     58 CBE        34.6120   34.5640   22.5710 c3        1 PEU      0.127400
     59 OBD        34.4770   35.6070   23.5340 os        1 PEU     -0.429600
     60 CCH        35.1900   36.7840   23.1600 c3        1 PEU      0.127400
     61 CCI        35.1070   37.7370   24.3470 c3        1 PEU      0.127400
     62 OCJ        36.4030   37.7550   24.9430 os        1 PEU     -0.429600
     63 CCK        36.4230   38.4860   26.1680 c3        1 PEU      0.127400
     64 CCL        37.8850   38.5760   26.5940 c3        1 PEU      0.127400
     65 OCM        38.2900   39.9250   26.3710 os        1 PEU     -0.429600
     66 CCN        39.6890   40.1090   26.5770 c3        1 PEU      0.127400
     67 CCO        39.9470   41.6090   26.4810 c3        1 PEU      0.127400
     68 OCP        40.2050   42.0620   27.8090 os        1 PEU     -0.429600
     69 CCQ        40.3020   43.4820   27.8860 c3        1 PEU      0.127400
     70 CCR        40.7520   43.8090   29.3060 c3        1 PEU      0.127400
     71 OCS        42.1120   44.2270   29.2140 os        1 PEU     -0.429600
     72 CCT        42.7090   44.4070   30.4970 c3        1 PEU      0.127400
     73 CCU        44.0860   45.0170   30.2520 c3        1 PEU      0.127400
     74 OCV        44.0020   46.3820   30.6530 os        1 PEU     -0.429600
     75 CCW        45.1790   47.1160   30.3210 c3        1 PEU      0.127400
     76 CCX        45.0240   48.4940   30.9550 c3        1 PEU      0.127400
     77 OCY        45.9090   48.5270   32.0730 os        1 PEU     -0.428600
     78 CCZ        45.7410   49.7040   32.8600 c3        1 PEU      0.127400
     79 CDA        46.8520   49.6880   33.9050 c3        1 PEU      0.128400
     80 ODB        47.7940   50.6840   33.5120 os        1 PEU     -0.438600
     81 CDC        48.9760   50.6580   34.3090 c3        1 PEU      0.087400
     82 CDD        49.8490   51.8050   33.8110 c3        1 PEU      0.131400
     83 ODE        49.2600   53.0610   34.0770 oh        1 PEU     -0.600800
     84 HAA1       -2.4370   -6.4330   -4.4170 h1        1 PEU      0.032700
     85 HAA2       -2.4860   -6.4320   -2.5870 h1        1 PEU      0.032700
     86 HAA3       -4.0110   -6.0590   -3.5440 h1        1 PEU      0.032700
     87 HAC1       -0.7710   -4.7610   -2.6290 h1        1 PEU      0.042700
     88 HAC2       -0.8060   -4.5570   -4.4500 h1        1 PEU      0.042700
     89 HAD1       -0.4870   -2.2860   -4.0780 h1        1 PEU      0.043200
     90 HAD2       -2.2020   -2.2530   -3.4270 h1        1 PEU      0.043200
     91 HAF1       -1.7590   -0.7710   -1.5550 h1        1 PEU      0.043700
     92 HAF2       -0.1860   -0.4960   -2.4590 h1        1 PEU      0.043700
     93 HAG1        0.1980   -1.9910    0.1310 h1        1 PEU      0.043700
     94 HAG2       -0.5320   -0.3250    0.3710 h1        1 PEU      0.043700
     95 HAI1        1.6290    0.1200    1.3910 h1        1 PEU      0.043700
     96 HAI2        2.4650   -1.3910    0.7720 h1        1 PEU      0.043700
     97 HAJ1        4.3200   -0.0270    0.4380 h1        1 PEU      0.043700
     98 HAJ2        3.3950    0.6600   -0.9890 h1        1 PEU      0.043700
     99 HAL1        4.0580    2.9760   -0.6550 h1        1 PEU      0.043200
    100 HAL2        5.2770    2.2070    0.4790 h1        1 PEU      0.043200
    101 HAM1        4.1580    4.8220    0.7560 h1        1 PEU      0.043700
    102 HAM2        3.1800    3.8100    1.9330 h1        1 PEU      0.043700
    103 HAO1        4.3420    4.5260    3.9430 h1        1 PEU      0.043700
    104 HAO2        5.0000    5.8110    2.8120 h1        1 PEU      0.043700
    105 HAP1        6.3510    4.7480    5.0950 h1        1 PEU      0.043700
    106 HAP2        7.1050    3.8410    3.6900 h1        1 PEU      0.043700
    107 HAR1        9.1500    5.1520    3.5850 h1        1 PEU      0.043700
    108 HAR2        8.5640    5.7450    5.2190 h1        1 PEU      0.043700
    109 HAS1       10.1530    7.2410    3.3740 h1        1 PEU      0.043700
    110 HAS2        8.4570    7.8810    3.0960 h1        1 PEU      0.043700
    111 HAU1       10.4980    9.4700    4.2800 h1        1 PEU      0.043700
    112 HAU2        8.7250    9.9300    4.3760 h1        1 PEU      0.043700
    113 HAV1        9.3830    9.2410    7.0700 h1        1 PEU      0.043700
    114 HAV2        9.2680   10.9440    6.3980 h1        1 PEU      0.043700
    115 HAX1       11.3360    9.6270    8.4660 h1        1 PEU      0.043700
    116 HAX2       10.9400   11.3820    8.1080 h1        1 PEU      0.043700
    117 HAY1       13.5470   10.3320    8.6250 h1        1 PEU      0.043700
    118 HAY2       13.4960   10.4710    6.7960 h1        1 PEU      0.043700
    119 HBA1       15.1650   12.1310    8.3940 h1        1 PEU      0.043700
    120 HBA2       14.7880   12.5240    6.6420 h1        1 PEU      0.043700
    121 HBB1       13.4210   14.5700    8.0950 h1        1 PEU      0.043700
    122 HBB2       15.0460   14.7520    7.2620 h1        1 PEU      0.043700
    123 HCG1       13.9750   15.8770   10.0680 h1        1 PEU      0.043700
    124 HCG2       15.4060   16.3780    9.0340 h1        1 PEU      0.043700
    125 HCF1       15.3840   16.2110   11.8880 h1        1 PEU      0.043700
    126 HCF2       16.2050   14.6540   11.3720 h1        1 PEU      0.043700
    127 HCD1       18.4810   15.3810   11.8270 h1        1 PEU      0.043700
    128 HCD2       17.6100   16.7340   12.7100 h1        1 PEU      0.043700
    129 HCC1       19.0370   17.6830   10.2300 h1        1 PEU      0.043700
    130 HCC2       20.1720   16.9370   11.4630 h1        1 PEU      0.043700
    131 HCA1       20.9480   19.2330   11.6580 h1        1 PEU      0.043700
    132 HCA2       19.5500   20.0000   10.7520 h1        1 PEU      0.043700
    133 HBZ1       19.6600   21.6910   12.3440 h1        1 PEU      0.043700
    134 HBZ2       18.9110   20.4770   13.4960 h1        1 PEU      0.043700
    135 HBX1       20.2380   21.0850   15.4410 h1        1 PEU      0.043700
    136 HBX2       20.6500   22.5370   14.3980 h1        1 PEU      0.043700
    137 HBW1       22.3420   21.3770   16.3880 h1        1 PEU      0.043700
    138 HBW2       22.9990   20.6960   14.8160 h1        1 PEU      0.043700
    139 HBU1       24.4620   22.5650   16.3870 h1        1 PEU      0.043700
    140 HBU2       24.9030   22.1990   14.6440 h1        1 PEU      0.043700
    141 HBT1       25.6990   24.3840   14.5650 h1        1 PEU      0.043700
    142 HBT2       23.9350   24.8840   14.5360 h1        1 PEU      0.043700
    143 HBR1       25.9530   26.5360   15.6720 h1        1 PEU      0.043700
    144 HBR2       24.1690   26.8100   16.0000 h1        1 PEU      0.043700
    145 HBQ1       24.8460   27.6610   18.0550 h1        1 PEU      0.043700
    146 HBQ2       25.1860   25.9190   18.5190 h1        1 PEU      0.043700
    147 HBO1       27.2440   26.3580   19.7400 h1        1 PEU      0.043700
    148 HBO2       26.6550   28.0910   19.6200 h1        1 PEU      0.043700
    149 HBN1       29.3860   27.2640   19.7460 h1        1 PEU      0.043700
    150 HBN2       29.1170   27.5750   17.9590 h1        1 PEU      0.043700
    151 HBL1       30.1940   29.7520   17.8940 h1        1 PEU      0.043700
    152 HBL2       30.8010   29.2320   19.5450 h1        1 PEU      0.043700
    153 HBK1       30.3190   31.9240   18.7180 h1        1 PEU      0.043700
    154 HBK2       28.8220   31.5000   19.6910 h1        1 PEU      0.043700
    155 HBI1       29.4770   32.6590   21.7240 h1        1 PEU      0.043700
    156 HBI2       30.7290   33.3990   20.6070 h1        1 PEU      0.043700
    157 HBH1       31.0480   32.9580   23.4130 h1        1 PEU      0.043700
    158 HBH2       31.9420   31.5480   22.6510 h1        1 PEU      0.043700
    159 HBF1       34.1790   32.4540   22.9430 h1        1 PEU      0.043700
    160 HBF2       33.2970   33.6220   24.0490 h1        1 PEU      0.043700
    161 HBE1       34.3420   34.9420   21.5490 h1        1 PEU      0.043700
    162 HBE2       35.6720   34.1990   22.5700 h1        1 PEU      0.043700
    163 HCH1       36.2580   36.5320   22.9240 h1        1 PEU      0.043700
    164 HCH2       34.7020   37.2390   22.2580 h1        1 PEU      0.043700
    165 HCI1       34.8470   38.7720   24.0010 h1        1 PEU      0.043700
    166 HCI2       34.3430   37.3840   25.0890 h1        1 PEU      0.043700
    167 HCK1       35.8240   37.9320   26.9370 h1        1 PEU      0.043700
    168 HCK2       35.9890   39.5100   26.0160 h1        1 PEU      0.043700
    169 HCL1       38.5190   37.8740   25.9910 h1        1 PEU      0.043700
    170 HCL2       37.9890   38.3360   27.6850 h1        1 PEU      0.043700
    171 HCN1       40.2540   39.5630   25.7760 h1        1 PEU      0.043200
    172 HCN2       39.9880   39.7170   27.5850 h1        1 PEU      0.043200
    173 HCO1       40.8460   41.8120   25.8420 h1        1 PEU      0.043700
    174 HCO2       39.0540   42.1410   26.0560 h1        1 PEU      0.043700
    175 HCQ1       41.0450   43.8620   27.1350 h1        1 PEU      0.043700
    176 HCQ2       39.2950   43.9320   27.6810 h1        1 PEU      0.043700
    177 HCR1       40.6650   42.9080   29.9690 h1        1 PEU      0.043700
    178 HCR2       40.1380   44.6480   29.7270 h1        1 PEU      0.043700
    179 HCT1       42.0780   45.0890   31.1260 h1        1 PEU      0.043200
    180 HCT2       42.8070   43.4100   31.0010 h1        1 PEU      0.043200
    181 HCU1       44.8610   44.4970   30.8750 h1        1 PEU      0.043700
    182 HCU2       44.3650   44.9470   29.1670 h1        1 PEU      0.043700
    183 HCW1       46.0880   46.5930   30.7200 h1        1 PEU      0.043700
    184 HCW2       45.2540   47.2060   29.2050 h1        1 PEU      0.043700
    185 HCX1       45.3210   49.2950   30.2280 h1        1 PEU      0.044200
    186 HCX2       43.9660   48.6610   31.2910 h1        1 PEU      0.044200
    187 HCZ1       44.7360   49.6750   33.3580 h1        1 PEU      0.043200
    188 HCZ2       45.8150   50.6180   32.2130 h1        1 PEU      0.043200
    189 HDA1       46.4430   49.9500   34.9160 h1        1 PEU      0.045200
    190 HDA2       47.3450   48.6810   33.9460 h1        1 PEU      0.045200
    191 HDC1       48.7070   50.8010   35.3880 h1        1 PEU      0.039200
    192 HDC2       49.5020   49.6760   34.1780 h1        1 PEU      0.039200
    193 HDD1       50.0380   51.6930   32.7100 h1        1 PEU      0.053700
    194 HDD2       50.8210   51.8140   34.3700 h1        1 PEU      0.053700
    195 HDE        48.3880   53.0560   33.6600 ho        1 PEU      0.412000
@<TRIPOS>BOND
     1    1    2 1   
     2    1   84 1   
     3    1   85 1   
     4    1   86 1   
     5    2    3 1   
     6    3    4 1   
     7    3   87 1   
     8    3   88 1   
     9    4    5 1   
    10    4   89 1   
    11    4   90 1   
    12    5    6 1   
    13    6    7 1   
    14    6   91 1   
    15    6   92 1   
    16    7    8 1   
    17    7   93 1   
    18    7   94 1   
    19    8    9 1   
    20    9   10 1   
    21    9   95 1   
    22    9   96 1   
    23   10   11 1   
    24   10   97 1   
    25   10   98 1   
    26   11   12 1   
    27   12   13 1   
    28   12   99 1   
    29   12  100 1   
    30   13   14 1   
    31   13  101 1   
    32   13  102 1   
    33   14   15 1   
    34   15   16 1   
    35   15  103 1   
    36   15  104 1   
    37   16   17 1   
    38   16  105 1   
    39   16  106 1   
    40   17   18 1   
    41   18   19 1   
    42   18  107 1   
    43   18  108 1   
    44   19   20 1   
    45   19  109 1   
    46   19  110 1   
    47   20   21 1   
    48   21   22 1   
    49   21  111 1   
    50   21  112 1   
    51   22   23 1   
    52   22  113 1   
    53   22  114 1   
    54   23   24 1   
    55   24   25 1   
    56   24  115 1   
    57   24  116 1   
    58   25   26 1   
    59   25  117 1   
    60   25  118 1   
    61   26   27 1   
    62   27   28 1   
    63   27  119 1   
    64   27  120 1   
    65   28   29 1   
    66   28  121 1   
    67   28  122 1   
    68   29   30 1   
    69   30   31 1   
    70   30  123 1   
    71   30  124 1   
    72   31   32 1   
    73   31  125 1   
    74   31  126 1   
    75   32   33 1   
    76   33   34 1   
    77   33  127 1   
    78   33  128 1   
    79   34   35 1   
    80   34  129 1   
    81   34  130 1   
    82   35   36 1   
    83   36   37 1   
    84   36  131 1   
    85   36  132 1   
    86   37   38 1   
    87   37  133 1   
    88   37  134 1   
    89   38   39 1   
    90   39   40 1   
    91   39  135 1   
    92   39  136 1   
    93   40   41 1   
    94   40  137 1   
    95   40  138 1   
    96   41   42 1   
    97   42   43 1   
    98   42  139 1   
    99   42  140 1   
   100   43   44 1   
   101   43  141 1   
   102   43  142 1   
   103   44   45 1   
   104   45   46 1   
   105   45  143 1   
   106   45  144 1   
   107   46   47 1   
   108   46  145 1   
   109   46  146 1   
   110   47   48 1   
   111   48   49 1   
   112   48  147 1   
   113   48  148 1   
   114   49   50 1   
   115   49  149 1   
   116   49  150 1   
   117   50   51 1   
   118   51   52 1   
   119   51  151 1   
   120   51  152 1   
   121   52   53 1   
   122   52  153 1   
   123   52  154 1   
   124   53   54 1   
   125   54   55 1   
   126   54  155 1   
   127   54  156 1   
   128   55   56 1   
   129   55  157 1   
   130   55  158 1   
   131   56   57 1   
   132   57   58 1   
   133   57  159 1   
   134   57  160 1   
   135   58   59 1   
   136   58  161 1   
   137   58  162 1   
   138   59   60 1   
   139   60   61 1   
   140   60  163 1   
   141   60  164 1   
   142   61   62 1   
   143   61  165 1   
   144   61  166 1   
   145   62   63 1   
   146   63   64 1   
   147   63  167 1   
   148   63  168 1   
   149   64   65 1   
   150   64  169 1   
   151   64  170 1   
   152   65   66 1   
   153   66   67 1   
   154   66  171 1   
   155   66  172 1   
   156   67   68 1   
   157   67  173 1   
   158   67  174 1   
   159   68   69 1   
   160   69   70 1   
   161   69  175 1   
   162   69  176 1   
   163   70   71 1   
   164   70  177 1   
   165   70  178 1   
   166   71   72 1   
   167   72   73 1   
   168   72  179 1   
   169   72  180 1   
   170   73   74 1   
   171   73  181 1   
   172   73  182 1   
   173   74   75 1   
   174   75   76 1   
   175   75  183 1   
   176   75  184 1   
   177   76   77 1   
   178   76  185 1   
   179   76  186 1   
   180   77   78 1   
   181   78   79 1   
   182   78  187 1   
   183   78  188 1   
   184   79   80 1   
   185   79  189 1   
   186   79  190 1   
   187   80   81 1   
   188   81   82 1   
   189   81  191 1   
   190   81  192 1   
   191   82   83 1   
   192   82  193 1   
   193   82  194 1   
   194   83  195 1   
@<TRIPOS>SUBSTRUCTURE
     1 PEU         1 TEMP              0 ****  ****    0 ROOT
