@<TRIPOS>MOLECULE
PEV
  126   125     1     0     0
SMALL
bcc


@<TRIPOS>ATOM
      1 C48        -7.9510    9.1400    1.4450 c3        1 PEV     -0.092100
      2 C47        -6.7340    9.9930    1.1910 c3        1 PEV     -0.079400
      3 C46        -5.5050    9.3170    1.7870 c3        1 PEV     -0.079400
      4 C45        -4.2460   10.0070    1.2740 c3        1 PEV     -0.078400
      5 C44        -3.0040    9.1920    1.6920 c3        1 PEV     -0.079400
      6 C43        -1.7740    9.6940    0.9160 c3        1 PEV     -0.078400
      7 C42        -0.9110    8.4840    0.4770 c3        1 PEV     -0.079400
      8 C41         0.4660    8.9810   -0.0120 c3        1 PEV     -0.076400
      9 C40         0.6950    8.5150   -1.4700 c3        1 PEV     -0.078400
     10 C39         1.8420    7.4830   -1.5060 c3        1 PEV     -0.079400
     11 C38         1.9440    6.8710   -2.9280 c3        1 PEV     -0.079400
     12 C37         2.1950    5.3400   -2.8170 c3        1 PEV     -0.080400
     13 C36         1.5760    4.6190   -4.0580 c3        1 PEV     -0.077400
     14 C35         1.5950    3.0980   -3.8310 c3        1 PEV     -0.078400
     15 C34         0.3510    2.4640   -4.4820 c3        1 PEV     -0.078400
     16 C33         0.0740    1.0950   -3.8360 c3        1 PEV     -0.079400
     17 C32        -1.3560    0.6390   -4.1890 c3        1 PEV     -0.131400
     18 C31        -1.7490   -0.5570   -3.3040 c         1 PEV      0.636100
     19 O31        -1.1050   -1.5850   -3.3540 o         1 PEV     -0.539000
     20 O2         -2.9310   -0.4970   -2.5150 os        1 PEV     -0.444900
     21 C2         -3.3230   -1.7470   -1.9660 c3        1 PEV      0.108100
     22 C1         -4.4970   -2.2990   -2.7540 c3        1 PEV      0.183400
     23 O3P        -4.6480   -3.6920   -2.4750 os        1 PEV     -0.574200
     24 P          -5.8300   -4.4900   -3.2010 p5        1 PEV      1.420800
     25 O1P        -7.1560   -4.0230   -2.6620 o         1 PEV     -0.816000
     26 O2P        -5.7720   -4.2320   -4.6860 o         1 PEV     -0.816000
     27 O4P        -5.6670   -6.0500   -2.9270 os        1 PEV     -0.569200
     28 C4         -6.6460   -6.9350   -3.4500 c3        1 PEV      0.152400
     29 C5         -6.1510   -8.3660   -3.3300 c3        1 PEV      0.105800
     30 N6         -7.2350   -9.2690   -3.5820 n3        1 PEV     -0.909800
     31 C3         -3.7270   -1.5590   -0.5290 c3        1 PEV      0.125400
     32 O3         -2.6610   -1.9870    0.3270 os        1 PEV     -0.435900
     33 C11        -2.8630   -1.6740    1.6980 c         1 PEV      0.637100
     34 O11        -3.5700   -0.7260    2.0110 o         1 PEV     -0.566000
     35 C12        -2.2580   -2.5740    2.7890 c3        1 PEV     -0.139400
     36 C13        -1.2790   -1.7510    3.6520 c3        1 PEV     -0.075400
     37 C14        -0.5340   -2.6870    4.6160 c3        1 PEV     -0.079400
     38 C15         0.8900   -2.1550    4.8490 c3        1 PEV     -0.077400
     39 C16         1.7710   -3.2800    5.4260 c3        1 PEV     -0.077400
     40 C17         3.2260   -3.0860    4.9560 c3        1 PEV     -0.079400
     41 C18         3.9790   -4.4440    5.0260 c3        1 PEV     -0.078400
     42 C19         5.2470   -4.3770    4.1390 c3        1 PEV     -0.079400
     43 C20         5.6130   -5.7830    3.6660 c3        1 PEV     -0.078400
     44 C21         6.8340   -5.7080    2.7160 c3        1 PEV     -0.079400
     45 C22         6.9520   -7.0240    1.9260 c3        1 PEV     -0.078400
     46 C23         8.1110   -6.9180    0.9230 c3        1 PEV     -0.079400
     47 C24         8.3520   -8.2810    0.2800 c3        1 PEV     -0.079400
     48 C25         9.2390   -8.1140   -0.9560 c3        1 PEV     -0.080400
     49 C26         9.5830   -9.4830   -1.5230 c3        1 PEV     -0.092100
     50 H481       -7.8150    8.2520    1.0510 hc        1 PEV      0.032367
     51 H482       -8.0920    9.0510    2.4110 hc        1 PEV      0.032367
     52 H483       -8.7360    9.5610    1.0370 hc        1 PEV      0.032367
     53 H471       -6.6090   10.1050    0.2260 hc        1 PEV      0.037200
     54 H472       -6.8580   10.8720    1.6090 hc        1 PEV      0.037200
     55 H461       -5.5380    9.3820    2.7650 hc        1 PEV      0.040700
     56 H462       -5.4910    8.3670    1.5210 hc        1 PEV      0.040700
     57 H451       -4.2820   10.0680    0.2990 hc        1 PEV      0.038200
     58 H452       -4.1890   10.9020    1.6530 hc        1 PEV      0.038200
     59 H441       -3.1520    8.2470    1.4920 hc        1 PEV      0.040200
     60 H442       -2.8500    9.3020    2.6500 hc        1 PEV      0.040200
     61 H431       -1.2440   10.2810    1.4900 hc        1 PEV      0.038200
     62 H432       -2.0670   10.1890    0.1250 hc        1 PEV      0.038200
     63 H421       -0.7880    7.8760    1.2400 hc        1 PEV      0.040700
     64 H422       -1.3620    8.0090   -0.2470 hc        1 PEV      0.040700
     65 H411        1.1690    8.6130    0.5620 hc        1 PEV      0.037200
     66 H412        0.4920    9.9640    0.0260 hc        1 PEV      0.037200
     67 H401       -0.1210    8.1070   -1.8130 hc        1 PEV      0.038700
     68 H402        0.9320    9.2840   -2.0240 hc        1 PEV      0.038700
     69 H391        2.6890    7.9270   -1.2790 hc        1 PEV      0.040700
     70 H392        1.6620    6.7760   -0.8610 hc        1 PEV      0.040700
     71 H381        1.1030    7.0320   -3.4150 hc        1 PEV      0.037200
     72 H382        2.6880    7.2910   -3.4120 hc        1 PEV      0.037200
     73 H371        1.7760    4.9970   -1.9970 hc        1 PEV      0.041200
     74 H372        3.1700    5.1670   -2.7880 hc        1 PEV      0.041200
     75 H361        0.6550    4.9180   -4.1830 hc        1 PEV      0.036700
     76 H362        2.1020    4.8370   -4.8600 hc        1 PEV      0.036700
     77 H351        1.5900    2.9130   -2.8770 hc        1 PEV      0.041200
     78 H352        2.4020    2.7180   -4.2330 hc        1 PEV      0.041200
     79 H341       -0.4240    3.0510   -4.3480 hc        1 PEV      0.039200
     80 H342        0.5100    2.3450   -5.4510 hc        1 PEV      0.039200
     81 H331        0.7160    0.4410   -4.1720 hc        1 PEV      0.055700
     82 H332        0.1630    1.1690   -2.8660 hc        1 PEV      0.055700
     83 H321       -1.9780    1.3750   -4.0350 hc        1 PEV      0.073200
     84 H322       -1.3910    0.3740   -5.1310 hc        1 PEV      0.073200
     85 H2         -2.5780   -2.3710   -2.0150 h1        1 PEV      0.112700
     86 H11        -4.3350   -2.1750   -3.7090 h1        1 PEV      0.048700
     87 H12        -5.3170   -1.8230   -2.4960 h1        1 PEV      0.048700
     88 H41        -7.4830   -6.8330   -2.9440 h1        1 PEV      0.027200
     89 H42        -6.8070   -6.7230   -4.3950 h1        1 PEV      0.027200
     90 H51        -5.4350   -8.5220   -3.9870 h1        1 PEV      0.060200
     91 H52        -5.8040   -8.5180   -2.4260 h1        1 PEV      0.060200
     92 HN61       -7.7510   -8.9430   -4.2650 hn        1 PEV      0.330800
     93 HN62       -7.7470   -9.3530   -2.8240 hn        1 PEV      0.330800
     94 H31        -3.9160   -0.6150   -0.3660 h1        1 PEV      0.073700
     95 H32        -4.5310   -2.0900   -0.3430 h1        1 PEV      0.073700
     96 H121       -1.7790   -3.3140    2.3700 hc        1 PEV      0.090200
     97 H122       -2.9770   -2.9290    3.3580 hc        1 PEV      0.090200
     98 H131       -0.6360   -1.3010    3.0740 hc        1 PEV      0.050700
     99 H132       -1.7790   -1.0830    4.1660 hc        1 PEV      0.050700
    100 H141       -0.4880   -3.5800    4.2310 hc        1 PEV      0.042200
    101 H142       -1.0150   -2.7250    5.4760 hc        1 PEV      0.042200
    102 H151        1.2690   -1.8480    3.9950 hc        1 PEV      0.039200
    103 H152        0.8600   -1.4050    5.4840 hc        1 PEV      0.039200
    104 H161        1.7380   -3.2510    6.4040 hc        1 PEV      0.036700
    105 H162        1.4400   -4.1460    5.1140 hc        1 PEV      0.036700
    106 H171        3.2300   -2.7560    4.0270 hc        1 PEV      0.041700
    107 H172        3.6740   -2.4340    5.5370 hc        1 PEV      0.041700
    108 H181        3.3930   -5.1590    4.7040 hc        1 PEV      0.037700
    109 H182        4.2390   -4.6270    5.9580 hc        1 PEV      0.037700
    110 H191        5.0740   -3.8080    3.3640 hc        1 PEV      0.040200
    111 H192        5.9900   -4.0040    4.6590 hc        1 PEV      0.040200
    112 H201        5.8350   -6.3400    4.4390 hc        1 PEV      0.038200
    113 H202        4.8540   -6.1740    3.1900 hc        1 PEV      0.038200
    114 H211        7.6510   -5.5680    3.2430 hc        1 PEV      0.040200
    115 H212        6.7170   -4.9620    2.0920 hc        1 PEV      0.040200
    116 H221        6.1130   -7.1920    1.4410 hc        1 PEV      0.038700
    117 H222        7.1250   -7.7620    2.5470 hc        1 PEV      0.038700
    118 H231        7.8830   -6.2650    0.2290 hc        1 PEV      0.039700
    119 H232        8.9220   -6.6280    1.3900 hc        1 PEV      0.039700
    120 H241        7.4980   -8.6720    0.0170 hc        1 PEV      0.038700
    121 H242        8.7970   -8.8700    0.9230 hc        1 PEV      0.038700
    122 H251        8.7580   -7.5890   -1.6350 hc        1 PEV      0.038200
    123 H252       10.0600   -7.6490   -0.7070 hc        1 PEV      0.038200
    124 H261       10.0940   -9.9980   -0.8520 hc        1 PEV      0.031367
    125 H262        8.7540   -9.9650   -1.7430 hc        1 PEV      0.031367
    126 H263       10.1250   -9.3750   -2.3360 hc        1 PEV      0.031367
@<TRIPOS>BOND
     1    1    2 1   
     2    1   50 1   
     3    1   51 1   
     4    1   52 1   
     5    2    3 1   
     6    2   53 1   
     7    2   54 1   
     8    3    4 1   
     9    3   55 1   
    10    3   56 1   
    11    4    5 1   
    12    4   57 1   
    13    4   58 1   
    14    5    6 1   
    15    5   59 1   
    16    5   60 1   
    17    6    7 1   
    18    6   61 1   
    19    6   62 1   
    20    7    8 1   
    21    7   63 1   
    22    7   64 1   
    23    8    9 1   
    24    8   65 1   
    25    8   66 1   
    26    9   10 1   
    27    9   67 1   
    28    9   68 1   
    29   10   11 1   
    30   10   69 1   
    31   10   70 1   
    32   11   12 1   
    33   11   71 1   
    34   11   72 1   
    35   12   13 1   
    36   12   73 1   
    37   12   74 1   
    38   13   14 1   
    39   13   75 1   
    40   13   76 1   
    41   14   15 1   
    42   14   77 1   
    43   14   78 1   
    44   15   16 1   
    45   15   79 1   
    46   15   80 1   
    47   16   17 1   
    48   16   81 1   
    49   16   82 1   
    50   17   18 1   
    51   17   83 1   
    52   17   84 1   
    53   18   19 2   
    54   18   20 1   
    55   20   21 1   
    56   21   22 1   
    57   21   31 1   
    58   21   85 1   
    59   22   23 1   
    60   22   86 1   
    61   22   87 1   
    62   23   24 1   
    63   24   25 1   
    64   24   26 1   
    65   24   27 1   
    66   27   28 1   
    67   28   29 1   
    68   28   88 1   
    69   28   89 1   
    70   29   30 1   
    71   29   90 1   
    72   29   91 1   
    73   30   92 1   
    74   30   93 1   
    75   31   32 1   
    76   31   94 1   
    77   31   95 1   
    78   32   33 1   
    79   33   34 2   
    80   33   35 1   
    81   35   36 1   
    82   35   96 1   
    83   35   97 1   
    84   36   37 1   
    85   36   98 1   
    86   36   99 1   
    87   37   38 1   
    88   37  100 1   
    89   37  101 1   
    90   38   39 1   
    91   38  102 1   
    92   38  103 1   
    93   39   40 1   
    94   39  104 1   
    95   39  105 1   
    96   40   41 1   
    97   40  106 1   
    98   40  107 1   
    99   41   42 1   
   100   41  108 1   
   101   41  109 1   
   102   42   43 1   
   103   42  110 1   
   104   42  111 1   
   105   43   44 1   
   106   43  112 1   
   107   43  113 1   
   108   44   45 1   
   109   44  114 1   
   110   44  115 1   
   111   45   46 1   
   112   45  116 1   
   113   45  117 1   
   114   46   47 1   
   115   46  118 1   
   116   46  119 1   
   117   47   48 1   
   118   47  120 1   
   119   47  121 1   
   120   48   49 1   
   121   48  122 1   
   122   48  123 1   
   123   49  124 1   
   124   49  125 1   
   125   49  126 1   
@<TRIPOS>SUBSTRUCTURE
     1 PEV         1 TEMP              0 ****  ****    0 ROOT
