@<TRIPOS>MOLECULE
PEV
  126   125     1     0     0
SMALL
bcc


@<TRIPOS>ATOM
      1 C48        21.7900    5.1940   -0.8620 c3        1 PEV     -0.092100
      2 C47        20.8870    4.0490   -0.4810 c3        1 PEV     -0.080400
      3 C46        19.4270    4.4110   -0.6570 c3        1 PEV     -0.079400
      4 C45        18.5240    3.2580   -0.2730 c3        1 PEV     -0.079400
      5 C44        17.0650    3.6210   -0.4490 c3        1 PEV     -0.079400
      6 C43        16.1620    2.4690   -0.0660 c3        1 PEV     -0.079400
      7 C42        14.7030    2.8310   -0.2420 c3        1 PEV     -0.079400
      8 C41        13.8000    1.6790    0.1410 c3        1 PEV     -0.079400
      9 C40        12.3410    2.0410   -0.0350 c3        1 PEV     -0.079400
     10 C39        11.4380    0.8890    0.3480 c3        1 PEV     -0.079400
     11 C38         9.9790    1.2520    0.1720 c3        1 PEV     -0.078400
     12 C37         9.0750    0.0990    0.5550 c3        1 PEV     -0.079400
     13 C36         7.6170    0.4620    0.3790 c3        1 PEV     -0.079400
     14 C35         6.7140   -0.6910    0.7620 c3        1 PEV     -0.079400
     15 C34         5.2550   -0.3290    0.5850 c3        1 PEV     -0.078400
     16 C33         4.3550   -1.4820    0.9740 c3        1 PEV     -0.078400
     17 C32         2.8990   -1.1200    0.7770 c3        1 PEV     -0.130400
     18 C31         1.9990   -2.2050    1.2900 c         1 PEV      0.634100
     19 O31         2.1660   -2.9250    2.2790 o         1 PEV     -0.563000
     20 O2          0.8800   -2.3430    0.5310 os        1 PEV     -0.425900
     21 C2         -0.0890   -3.3410    0.9180 c3        1 PEV      0.136100
     22 C1         -0.8700   -3.6440   -0.3680 c3        1 PEV      0.185400
     23 O3P        -1.7490   -4.6970   -0.1020 os        1 PEV     -0.559200
     24 P          -2.8370   -4.9420   -1.3150 p5        1 PEV      1.427800
     25 O1P        -2.1860   -4.5590   -2.5860 o         1 PEV     -0.826500
     26 O2P        -3.5840   -6.1780   -1.0460 o         1 PEV     -0.826500
     27 O4P        -3.8100   -3.6280   -0.9900 os        1 PEV     -0.589200
     28 C4         -4.7780   -3.3670   -1.9560 c3        1 PEV      0.159400
     29 C5         -4.4980   -2.0470   -2.7000 c3        1 PEV      0.131800
     30 N6         -3.2710   -1.9550   -3.4500 n3        1 PEV     -0.905800
     31 C3         -0.9720   -2.8180    2.0480 c3        1 PEV      0.126400
     32 O3         -1.8080   -1.7840    1.5150 os        1 PEV     -0.441900
     33 C11        -3.0900   -1.7080    1.9940 c         1 PEV      0.654100
     34 O11        -3.3300   -2.1920    3.1030 o         1 PEV     -0.561000
     35 C12        -4.0050   -1.0180    1.0360 c3        1 PEV     -0.150400
     36 C13        -5.2740   -0.5440    1.7080 c3        1 PEV     -0.072400
     37 C14        -6.2500   -0.0090    0.6810 c3        1 PEV     -0.080400
     38 C15        -7.5390    0.4390    1.3330 c3        1 PEV     -0.077400
     39 C16        -8.5150    0.9770    0.3080 c3        1 PEV     -0.079400
     40 C17        -9.8060    1.4250    0.9590 c3        1 PEV     -0.078400
     41 C18       -10.7810    1.9620   -0.0660 c3        1 PEV     -0.079400
     42 C19       -12.0720    2.4110    0.5850 c3        1 PEV     -0.078400
     43 C20       -13.0470    2.9480   -0.4410 c3        1 PEV     -0.079400
     44 C21       -14.3380    3.3970    0.2100 c3        1 PEV     -0.078400
     45 C22       -15.3130    3.9340   -0.8160 c3        1 PEV     -0.079400
     46 C23       -16.6040    4.3830   -0.1650 c3        1 PEV     -0.079400
     47 C24       -17.5790    4.9200   -1.1910 c3        1 PEV     -0.079400
     48 C25       -18.8700    5.3700   -0.5420 c3        1 PEV     -0.080400
     49 C26       -19.8440    5.9060   -1.5590 c3        1 PEV     -0.092100
     50 H481       21.6360    5.4790   -1.9300 hc        1 PEV      0.031367
     51 H482       21.5810    6.0890   -0.2270 hc        1 PEV      0.031367
     52 H483       22.8610    4.9060   -0.7250 hc        1 PEV      0.031367
     53 H471       21.1280    3.1530   -1.1110 hc        1 PEV      0.038200
     54 H472       21.0740    3.7610    0.5880 hc        1 PEV      0.038200
     55 H461       19.1840    5.3060   -0.0260 hc        1 PEV      0.039200
     56 H462       19.2380    4.6980   -1.7250 hc        1 PEV      0.039200
     57 H451       18.7680    2.3630   -0.9040 hc        1 PEV      0.039200
     58 H452       18.7140    2.9710    0.7950 hc        1 PEV      0.039200
     59 H441       16.8210    4.5160    0.1810 hc        1 PEV      0.039200
     60 H442       16.8760    3.9080   -1.5170 hc        1 PEV      0.039200
     61 H431       16.4060    1.5730   -0.6970 hc        1 PEV      0.039200
     62 H432       16.3520    2.1820    1.0020 hc        1 PEV      0.039200
     63 H421       14.4590    3.7260    0.3890 hc        1 PEV      0.039200
     64 H422       14.5130    3.1180   -1.3100 hc        1 PEV      0.039200
     65 H411       14.0440    0.7840   -0.4900 hc        1 PEV      0.039200
     66 H412       13.9890    1.3910    1.2090 hc        1 PEV      0.039200
     67 H401       12.0970    2.9370    0.5960 hc        1 PEV      0.039200
     68 H402       12.1510    2.3290   -1.1030 hc        1 PEV      0.039200
     69 H391       11.6810   -0.0060   -0.2830 hc        1 PEV      0.039200
     70 H392       11.6270    0.6020    1.4160 hc        1 PEV      0.039200
     71 H381        9.7350    2.1470    0.8030 hc        1 PEV      0.039200
     72 H382        9.7890    1.5390   -0.8960 hc        1 PEV      0.039200
     73 H371        9.3190   -0.7960   -0.0760 hc        1 PEV      0.040200
     74 H372        9.2650   -0.1890    1.6230 hc        1 PEV      0.040200
     75 H361        7.3720    1.3570    1.0090 hc        1 PEV      0.038700
     76 H362        7.4270    0.7480   -0.6890 hc        1 PEV      0.038700
     77 H351        6.9580   -1.5870    0.1310 hc        1 PEV      0.041700
     78 H352        6.9020   -0.9780    1.8300 hc        1 PEV      0.041700
     79 H341        5.0110    0.5690    1.2130 hc        1 PEV      0.039200
     80 H342        5.0640   -0.0460   -0.4840 hc        1 PEV      0.039200
     81 H331        4.6050   -2.3830    0.3550 hc        1 PEV      0.055700
     82 H332        4.5280   -1.7610    2.0470 hc        1 PEV      0.055700
     83 H321        2.6480   -0.1830    1.3410 hc        1 PEV      0.075700
     84 H322        2.6810   -0.9340   -0.3080 hc        1 PEV      0.075700
     85 H2          0.4440   -4.2610    1.2860 h1        1 PEV      0.080700
     86 H11        -1.4520   -2.7390   -0.6960 h1        1 PEV      0.047700
     87 H12        -0.1650   -3.9440   -1.1890 h1        1 PEV      0.047700
     88 H41        -4.8360   -4.2180   -2.6900 h1        1 PEV      0.016200
     89 H42        -5.7740   -3.2660   -1.4360 h1        1 PEV      0.016200
     90 H51        -5.3510   -1.8830   -3.4180 h1        1 PEV      0.025700
     91 H52        -4.5150   -1.2110   -1.9440 h1        1 PEV      0.025700
     92 HN61       -2.4890   -1.9230   -2.8200 hn        1 PEV      0.359800
     93 HN62       -3.1490   -2.7780   -4.0150 hn        1 PEV      0.359800
     94 H31        -1.5960   -3.6620    2.4450 h1        1 PEV      0.068200
     95 H32        -0.3520   -2.3660    2.8640 h1        1 PEV      0.068200
     96 H121       -3.4660   -0.1630    0.5510 hc        1 PEV      0.103200
     97 H122       -4.2370   -1.7750    0.2260 hc        1 PEV      0.103200
     98 H131       -5.7370   -1.3980    2.2700 hc        1 PEV      0.048200
     99 H132       -5.0340    0.2540    2.4580 hc        1 PEV      0.048200
    100 H141       -5.7850    0.8520    0.1320 hc        1 PEV      0.044200
    101 H142       -6.4660   -0.8060   -0.0800 hc        1 PEV      0.044200
    102 H151       -8.0040   -0.4250    1.8780 hc        1 PEV      0.038200
    103 H152       -7.3200    1.2320    2.0970 hc        1 PEV      0.038200
    104 H161       -8.0490    1.8390   -0.2380 hc        1 PEV      0.040700
    105 H162       -8.7330    0.1830   -0.4540 hc        1 PEV      0.040700
    106 H171      -10.2710    0.5620    1.5050 hc        1 PEV      0.037700
    107 H172       -9.5870    2.2180    1.7220 hc        1 PEV      0.037700
    108 H181      -10.3150    2.8250   -0.6120 hc        1 PEV      0.039700
    109 H182      -11.0000    1.1690   -0.8280 hc        1 PEV      0.039700
    110 H191      -12.5370    1.5480    1.1310 hc        1 PEV      0.038200
    111 H192      -11.8530    3.2040    1.3470 hc        1 PEV      0.038200
    112 H201      -12.5810    3.8110   -0.9870 hc        1 PEV      0.039700
    113 H202      -13.2660    2.1540   -1.2030 hc        1 PEV      0.039700
    114 H211      -14.8030    2.5350    0.7560 hc        1 PEV      0.038700
    115 H212      -14.1190    4.1910    0.9720 hc        1 PEV      0.038700
    116 H221      -14.8470    4.7960   -1.3620 hc        1 PEV      0.039200
    117 H222      -15.5320    3.1400   -1.5780 hc        1 PEV      0.039200
    118 H231      -17.0690    3.5210    0.3810 hc        1 PEV      0.038700
    119 H232      -16.3840    5.1770    0.5970 hc        1 PEV      0.038700
    120 H241      -17.1130    5.7830   -1.7370 hc        1 PEV      0.039200
    121 H242      -17.7980    4.1270   -1.9530 hc        1 PEV      0.039200
    122 H251      -19.3340    4.5070    0.0050 hc        1 PEV      0.037700
    123 H252      -18.6480    6.1630    0.2210 hc        1 PEV      0.037700
    124 H261      -19.4090    6.7820   -2.0980 hc        1 PEV      0.031367
    125 H262      -20.0960    5.1220   -2.3140 hc        1 PEV      0.031367
    126 H263      -20.7880    6.2310   -1.0600 hc        1 PEV      0.031367
@<TRIPOS>BOND
     1    1    2 1   
     2    1   50 1   
     3    1   51 1   
     4    1   52 1   
     5    2    3 1   
     6    2   53 1   
     7    2   54 1   
     8    3    4 1   
     9    3   55 1   
    10    3   56 1   
    11    4    5 1   
    12    4   57 1   
    13    4   58 1   
    14    5    6 1   
    15    5   59 1   
    16    5   60 1   
    17    6    7 1   
    18    6   61 1   
    19    6   62 1   
    20    7    8 1   
    21    7   63 1   
    22    7   64 1   
    23    8    9 1   
    24    8   65 1   
    25    8   66 1   
    26    9   10 1   
    27    9   67 1   
    28    9   68 1   
    29   10   11 1   
    30   10   69 1   
    31   10   70 1   
    32   11   12 1   
    33   11   71 1   
    34   11   72 1   
    35   12   13 1   
    36   12   73 1   
    37   12   74 1   
    38   13   14 1   
    39   13   75 1   
    40   13   76 1   
    41   14   15 1   
    42   14   77 1   
    43   14   78 1   
    44   15   16 1   
    45   15   79 1   
    46   15   80 1   
    47   16   17 1   
    48   16   81 1   
    49   16   82 1   
    50   17   18 1   
    51   17   83 1   
    52   17   84 1   
    53   18   19 2   
    54   18   20 1   
    55   20   21 1   
    56   21   22 1   
    57   21   31 1   
    58   21   85 1   
    59   22   23 1   
    60   22   86 1   
    61   22   87 1   
    62   23   24 1   
    63   24   25 1   
    64   24   26 1   
    65   24   27 1   
    66   27   28 1   
    67   28   29 1   
    68   28   88 1   
    69   28   89 1   
    70   29   30 1   
    71   29   90 1   
    72   29   91 1   
    73   30   92 1   
    74   30   93 1   
    75   31   32 1   
    76   31   94 1   
    77   31   95 1   
    78   32   33 1   
    79   33   34 2   
    80   33   35 1   
    81   35   36 1   
    82   35   96 1   
    83   35   97 1   
    84   36   37 1   
    85   36   98 1   
    86   36   99 1   
    87   37   38 1   
    88   37  100 1   
    89   37  101 1   
    90   38   39 1   
    91   38  102 1   
    92   38  103 1   
    93   39   40 1   
    94   39  104 1   
    95   39  105 1   
    96   40   41 1   
    97   40  106 1   
    98   40  107 1   
    99   41   42 1   
   100   41  108 1   
   101   41  109 1   
   102   42   43 1   
   103   42  110 1   
   104   42  111 1   
   105   43   44 1   
   106   43  112 1   
   107   43  113 1   
   108   44   45 1   
   109   44  114 1   
   110   44  115 1   
   111   45   46 1   
   112   45  116 1   
   113   45  117 1   
   114   46   47 1   
   115   46  118 1   
   116   46  119 1   
   117   47   48 1   
   118   47  120 1   
   119   47  121 1   
   120   48   49 1   
   121   48  122 1   
   122   48  123 1   
   123   49  124 1   
   124   49  125 1   
   125   49  126 1   
@<TRIPOS>SUBSTRUCTURE
     1 PEV         1 TEMP              0 ****  ****    0 ROOT
