@<TRIPOS>MOLECULE
PEW
  126   125     1     0     0
SMALL
bcc


@<TRIPOS>ATOM
      1 C48       -18.3540    5.8150    3.0250 c3        1 PEW     -0.092100
      2 C47       -17.6800    4.4930    2.7630 c3        1 PEW     -0.080400
      3 C46       -16.3820    4.6720    2.0050 c3        1 PEW     -0.079400
      4 C45       -15.7090    3.3420    1.7440 c3        1 PEW     -0.079400
      5 C44       -14.4110    3.5220    0.9860 c3        1 PEW     -0.079400
      6 C43       -13.7380    2.1910    0.7250 c3        1 PEW     -0.078400
      7 C42       -12.4400    2.3740   -0.0320 c3        1 PEW     -0.083400
      8 C41       -11.7760    1.0380   -0.2910 c3        1 PEW     -0.082400
      9 C40       -10.4390    1.1880   -0.9950 c3        1 PEW      0.014700
     10 BR2       -10.6530    1.7360   -2.8520 br        1 PEW     -0.162400
     11 C39        -9.5950   -0.0700   -0.8690 c3        1 PEW      0.014700
     12 BR1       -10.3330   -1.5450   -1.9050 br        1 PEW     -0.161400
     13 C38        -8.1410    0.1930   -1.2130 c3        1 PEW     -0.082400
     14 C37        -7.2220   -0.8800   -0.6680 c3        1 PEW     -0.083400
     15 C36        -5.7730   -0.5420   -0.9500 c3        1 PEW     -0.078400
     16 C35        -4.8450   -1.5890   -0.3700 c3        1 PEW     -0.079400
     17 C34        -3.3950   -1.2410   -0.6310 c3        1 PEW     -0.078400
     18 C33        -2.4700   -2.2650   -0.0100 c3        1 PEW     -0.079400
     19 C32        -1.0220   -1.9140   -0.2720 c3        1 PEW     -0.131400
     20 C31        -0.0970   -2.8230    0.4820 c         1 PEW      0.633100
     21 O31        -0.3160   -3.4250    1.5370 o         1 PEW     -0.563000
     22 O2          1.1140   -2.9370   -0.1260 os        1 PEW     -0.425900
     23 C2          2.1160   -3.7670    0.5000 c3        1 PEW      0.136100
     24 C1          3.0800   -4.1360   -0.6350 c3        1 PEW      0.181400
     25 O3P         4.0120   -5.0480   -0.1310 os        1 PEW     -0.560200
     26 P           5.2320   -5.3510   -1.1990 p5        1 PEW      1.427800
     27 O1P         6.1140   -6.3960   -0.6460 o         1 PEW     -0.827000
     28 O2P         4.6500   -5.3040   -2.5510 o         1 PEW     -0.827000
     29 O4P         6.0650   -3.9300   -0.9490 os        1 PEW     -0.591200
     30 C4          7.3840   -3.9330   -1.3940 c3        1 PEW      0.161400
     31 C5          8.3870   -3.9250   -0.2240 c3        1 PEW      0.132800
     32 N6          8.4600   -5.1090    0.5960 n3        1 PEW     -0.907800
     33 C3          2.7940   -3.0150    1.6420 c3        1 PEW      0.126400
     34 O3          3.6010   -1.9760    1.0750 os        1 PEW     -0.442900
     35 C11         4.8160   -1.7370    1.6630 c         1 PEW      0.653100
     36 O11         4.9720   -2.0700    2.8400 o         1 PEW     -0.560000
     37 C12         5.7760   -1.0810    0.7250 c3        1 PEW     -0.149400
     38 C13         6.9550   -0.4800    1.4580 c3        1 PEW     -0.074400
     39 C14         7.9810    0.0480    0.4780 c3        1 PEW     -0.080400
     40 C15         9.1550    0.6720    1.2010 c3        1 PEW     -0.078400
     41 C16        10.1840    1.1980    0.2230 c3        1 PEW     -0.079400
     42 C17        11.3600    1.8210    0.9450 c3        1 PEW     -0.078400
     43 C18        12.3890    2.3480   -0.0320 c3        1 PEW     -0.079400
     44 C19        13.5640    2.9710    0.6890 c3        1 PEW     -0.078400
     45 C20        14.5930    3.4980   -0.2880 c3        1 PEW     -0.079400
     46 C21        15.7690    4.1220    0.4330 c3        1 PEW     -0.078400
     47 C22        16.7980    4.6470   -0.5440 c3        1 PEW     -0.079400
     48 C23        17.9730    5.2710    0.1770 c3        1 PEW     -0.079400
     49 C24        19.0020    5.7970   -0.8010 c3        1 PEW     -0.079400
     50 C25        20.1780    6.4220   -0.0810 c3        1 PEW     -0.080400
     51 C26        21.2060    6.9470   -1.0500 c3        1 PEW     -0.092100
     52 H481      -17.6940    6.4810    3.6310 hc        1 PEW      0.032033
     53 H482      -18.5880    6.3350    2.0650 hc        1 PEW      0.032033
     54 H483      -19.3080    5.6610    3.5840 hc        1 PEW      0.032033
     55 H471      -18.3680    3.8290    2.1750 hc        1 PEW      0.038700
     56 H472      -17.4750    3.9750    3.7370 hc        1 PEW      0.038700
     57 H461      -15.6920    5.3340    2.5920 hc        1 PEW      0.039700
     58 H462      -16.5850    5.1880    1.0300 hc        1 PEW      0.039700
     59 H451      -16.3980    2.6800    1.1570 hc        1 PEW      0.039700
     60 H452      -15.5060    2.8250    2.7190 hc        1 PEW      0.039700
     61 H441      -13.7210    4.1840    1.5730 hc        1 PEW      0.040700
     62 H442      -14.6130    4.0380    0.0110 hc        1 PEW      0.040700
     63 H431      -14.4270    1.5300    0.1360 hc        1 PEW      0.041200
     64 H432      -13.5370    1.6740    1.7000 hc        1 PEW      0.041200
     65 H421      -11.7500    3.0320    0.5600 hc        1 PEW      0.047700
     66 H422      -12.6450    2.8960   -1.0040 hc        1 PEW      0.047700
     67 H411      -12.4630    0.3830   -0.8900 hc        1 PEW      0.060700
     68 H412      -11.6050    0.5220    0.6930 hc        1 PEW      0.060700
     69 H40        -9.8750    2.0400   -0.5290 h1        1 PEW      0.084700
     70 H39        -9.6590   -0.4320    0.1920 h1        1 PEW      0.084700
     71 H381       -7.8420    1.1830   -0.7710 hc        1 PEW      0.060700
     72 H382       -8.0080    0.2770   -2.3240 hc        1 PEW      0.060700
     73 H371       -7.4710   -1.8710   -1.1310 hc        1 PEW      0.048200
     74 H372       -7.3730   -0.9830    0.4390 hc        1 PEW      0.048200
     75 H361       -5.5270    0.4610   -0.5120 hc        1 PEW      0.040700
     76 H362       -5.6120   -0.4680   -2.0580 hc        1 PEW      0.040700
     77 H351       -5.0780   -2.5900   -0.8200 hc        1 PEW      0.043200
     78 H352       -5.0180   -1.6740    0.7350 hc        1 PEW      0.043200
     79 H341       -3.1710   -0.2260   -0.2090 hc        1 PEW      0.039700
     80 H342       -3.2130   -1.1870   -1.7360 hc        1 PEW      0.039700
     81 H331       -2.6910   -3.2810   -0.4290 hc        1 PEW      0.056700
     82 H332       -2.6450   -2.3210    1.0980 hc        1 PEW      0.056700
     83 H321       -0.8040   -0.8640    0.0620 hc        1 PEW      0.076200
     84 H322       -0.7910   -1.9750   -1.3690 hc        1 PEW      0.076200
     85 H2          1.6300   -4.6880    0.9260 h1        1 PEW      0.080700
     86 H11         2.5190   -4.6070   -1.4860 h1        1 PEW      0.051200
     87 H12         3.6140   -3.2190   -1.0070 h1        1 PEW      0.051200
     88 H41         7.5700   -4.8240   -2.0560 h1        1 PEW      0.014700
     89 H42         7.5470   -2.9920   -1.9950 h1        1 PEW      0.014700
     90 H51         9.4100   -3.7580   -0.6680 h1        1 PEW      0.027200
     91 H52         8.1460   -3.0440    0.4360 h1        1 PEW      0.027200
     92 HN61        7.6570   -5.1600    1.1960 hn        1 PEW      0.361800
     93 HN62        8.4390   -5.9320    0.0170 hn        1 PEW      0.361800
     94 H31         3.4300   -3.7330    2.2260 h1        1 PEW      0.068200
     95 H32         2.0350   -2.5270    2.3070 h1        1 PEW      0.068200
     96 H121        5.2380   -0.3030    0.1240 hc        1 PEW      0.101700
     97 H122        6.1200   -1.8890    0.0090 hc        1 PEW      0.101700
     98 H131        7.4210   -1.2640    2.1130 hc        1 PEW      0.050200
     99 H132        6.6050    0.3460    2.1300 hc        1 PEW      0.050200
    100 H141        7.5040    0.8100   -0.1950 hc        1 PEW      0.043200
    101 H142        8.3400   -0.7930   -0.1740 hc        1 PEW      0.043200
    102 H151        9.6300   -0.0920    1.8720 hc        1 PEW      0.039200
    103 H152        8.7950    1.5080    1.8550 hc        1 PEW      0.039200
    104 H161        9.7090    1.9590   -0.4500 hc        1 PEW      0.040200
    105 H162       10.5450    0.3590   -0.4290 hc        1 PEW      0.040200
    106 H171       11.8350    1.0590    1.6170 hc        1 PEW      0.038200
    107 H172       10.9990    2.6590    1.5990 hc        1 PEW      0.038200
    108 H181       11.9130    3.1090   -0.7050 hc        1 PEW      0.039200
    109 H182       12.7500    1.5100   -0.6850 hc        1 PEW      0.039200
    110 H191       14.0400    2.2090    1.3620 hc        1 PEW      0.038200
    111 H192       13.2030    3.8090    1.3430 hc        1 PEW      0.038200
    112 H201       14.1180    4.2590   -0.9610 hc        1 PEW      0.039200
    113 H202       14.9540    2.6600   -0.9410 hc        1 PEW      0.039200
    114 H211       16.2440    3.3600    1.1060 hc        1 PEW      0.038700
    115 H212       15.4080    4.9590    1.0860 hc        1 PEW      0.038700
    116 H221       16.3220    5.4090   -1.2180 hc        1 PEW      0.039200
    117 H222       17.1590    3.8090   -1.1970 hc        1 PEW      0.039200
    118 H231       18.4480    4.5100    0.8500 hc        1 PEW      0.038700
    119 H232       17.6120    6.1090    0.8300 hc        1 PEW      0.038700
    120 H241       18.5270    6.5590   -1.4740 hc        1 PEW      0.039200
    121 H242       19.3640    4.9590   -1.4530 hc        1 PEW      0.039200
    122 H251       20.6510    5.6590    0.5930 hc        1 PEW      0.038200
    123 H252       19.8150    7.2580    0.5730 hc        1 PEW      0.038200
    124 H261       22.0640    7.4020   -0.4990 hc        1 PEW      0.031367
    125 H262       21.5980    6.1220   -1.6940 hc        1 PEW      0.031367
    126 H263       20.7590    7.7260   -1.7140 hc        1 PEW      0.031367
@<TRIPOS>BOND
     1    1    2 1   
     2    1   52 1   
     3    1   53 1   
     4    1   54 1   
     5    2    3 1   
     6    2   55 1   
     7    2   56 1   
     8    3    4 1   
     9    3   57 1   
    10    3   58 1   
    11    4    5 1   
    12    4   59 1   
    13    4   60 1   
    14    5    6 1   
    15    5   61 1   
    16    5   62 1   
    17    6    7 1   
    18    6   63 1   
    19    6   64 1   
    20    7    8 1   
    21    7   65 1   
    22    7   66 1   
    23    8    9 1   
    24    8   67 1   
    25    8   68 1   
    26    9   10 1   
    27    9   11 1   
    28    9   69 1   
    29   11   12 1   
    30   11   13 1   
    31   11   70 1   
    32   13   14 1   
    33   13   71 1   
    34   13   72 1   
    35   14   15 1   
    36   14   73 1   
    37   14   74 1   
    38   15   16 1   
    39   15   75 1   
    40   15   76 1   
    41   16   17 1   
    42   16   77 1   
    43   16   78 1   
    44   17   18 1   
    45   17   79 1   
    46   17   80 1   
    47   18   19 1   
    48   18   81 1   
    49   18   82 1   
    50   19   20 1   
    51   19   83 1   
    52   19   84 1   
    53   20   21 2   
    54   20   22 1   
    55   22   23 1   
    56   23   24 1   
    57   23   33 1   
    58   23   85 1   
    59   24   25 1   
    60   24   86 1   
    61   24   87 1   
    62   25   26 1   
    63   26   27 1   
    64   26   28 1   
    65   26   29 1   
    66   29   30 1   
    67   30   31 1   
    68   30   88 1   
    69   30   89 1   
    70   31   32 1   
    71   31   90 1   
    72   31   91 1   
    73   32   92 1   
    74   32   93 1   
    75   33   34 1   
    76   33   94 1   
    77   33   95 1   
    78   34   35 1   
    79   35   36 2   
    80   35   37 1   
    81   37   38 1   
    82   37   96 1   
    83   37   97 1   
    84   38   39 1   
    85   38   98 1   
    86   38   99 1   
    87   39   40 1   
    88   39  100 1   
    89   39  101 1   
    90   40   41 1   
    91   40  102 1   
    92   40  103 1   
    93   41   42 1   
    94   41  104 1   
    95   41  105 1   
    96   42   43 1   
    97   42  106 1   
    98   42  107 1   
    99   43   44 1   
   100   43  108 1   
   101   43  109 1   
   102   44   45 1   
   103   44  110 1   
   104   44  111 1   
   105   45   46 1   
   106   45  112 1   
   107   45  113 1   
   108   46   47 1   
   109   46  114 1   
   110   46  115 1   
   111   47   48 1   
   112   47  116 1   
   113   47  117 1   
   114   48   49 1   
   115   48  118 1   
   116   48  119 1   
   117   49   50 1   
   118   49  120 1   
   119   49  121 1   
   120   50   51 1   
   121   50  122 1   
   122   50  123 1   
   123   51  124 1   
   124   51  125 1   
   125   51  126 1   
@<TRIPOS>SUBSTRUCTURE
     1 PEW         1 TEMP              0 ****  ****    0 ROOT
