@<TRIPOS>MOLECULE
PEX
   85    84     1     0     0
SMALL
bcc


@<TRIPOS>ATOM
      1 O1          1.6650   -2.3560   -1.8030 o         1 PEX     -0.812300
      2 O2          2.9690   -0.1950   -1.0450 oh        1 PEX     -0.755400
      3 P1          1.6170   -0.9940   -1.2950 p5        1 PEX      1.633500
      4 O3          1.0020   -0.8490    0.1810 os        1 PEX     -0.578200
      5 C1          0.6550   -2.0140    0.8880 c3        1 PEX      0.145400
      6 C2          1.3730   -2.0870    2.2400 c3        1 PEX      0.108100
      7 C3          2.8690   -2.4040    2.1680 c3        1 PEX      0.131400
      8 O4          3.6170   -1.2990    1.6650 os        1 PEX     -0.461900
      9 C4          4.3390   -0.5270    2.5430 c         1 PEX      0.645100
     10 O5          4.3980   -0.8680    3.7230 o         1 PEX     -0.526000
     11 C5          4.9620    0.6480    1.8550 c3        1 PEX     -0.133400
     12 C6          6.2220    1.0930    2.5660 c3        1 PEX     -0.078400
     13 C7          6.7760    2.3530    1.9370 c3        1 PEX     -0.079400
     14 C8          8.0470    2.7930    2.6300 c3        1 PEX     -0.078400
     15 C9          8.6010    4.0570    2.0080 c3        1 PEX     -0.079400
     16 C10         9.8740    4.4960    2.6990 c3        1 PEX     -0.079400
     17 C11        10.4290    5.7600    2.0780 c3        1 PEX     -0.079400
     18 C12        11.7030    6.2000    2.7680 c3        1 PEX     -0.080400
     19 C13        12.2580    7.4580    2.1530 c3        1 PEX     -0.093100
     20 O6          1.2580   -0.8460    2.9460 os        1 PEX     -0.424900
     21 C14         0.0760   -0.5890    3.5910 c         1 PEX      0.643100
     22 O7         -0.8130   -1.4420    3.5470 o         1 PEX     -0.548000
     23 C15         0.0760    0.7510    4.2570 c3        1 PEX     -0.126400
     24 C16        -0.8540    0.7680    5.4510 c3        1 PEX     -0.079400
     25 C17        -0.9460    2.1600    6.0380 c3        1 PEX     -0.078400
     26 C18        -1.8640    2.1830    7.2420 c3        1 PEX     -0.079400
     27 C19        -1.9640    3.5740    7.8290 c3        1 PEX     -0.078400
     28 C20        -2.8810    3.5970    9.0330 c3        1 PEX     -0.079400
     29 C21        -2.9820    4.9880    9.6200 c3        1 PEX     -0.079400
     30 C22        -3.9000    5.0130   10.8240 c3        1 PEX     -0.080400
     31 C23        -4.0040    6.3960   11.4120 c3        1 PEX     -0.092100
     32 O8          0.7630    0.0480   -2.1540 os        1 PEX     -0.568200
     33 C24         0.5700   -0.2300   -3.5260 c3        1 PEX      0.165400
     34 C25         1.1170    0.9270   -4.3740 c3        1 PEX      0.142800
     35 N1          2.5550    1.0160   -4.3590 n8        1 PEX     -0.923800
     36 H1          0.8970   -2.9270    0.2760 h1        1 PEX      0.076200
     37 H2         -0.4530   -1.9600    1.0970 h1        1 PEX      0.076200
     38 H3          0.8710   -2.9070    2.8340 h1        1 PEX      0.084700
     39 H4          3.2410   -2.7070    3.1820 h1        1 PEX      0.082700
     40 H5          3.0420   -3.2250    1.4200 h1        1 PEX      0.082700
     41 H6          5.1850    0.3820    0.7870 hc        1 PEX      0.081700
     42 H7          4.2010    1.4750    1.8500 hc        1 PEX      0.081700
     43 H8          5.9980    1.2700    3.6510 hc        1 PEX      0.058700
     44 H9          6.9890    0.2750    2.5170 hc        1 PEX      0.058700
     45 H10         6.9830    2.1730    0.8490 hc        1 PEX      0.041700
     46 H11         6.0110    3.1720    1.9970 hc        1 PEX      0.041700
     47 H12         7.8400    2.9690    3.7190 hc        1 PEX      0.042700
     48 H13         8.8130    1.9750    2.5670 hc        1 PEX      0.042700
     49 H14         8.8060    3.8810    0.9190 hc        1 PEX      0.040200
     50 H15         7.8370    4.8750    2.0720 hc        1 PEX      0.040200
     51 H16        10.6390    3.6780    2.6340 hc        1 PEX      0.040700
     52 H17         9.6700    4.6700    3.7880 hc        1 PEX      0.040700
     53 H18        10.6330    5.5860    0.9890 hc        1 PEX      0.039700
     54 H19         9.6640    6.5790    2.1440 hc        1 PEX      0.039700
     55 H20        12.4650    5.3800    2.7010 hc        1 PEX      0.038700
     56 H21        11.4970    6.3720    3.8570 hc        1 PEX      0.038700
     57 H22        12.4920    7.3000    1.0730 hc        1 PEX      0.032700
     58 H23        11.5210    8.2940    2.2320 hc        1 PEX      0.032700
     59 H24        13.1960    7.7650    2.6760 hc        1 PEX      0.032700
     60 H25         1.1230    1.0140    4.5670 hc        1 PEX      0.081700
     61 H26        -0.2530    1.5040    3.4900 hc        1 PEX      0.081700
     62 H27        -0.4800    0.0520    6.2290 hc        1 PEX      0.058200
     63 H28        -1.8720    0.4140    5.1380 hc        1 PEX      0.058200
     64 H29         0.0760    2.5130    6.3370 hc        1 PEX      0.040700
     65 H30        -1.3290    2.8740    5.2610 hc        1 PEX      0.040700
     66 H31        -2.8850    1.8250    6.9430 hc        1 PEX      0.043200
     67 H32        -1.4800    1.4720    8.0210 hc        1 PEX      0.043200
     68 H33        -0.9430    3.9310    8.1280 hc        1 PEX      0.039700
     69 H34        -2.3470    4.2850    7.0500 hc        1 PEX      0.039700
     70 H35        -2.4970    2.8870    9.8120 hc        1 PEX      0.040700
     71 H36        -3.9020    3.2390    8.7340 hc        1 PEX      0.040700
     72 H37        -3.3660    5.6990    8.8410 hc        1 PEX      0.039700
     73 H38        -1.9620    5.3460    9.9190 hc        1 PEX      0.039700
     74 H39        -4.9200    4.6530   10.5230 hc        1 PEX      0.038700
     75 H40        -3.5150    4.3000   11.6010 hc        1 PEX      0.038700
     76 H41        -4.4090    7.1150   10.6600 hc        1 PEX      0.032700
     77 H42        -4.6850    6.3910   12.2970 hc        1 PEX      0.032700
     78 H43        -3.0010    6.7610   11.7410 hc        1 PEX      0.032700
     79 H44        -0.5420   -0.2910   -3.6980 h1        1 PEX      0.064200
     80 H45         1.0530   -1.2110   -3.7910 h1        1 PEX      0.064200
     81 H46         0.7870    0.7400   -5.4360 h1        1 PEX      0.038700
     82 H47         0.6140    1.8750   -4.0180 h1        1 PEX      0.038700
     83 H48         2.8710    1.6750   -5.0410 hn        1 PEX      0.357300
     84 H49         3.1960   -0.0320   -0.1270 ho        1 PEX      0.491000
     85 H131        2.8950    1.2880   -3.4580 hn        1 PEX      0.357300
@<TRIPOS>BOND
     1    1    3 2   
     2    2    3 1   
     3    2   84 1   
     4    3    4 1   
     5    3   32 1   
     6    4    5 1   
     7    5    6 1   
     8    5   36 1   
     9    5   37 1   
    10    6    7 1   
    11    6   20 1   
    12    6   38 1   
    13    7    8 1   
    14    7   39 1   
    15    7   40 1   
    16    8    9 1   
    17    9   10 2   
    18    9   11 1   
    19   11   12 1   
    20   11   41 1   
    21   11   42 1   
    22   12   13 1   
    23   12   43 1   
    24   12   44 1   
    25   13   14 1   
    26   13   45 1   
    27   13   46 1   
    28   14   15 1   
    29   14   47 1   
    30   14   48 1   
    31   15   16 1   
    32   15   49 1   
    33   15   50 1   
    34   16   17 1   
    35   16   51 1   
    36   16   52 1   
    37   17   18 1   
    38   17   53 1   
    39   17   54 1   
    40   18   19 1   
    41   18   55 1   
    42   18   56 1   
    43   19   57 1   
    44   19   58 1   
    45   19   59 1   
    46   20   21 1   
    47   21   22 2   
    48   21   23 1   
    49   23   24 1   
    50   23   60 1   
    51   23   61 1   
    52   24   25 1   
    53   24   62 1   
    54   24   63 1   
    55   25   26 1   
    56   25   64 1   
    57   25   65 1   
    58   26   27 1   
    59   26   66 1   
    60   26   67 1   
    61   27   28 1   
    62   27   68 1   
    63   27   69 1   
    64   28   29 1   
    65   28   70 1   
    66   28   71 1   
    67   29   30 1   
    68   29   72 1   
    69   29   73 1   
    70   30   31 1   
    71   30   74 1   
    72   30   75 1   
    73   31   76 1   
    74   31   77 1   
    75   31   78 1   
    76   32   33 1   
    77   33   34 1   
    78   33   79 1   
    79   33   80 1   
    80   34   35 1   
    81   34   81 1   
    82   34   82 1   
    83   35   83 1   
    84   35   85 1   
@<TRIPOS>SUBSTRUCTURE
     1 PEX         1 TEMP              0 ****  ****    0 ROOT
