@<TRIPOS>MOLECULE
PEX
   85    84     1     0     0
SMALL
bcc


@<TRIPOS>ATOM
      1 O1          2.0140   -0.6310   -0.4760 o         1 PEX     -0.811300
      2 O2          3.4900    1.4890    0.0470 oh        1 PEX     -0.752400
      3 P1          2.2440    0.5470    0.3460 p5        1 PEX      1.626500
      4 O3          2.4240    0.2890    1.9110 os        1 PEX     -0.545200
      5 C1          2.3340   -1.0700    2.2900 c3        1 PEX      0.134400
      6 C2          2.4650   -1.1950    3.8060 c3        1 PEX      0.132100
      7 C3          3.9080   -1.2040    4.3160 c3        1 PEX      0.136400
      8 O4          4.6340   -0.0350    3.9450 os        1 PEX     -0.417900
      9 C4          5.4030   -0.0760    2.8110 c         1 PEX      0.643100
     10 O5          5.4870   -1.1440    2.1980 o         1 PEX     -0.561000
     11 C5          6.0230    1.2460    2.4880 c3        1 PEX     -0.130400
     12 C6          7.4790    1.0840    2.1050 c3        1 PEX     -0.077400
     13 C7          8.0600    2.4020    1.6410 c3        1 PEX     -0.078400
     14 C8          9.5210    2.2540    1.2740 c3        1 PEX     -0.079400
     15 C9         10.1050    3.5700    0.8050 c3        1 PEX     -0.078400
     16 C10        11.5660    3.4220    0.4390 c3        1 PEX     -0.079400
     17 C11        12.1510    4.7370   -0.0290 c3        1 PEX     -0.079400
     18 C12        13.6120    4.5910   -0.3960 c3        1 PEX     -0.080400
     19 C13        14.1990    5.8990   -0.8630 c3        1 PEX     -0.092100
     20 O6          1.8160   -0.1150    4.4920 os        1 PEX     -0.412900
     21 C14         0.4490   -0.0790    4.4740 c         1 PEX      0.639100
     22 O7         -0.1590   -0.9920    3.9090 o         1 PEX     -0.556000
     23 C15        -0.0960    1.1290    5.1700 c3        1 PEX     -0.126400
     24 C16        -1.3830    0.8060    5.8970 c3        1 PEX     -0.079400
     25 C17        -2.0010    2.0600    6.4780 c3        1 PEX     -0.078400
     26 C18        -3.2800    1.7420    7.2230 c3        1 PEX     -0.079400
     27 C19        -3.9030    2.9940    7.8010 c3        1 PEX     -0.078400
     28 C20        -5.1810    2.6760    8.5470 c3        1 PEX     -0.079400
     29 C21        -5.8050    3.9280    9.1260 c3        1 PEX     -0.079400
     30 C22        -7.0840    3.6120    9.8730 c3        1 PEX     -0.080400
     31 C23        -7.7080    4.8550   10.4500 c3        1 PEX     -0.092100
     32 O8          1.0690    1.6420    0.2850 os        1 PEX     -0.584200
     33 C24         0.1590    1.5840   -0.7890 c3        1 PEX      0.164400
     34 C25         0.3780    2.7730   -1.7390 c3        1 PEX      0.125800
     35 N1          1.6280    2.7040   -2.4550 n3        1 PEX     -0.940800
     36 H1          1.3330   -1.4590    1.9560 h1        1 PEX      0.073700
     37 H2          3.1610   -1.6370    1.7800 h1        1 PEX      0.073700
     38 H3          1.9750   -2.1660    4.1110 h1        1 PEX      0.074700
     39 H4          4.4190   -2.1320    3.9430 h1        1 PEX      0.077700
     40 H5          3.9090   -1.1670    5.4390 h1        1 PEX      0.077700
     41 H6          5.9180    1.9400    3.3620 hc        1 PEX      0.088200
     42 H7          5.4350    1.6760    1.6280 hc        1 PEX      0.088200
     43 H8          7.5670    0.3180    1.2890 hc        1 PEX      0.055200
     44 H9          8.0610    0.7030    2.9840 hc        1 PEX      0.055200
     45 H10         7.4850    2.7750    0.7520 hc        1 PEX      0.041200
     46 H11         7.9510    3.1700    2.4520 hc        1 PEX      0.041200
     47 H12         9.6290    1.4850    0.4640 hc        1 PEX      0.042200
     48 H13        10.0960    1.8820    2.1620 hc        1 PEX      0.042200
     49 H14         9.5300    3.9410   -0.0840 hc        1 PEX      0.039200
     50 H15         9.9950    4.3390    1.6150 hc        1 PEX      0.039200
     51 H16        12.1410    3.0500    1.3280 hc        1 PEX      0.040200
     52 H17        11.6750    2.6530   -0.3700 hc        1 PEX      0.040200
     53 H18        12.0420    5.5070    0.7800 hc        1 PEX      0.039200
     54 H19        11.5760    5.1090   -0.9180 hc        1 PEX      0.039200
     55 H20        13.7190    3.8200   -1.2040 hc        1 PEX      0.038700
     56 H21        14.1850    4.2180    0.4940 hc        1 PEX      0.038700
     57 H22        13.6570    6.2740   -1.7640 hc        1 PEX      0.032367
     58 H23        14.1230    6.6730   -0.0620 hc        1 PEX      0.032367
     59 H24        15.2760    5.7680   -1.1270 hc        1 PEX      0.032367
     60 H25        -0.2740    1.9120    4.3830 hc        1 PEX      0.081700
     61 H26         0.6720    1.5320    5.8830 hc        1 PEX      0.081700
     62 H27        -1.1780    0.0700    6.7180 hc        1 PEX      0.056700
     63 H28        -2.1020    0.3170    5.1860 hc        1 PEX      0.056700
     64 H29        -2.2180    2.7900    5.6540 hc        1 PEX      0.041200
     65 H30        -1.2720    2.5530    7.1740 hc        1 PEX      0.041200
     66 H31        -3.0630    1.0130    8.0490 hc        1 PEX      0.042200
     67 H32        -4.0070    1.2460    6.5270 hc        1 PEX      0.042200
     68 H33        -4.1210    3.7220    6.9760 hc        1 PEX      0.039700
     69 H34        -3.1750    3.4900    8.4960 hc        1 PEX      0.039700
     70 H35        -5.9090    2.1800    7.8530 hc        1 PEX      0.040200
     71 H36        -4.9640    1.9480    9.3730 hc        1 PEX      0.040200
     72 H37        -6.0230    4.6560    8.3000 hc        1 PEX      0.039700
     73 H38        -5.0780    4.4250    9.8210 hc        1 PEX      0.039700
     74 H39        -7.8090    3.1140    9.1760 hc        1 PEX      0.038700
     75 H40        -6.8640    2.8830   10.6970 hc        1 PEX      0.038700
     76 H41        -7.9570    5.5840    9.6420 hc        1 PEX      0.032700
     77 H42        -7.0100    5.3520   11.1660 hc        1 PEX      0.032700
     78 H43        -8.6490    4.6000   10.9960 hc        1 PEX      0.032700
     79 H44         0.2600    0.5970   -1.3220 h1        1 PEX      0.065200
     80 H45        -0.8720    1.6760   -0.3460 h1        1 PEX      0.065200
     81 H46        -0.5210    2.8130   -2.4220 h1        1 PEX      0.042700
     82 H47         0.3830    3.7160   -1.1210 h1        1 PEX      0.042700
     83 H48         1.7880    3.5460   -2.9700 hn        1 PEX      0.359800
     84 H49         1.6460    1.9240   -3.0810 hn        1 PEX      0.359800
     85 H131        3.2930    2.3480   -0.3270 ho        1 PEX      0.493000
@<TRIPOS>BOND
     1    1    3 2   
     2    2    3 1   
     3    2   85 1   
     4    3    4 1   
     5    3   32 1   
     6    4    5 1   
     7    5    6 1   
     8    5   36 1   
     9    5   37 1   
    10    6    7 1   
    11    6   20 1   
    12    6   38 1   
    13    7    8 1   
    14    7   39 1   
    15    7   40 1   
    16    8    9 1   
    17    9   10 2   
    18    9   11 1   
    19   11   12 1   
    20   11   41 1   
    21   11   42 1   
    22   12   13 1   
    23   12   43 1   
    24   12   44 1   
    25   13   14 1   
    26   13   45 1   
    27   13   46 1   
    28   14   15 1   
    29   14   47 1   
    30   14   48 1   
    31   15   16 1   
    32   15   49 1   
    33   15   50 1   
    34   16   17 1   
    35   16   51 1   
    36   16   52 1   
    37   17   18 1   
    38   17   53 1   
    39   17   54 1   
    40   18   19 1   
    41   18   55 1   
    42   18   56 1   
    43   19   57 1   
    44   19   58 1   
    45   19   59 1   
    46   20   21 1   
    47   21   22 2   
    48   21   23 1   
    49   23   24 1   
    50   23   60 1   
    51   23   61 1   
    52   24   25 1   
    53   24   62 1   
    54   24   63 1   
    55   25   26 1   
    56   25   64 1   
    57   25   65 1   
    58   26   27 1   
    59   26   66 1   
    60   26   67 1   
    61   27   28 1   
    62   27   68 1   
    63   27   69 1   
    64   28   29 1   
    65   28   70 1   
    66   28   71 1   
    67   29   30 1   
    68   29   72 1   
    69   29   73 1   
    70   30   31 1   
    71   30   74 1   
    72   30   75 1   
    73   31   76 1   
    74   31   77 1   
    75   31   78 1   
    76   32   33 1   
    77   33   34 1   
    78   33   79 1   
    79   33   80 1   
    80   34   35 1   
    81   34   81 1   
    82   34   82 1   
    83   35   83 1   
    84   35   84 1   
@<TRIPOS>SUBSTRUCTURE
     1 PEX         1 TEMP              0 ****  ****    0 ROOT
