@<TRIPOS>MOLECULE
PEX
   85    84     1     0     0
SMALL
bcc


@<TRIPOS>ATOM
      1 O1          0.6080   -1.3320   -0.9650 o         1 PEX     -0.803300
      2 O2          3.1510   -1.9200   -0.5520 oh        1 PEX     -0.754400
      3 P1          1.9870   -0.8880   -0.8410 p5        1 PEX      1.635500
      4 O3          2.2670    0.1090    0.3890 os        1 PEX     -0.589200
      5 C1          1.1930    0.5440    1.1840 c3        1 PEX      0.173400
      6 C2          1.3270   -0.0180    2.6100 c3        1 PEX      0.110100
      7 C3          2.7630   -0.2820    3.0590 c3        1 PEX      0.119400
      8 O4          3.5800    0.8700    2.8500 os        1 PEX     -0.426900
      9 C4          4.6120    0.7940    1.9560 c         1 PEX      0.665100
     10 O5          4.8620   -0.2850    1.4100 o         1 PEX     -0.579000
     11 C5          5.3120    2.1070    1.7870 c3        1 PEX     -0.128400
     12 C6          6.8140    1.9210    1.7480 c3        1 PEX     -0.079400
     13 C7          7.5090    3.2300    1.4420 c3        1 PEX     -0.078400
     14 C8          9.0130    3.0570    1.4230 c3        1 PEX     -0.079400
     15 C9          9.7110    4.3640    1.1140 c3        1 PEX     -0.079400
     16 C10        11.2140    4.1920    1.0970 c3        1 PEX     -0.079400
     17 C11        11.9130    5.4990    0.7880 c3        1 PEX     -0.079400
     18 C12        13.4180    5.3280    0.7720 c3        1 PEX     -0.080400
     19 C13        14.1180    6.6270    0.4640 c3        1 PEX     -0.093100
     20 O6          0.7130    0.9880    3.4360 os        1 PEX     -0.437900
     21 C14         0.2580    0.6110    4.6720 c         1 PEX      0.638100
     22 O7          0.4030   -0.5610    5.0210 o         1 PEX     -0.543000
     23 C15        -0.3490    1.7550    5.4240 c3        1 PEX     -0.126400
     24 C16        -1.5360    1.2960    6.2440 c3        1 PEX     -0.080400
     25 C17        -2.0560    2.4230    7.1110 c3        1 PEX     -0.078400
     26 C18        -3.2530    1.9760    7.9230 c3        1 PEX     -0.079400
     27 C19        -3.7710    3.0980    8.7960 c3        1 PEX     -0.078400
     28 C20        -4.9690    2.6530    9.6080 c3        1 PEX     -0.079400
     29 C21        -5.4870    3.7740   10.4830 c3        1 PEX     -0.079400
     30 C22        -6.6840    3.3300   11.2960 c3        1 PEX     -0.080400
     31 C23        -7.2030    4.4420   12.1690 c3        1 PEX     -0.092100
     32 O8          2.5680   -0.0510   -2.0740 os        1 PEX     -0.581200
     33 C24         1.9550   -0.2140   -3.3350 c3        1 PEX      0.167400
     34 C25         2.9920   -0.6890   -4.3640 c3        1 PEX      0.142800
     35 N1          3.4360   -2.0410   -4.1400 n3        1 PEX     -0.923800
     36 H1          0.2180    0.2110    0.7310 h1        1 PEX      0.074200
     37 H2          1.2430    1.6680    1.2290 h1        1 PEX      0.074200
     38 H3          0.7520   -0.9820    2.7160 h1        1 PEX      0.084700
     39 H4          3.1670   -1.1770    2.5180 h1        1 PEX      0.080200
     40 H5          2.7820   -0.4540    4.1710 h1        1 PEX      0.080200
     41 H6          4.9470    2.5530    0.8230 hc        1 PEX      0.081200
     42 H7          5.0220    2.8010    2.6200 hc        1 PEX      0.081200
     43 H8          7.0760    1.1560    0.9690 hc        1 PEX      0.056700
     44 H9          7.1710    1.5250    2.7350 hc        1 PEX      0.056700
     45 H10         7.1620    3.6180    0.4470 hc        1 PEX      0.041200
     46 H11         7.2280    3.9960    2.2120 hc        1 PEX      0.041200
     47 H12         9.2930    2.2890    0.6540 hc        1 PEX      0.042200
     48 H13         9.3600    2.6710    2.4180 hc        1 PEX      0.042200
     49 H14         9.4280    5.1320    1.8810 hc        1 PEX      0.039700
     50 H15         9.3650    4.7490    0.1180 hc        1 PEX      0.039700
     51 H16        11.4970    3.4240    0.3300 hc        1 PEX      0.040200
     52 H17        11.5600    3.8070    2.0930 hc        1 PEX      0.040200
     53 H18        11.5690    5.8830   -0.2080 hc        1 PEX      0.039700
     54 H19        11.6310    6.2670    1.5550 hc        1 PEX      0.039700
     55 H20        13.7600    4.9420    1.7690 hc        1 PEX      0.038700
     56 H21        13.6980    4.5580    0.0060 hc        1 PEX      0.038700
     57 H22        13.8080    7.0150   -0.5360 hc        1 PEX      0.032700
     58 H23        15.2250    6.4790    0.4580 hc        1 PEX      0.032700
     59 H24        13.8700    7.4000    1.2310 hc        1 PEX      0.032700
     60 H25        -0.6530    2.5610    4.7050 hc        1 PEX      0.079700
     61 H26         0.4500    2.1750    6.0920 hc        1 PEX      0.079700
     62 H27        -1.2330    0.4250    6.8850 hc        1 PEX      0.058700
     63 H28        -2.3500    0.9370    5.5610 hc        1 PEX      0.058700
     64 H29        -2.3420    3.2950    6.4660 hc        1 PEX      0.041200
     65 H30        -1.2430    2.7730    7.8020 hc        1 PEX      0.041200
     66 H31        -2.9670    1.1010    8.5640 hc        1 PEX      0.043200
     67 H32        -4.0670    1.6290    7.2330 hc        1 PEX      0.043200
     68 H33        -4.0560    3.9740    8.1550 hc        1 PEX      0.039700
     69 H34        -2.9570    3.4450    9.4860 hc        1 PEX      0.039700
     70 H35        -4.6840    1.7770   10.2490 hc        1 PEX      0.040700
     71 H36        -5.7830    2.3070    8.9190 hc        1 PEX      0.040700
     72 H37        -5.7720    4.6500    9.8430 hc        1 PEX      0.039700
     73 H38        -4.6720    4.1200   11.1730 hc        1 PEX      0.039700
     74 H39        -6.3980    2.4520   11.9340 hc        1 PEX      0.038700
     75 H40        -7.4970    2.9830   10.6050 hc        1 PEX      0.038700
     76 H41        -6.4150    4.7850   12.8830 hc        1 PEX      0.032700
     77 H42        -8.0850    4.0940   12.7590 hc        1 PEX      0.032700
     78 H43        -7.5170    5.3170   11.5500 hc        1 PEX      0.032700
     79 H44         1.0890   -0.9270   -3.2520 h1        1 PEX      0.062200
     80 H45         1.5860    0.8000   -3.6600 h1        1 PEX      0.062200
     81 H46         3.8400    0.0580   -4.3610 h1        1 PEX      0.037700
     82 H47         2.4950   -0.6430   -5.3750 h1        1 PEX      0.037700
     83 H48         3.9950   -2.1110   -3.3130 hn        1 PEX      0.357300
     84 H49         3.9650   -2.3710   -4.9230 hn        1 PEX      0.357300
     85 H131        3.9020   -1.6000   -0.0430 ho        1 PEX      0.509000
@<TRIPOS>BOND
     1    1    3 2   
     2    2    3 1   
     3    2   85 1   
     4    3    4 1   
     5    3   32 1   
     6    4    5 1   
     7    5    6 1   
     8    5   36 1   
     9    5   37 1   
    10    6    7 1   
    11    6   20 1   
    12    6   38 1   
    13    7    8 1   
    14    7   39 1   
    15    7   40 1   
    16    8    9 1   
    17    9   10 2   
    18    9   11 1   
    19   11   12 1   
    20   11   41 1   
    21   11   42 1   
    22   12   13 1   
    23   12   43 1   
    24   12   44 1   
    25   13   14 1   
    26   13   45 1   
    27   13   46 1   
    28   14   15 1   
    29   14   47 1   
    30   14   48 1   
    31   15   16 1   
    32   15   49 1   
    33   15   50 1   
    34   16   17 1   
    35   16   51 1   
    36   16   52 1   
    37   17   18 1   
    38   17   53 1   
    39   17   54 1   
    40   18   19 1   
    41   18   55 1   
    42   18   56 1   
    43   19   57 1   
    44   19   58 1   
    45   19   59 1   
    46   20   21 1   
    47   21   22 2   
    48   21   23 1   
    49   23   24 1   
    50   23   60 1   
    51   23   61 1   
    52   24   25 1   
    53   24   62 1   
    54   24   63 1   
    55   25   26 1   
    56   25   64 1   
    57   25   65 1   
    58   26   27 1   
    59   26   66 1   
    60   26   67 1   
    61   27   28 1   
    62   27   68 1   
    63   27   69 1   
    64   28   29 1   
    65   28   70 1   
    66   28   71 1   
    67   29   30 1   
    68   29   72 1   
    69   29   73 1   
    70   30   31 1   
    71   30   74 1   
    72   30   75 1   
    73   31   76 1   
    74   31   77 1   
    75   31   78 1   
    76   32   33 1   
    77   33   34 1   
    78   33   79 1   
    79   33   80 1   
    80   34   35 1   
    81   34   81 1   
    82   34   82 1   
    83   35   83 1   
    84   35   84 1   
@<TRIPOS>SUBSTRUCTURE
     1 PEX         1 TEMP              0 ****  ****    0 ROOT
