@<TRIPOS>MOLECULE
PEX
   84    83     1     0     0
SMALL
bcc


@<TRIPOS>ATOM
      1 O1          0.6900    3.7780    2.1250 o         1 PEX     -0.827000
      2 O2          2.2160    4.8110    0.2370 o         1 PEX     -0.827000
      3 P1          1.4250    3.7280    0.8490 p5        1 PEX      1.427800
      4 O3          0.4030    3.0940   -0.2790 os        1 PEX     -0.560200
      5 C1         -0.4470    2.1240    0.2590 c3        1 PEX      0.181400
      6 C2         -1.2040    1.4600   -0.8990 c3        1 PEX      0.136100
      7 C3         -0.2940    0.6700   -1.8350 c3        1 PEX      0.126400
      8 O4          0.5740   -0.1420   -1.0350 os        1 PEX     -0.442900
      9 C4          1.8750   -0.2640   -1.4510 c         1 PEX      0.653100
     10 O5          2.1280   -0.0730   -2.6430 o         1 PEX     -0.560000
     11 C5          2.7920   -0.6280   -0.3290 c3        1 PEX     -0.149400
     12 C6          4.1250   -1.1310   -0.8360 c3        1 PEX     -0.074400
     13 C7          5.0830   -1.3570    0.3140 c3        1 PEX     -0.080400
     14 C8          6.4140   -1.8830   -0.1790 c3        1 PEX     -0.078400
     15 C9          7.3750   -2.1080    0.9680 c3        1 PEX     -0.079400
     16 C10         8.7060   -2.6340    0.4760 c3        1 PEX     -0.078400
     17 C11         9.6670   -2.8580    1.6240 c3        1 PEX     -0.079400
     18 C12        10.9990   -3.3840    1.1330 c3        1 PEX     -0.080400
     19 C13        11.9590   -3.6100    2.2720 c3        1 PEX     -0.091100
     20 O6         -2.1540    0.5810   -0.2590 os        1 PEX     -0.425900
     21 C14        -3.2600    0.2120   -0.9580 c         1 PEX      0.633100
     22 O7         -3.4290    0.6250   -2.1090 o         1 PEX     -0.563000
     23 C15        -4.1440   -0.7100   -0.1710 c3        1 PEX     -0.130400
     24 C16        -5.6050   -0.4460   -0.4660 c3        1 PEX     -0.078400
     25 C17        -6.4860   -1.4680    0.2200 c3        1 PEX     -0.078400
     26 C18        -7.9500   -1.1980   -0.0560 c3        1 PEX     -0.079400
     27 C19        -8.8350   -2.2210    0.6230 c3        1 PEX     -0.078400
     28 C20       -10.2990   -1.9500    0.3480 c3        1 PEX     -0.079400
     29 C21       -11.1840   -2.9730    1.0270 c3        1 PEX     -0.079400
     30 C22       -12.6480   -2.7040    0.7530 c3        1 PEX     -0.080400
     31 C23       -13.5340   -3.7200    1.4270 c3        1 PEX     -0.092100
     32 O8          2.4720    2.4340    0.9100 os        1 PEX     -0.591200
     33 C24         3.7110    2.7030    1.4840 c3        1 PEX      0.161400
     34 C25         4.8450    2.6910    0.4400 c3        1 PEX      0.132800
     35 N1          4.8550    3.7470   -0.5400 n3        1 PEX     -0.907800
     36 H1         -1.1680    2.6130    0.9690 h1        1 PEX      0.051200
     37 H2          0.1610    1.3610    0.8170 h1        1 PEX      0.051200
     38 H3         -1.7530    2.2290   -1.5080 h1        1 PEX      0.080700
     39 H4          0.3020    1.3890   -2.4580 h1        1 PEX      0.068200
     40 H5         -0.8920   -0.0180   -2.4880 h1        1 PEX      0.068200
     41 H6          2.2970   -1.3900    0.3260 hc        1 PEX      0.101700
     42 H7          2.9270    0.3140    0.2850 hc        1 PEX      0.101700
     43 H8          4.5560   -0.3810   -1.5510 hc        1 PEX      0.050200
     44 H9          3.9790   -2.0860   -1.4070 hc        1 PEX      0.050200
     45 H10         4.6360   -2.0850    1.0420 hc        1 PEX      0.043200
     46 H11         5.2390   -0.3900    0.8640 hc        1 PEX      0.043200
     47 H12         6.8590   -1.1530   -0.9060 hc        1 PEX      0.039200
     48 H13         6.2570   -2.8460   -0.7330 hc        1 PEX      0.039200
     49 H14         6.9280   -2.8360    1.6960 hc        1 PEX      0.040200
     50 H15         7.5320   -1.1430    1.5200 hc        1 PEX      0.040200
     51 H16         9.1520   -1.9040   -0.2500 hc        1 PEX      0.037700
     52 H17         8.5490   -3.5970   -0.0770 hc        1 PEX      0.037700
     53 H18         9.2210   -3.5870    2.3510 hc        1 PEX      0.039200
     54 H19         9.8240   -1.8950    2.1760 hc        1 PEX      0.039200
     55 H20        11.4430   -2.6540    0.4050 hc        1 PEX      0.037200
     56 H21        10.8400   -4.3460    0.5780 hc        1 PEX      0.037200
     57 H22        12.1490   -2.6560    2.8220 hc        1 PEX      0.029700
     58 H23        11.5450   -4.3530    2.9960 hc        1 PEX      0.029700
     59 H24        12.9340   -3.9970    1.8890 hc        1 PEX      0.029700
     60 H25        -3.8690   -1.7610   -0.4560 hc        1 PEX      0.075200
     61 H26        -3.9330   -0.5870    0.9250 hc        1 PEX      0.075200
     62 H27        -5.8770    0.5850   -0.1170 hc        1 PEX      0.056700
     63 H28        -5.7720   -0.4750   -1.5750 hc        1 PEX      0.056700
     64 H29        -6.2200   -2.4970   -0.1380 hc        1 PEX      0.039200
     65 H30        -6.3010   -1.4440    1.3260 hc        1 PEX      0.039200
     66 H31        -8.2170   -0.1700    0.3050 hc        1 PEX      0.041700
     67 H32        -8.1330   -1.2170   -1.1630 hc        1 PEX      0.041700
     68 H33        -8.5680   -3.2490    0.2620 hc        1 PEX      0.038700
     69 H34        -8.6500   -2.2020    1.7300 hc        1 PEX      0.038700
     70 H35       -10.5650   -0.9220    0.7100 hc        1 PEX      0.039200
     71 H36       -10.4830   -1.9690   -0.7580 hc        1 PEX      0.039200
     72 H37       -10.9170   -4.0010    0.6650 hc        1 PEX      0.038700
     73 H38       -11.0000   -2.9550    2.1340 hc        1 PEX      0.038700
     74 H39       -12.9120   -1.6750    1.1140 hc        1 PEX      0.038200
     75 H40       -12.8300   -2.7210   -0.3550 hc        1 PEX      0.038200
     76 H41       -13.3850   -3.7000    2.5330 hc        1 PEX      0.030367
     77 H42       -14.6080   -3.5020    1.2120 hc        1 PEX      0.030367
     78 H43       -13.3020   -4.7490    1.0610 hc        1 PEX      0.030367
     79 H44         3.6870    3.6950    2.0160 h1        1 PEX      0.014700
     80 H45         3.9260    1.8910    2.2370 h1        1 PEX      0.014700
     81 H46         5.8170    2.7480    1.0080 h1        1 PEX      0.027200
     82 H47         4.8130    1.7010   -0.0970 h1        1 PEX      0.027200
     83 H48         4.1350    3.5900   -1.2220 hn        1 PEX      0.361800
     84 H49         4.6470    4.6290   -0.1020 hn        1 PEX      0.361800
@<TRIPOS>BOND
     1    1    3 1   
     2    2    3 1   
     3    3    4 1   
     4    3   32 1   
     5    4    5 1   
     6    5    6 1   
     7    5   36 1   
     8    5   37 1   
     9    6    7 1   
    10    6   20 1   
    11    6   38 1   
    12    7    8 1   
    13    7   39 1   
    14    7   40 1   
    15    8    9 1   
    16    9   10 2   
    17    9   11 1   
    18   11   12 1   
    19   11   41 1   
    20   11   42 1   
    21   12   13 1   
    22   12   43 1   
    23   12   44 1   
    24   13   14 1   
    25   13   45 1   
    26   13   46 1   
    27   14   15 1   
    28   14   47 1   
    29   14   48 1   
    30   15   16 1   
    31   15   49 1   
    32   15   50 1   
    33   16   17 1   
    34   16   51 1   
    35   16   52 1   
    36   17   18 1   
    37   17   53 1   
    38   17   54 1   
    39   18   19 1   
    40   18   55 1   
    41   18   56 1   
    42   19   57 1   
    43   19   58 1   
    44   19   59 1   
    45   20   21 1   
    46   21   22 2   
    47   21   23 1   
    48   23   24 1   
    49   23   60 1   
    50   23   61 1   
    51   24   25 1   
    52   24   62 1   
    53   24   63 1   
    54   25   26 1   
    55   25   64 1   
    56   25   65 1   
    57   26   27 1   
    58   26   66 1   
    59   26   67 1   
    60   27   28 1   
    61   27   68 1   
    62   27   69 1   
    63   28   29 1   
    64   28   70 1   
    65   28   71 1   
    66   29   30 1   
    67   29   72 1   
    68   29   73 1   
    69   30   31 1   
    70   30   74 1   
    71   30   75 1   
    72   31   76 1   
    73   31   77 1   
    74   31   78 1   
    75   32   33 1   
    76   33   34 1   
    77   33   79 1   
    78   33   80 1   
    79   34   35 1   
    80   34   81 1   
    81   34   82 1   
    82   35   83 1   
    83   35   84 1   
@<TRIPOS>SUBSTRUCTURE
     1 PEX         1 TEMP              0 ****  ****    0 ROOT
