@<TRIPOS>MOLECULE
PEY
   24    26     1     0     0
SMALL
bcc


@<TRIPOS>ATOM
      1 C1         -1.4810   -1.5690   -0.0000 ca        1 PEY     -0.119000
      2 C2         -2.8620   -1.5350   -0.0000 ca        1 PEY     -0.128000
      3 C3         -3.5430   -0.3050   -0.0010 ca        1 PEY     -0.127000
      4 C4         -2.8280    0.8750   -0.0000 ca        1 PEY     -0.118000
      5 C5         -1.4150    0.8600   -0.0000 ca        1 PEY     -0.036000
      6 C6         -0.7230   -0.3760   -0.0000 ca        1 PEY     -0.019000
      7 C7          0.7230   -0.3760   -0.0000 ca        1 PEY     -0.019000
      8 C8          1.4150    0.8600   -0.0000 ca        1 PEY     -0.036000
      9 C9          0.6780    2.0910   -0.0000 ca        1 PEY     -0.116000
     10 C10        -0.6780    2.0910   -0.0000 ca        1 PEY     -0.116000
     11 C11         1.4810   -1.5690   -0.0000 ca        1 PEY     -0.119000
     12 C12         2.8620   -1.5350    0.0000 ca        1 PEY     -0.128000
     13 C13         3.5430   -0.3050    0.0000 ca        1 PEY     -0.127000
     14 C14         2.8280    0.8750    0.0000 ca        1 PEY     -0.118000
     15 H1         -0.9720   -2.5440   -0.0000 ha        1 PEY      0.132000
     16 H2         -3.4380   -2.4720   -0.0010 ha        1 PEY      0.132000
     17 H3         -4.6430   -0.2930   -0.0010 ha        1 PEY      0.133000
     18 H4         -3.3490    1.8440   -0.0010 ha        1 PEY      0.133000
     19 H9          1.2490    3.0330   -0.0000 ha        1 PEY      0.133000
     20 H10        -1.2490    3.0330   -0.0000 ha        1 PEY      0.133000
     21 H11         0.9720   -2.5440   -0.0000 ha        1 PEY      0.132000
     22 H12         3.4380   -2.4720    0.0000 ha        1 PEY      0.132000
     23 H13         4.6430   -0.2930    0.0000 ha        1 PEY      0.133000
     24 H14         3.3490    1.8440    0.0000 ha        1 PEY      0.133000
@<TRIPOS>BOND
     1    1    2 ar  
     2    1    6 ar  
     3    1   15 1   
     4    2    3 ar  
     5    2   16 1   
     6    3    4 ar  
     7    3   17 1   
     8    4    5 ar  
     9    4   18 1   
    10    5    6 ar  
    11    5   10 ar  
    12    6    7 ar  
    13    7    8 ar  
    14    7   11 ar  
    15    8    9 ar  
    16    8   14 ar  
    17    9   10 ar  
    18    9   19 1   
    19   10   20 1   
    20   11   12 ar  
    21   11   21 1   
    22   12   13 ar  
    23   12   22 1   
    24   13   14 ar  
    25   13   23 1   
    26   14   24 1   
@<TRIPOS>SUBSTRUCTURE
     1 PEY         1 TEMP              0 ****  ****    0 ROOT
