@<TRIPOS>MOLECULE
PEZ
   17    16     1     0     0
SMALL
bcc


@<TRIPOS>ATOM
      1 O1         -0.1010    0.5920    0.1840 o         1 PEZ     -0.920300
      2 C1          1.0060   -0.0440    0.1110 c         1 PEZ      0.893600
      3 O2'         1.1890   -0.8580   -0.8520 o         1 PEZ     -0.920300
      4 C2          2.0200    0.0930    1.2840 c3        1 PEZ      0.157100
      5 O2          3.2640    0.5380    0.8950 os        1 PEZ     -0.568200
      6 P           4.0940    1.6780    1.8820 p5        1 PEZ      1.329900
      7 O1P         3.4030    1.6050    3.2280 o         1 PEZ     -0.953500
      8 O2P         5.5010    1.1200    1.8910 o         1 PEZ     -0.953500
      9 O3P         3.9690    3.0080    1.1800 o         1 PEZ     -0.953500
     10 C3          2.0760   -1.3320    1.8990 c3        1 PEZ     -0.090400
     11 C4          2.6090   -1.3770    3.3060 c3        1 PEZ     -0.085100
     12 H2          1.5850    0.7970    2.0520 h1        1 PEZ      0.028700
     13 H31         2.7000   -1.9700    1.2240 hc        1 PEZ      0.000200
     14 H32         1.0340   -1.7500    1.8920 hc        1 PEZ      0.000200
     15 H41         2.2090   -2.2690    3.8600 hc        1 PEZ      0.011700
     16 H42         2.3360   -0.4430    3.8590 hc        1 PEZ      0.011700
     17 H43         3.7230   -1.4470    3.3040 hc        1 PEZ      0.011700
@<TRIPOS>BOND
     1    1    2 1   
     2    2    3 1   
     3    2    4 1   
     4    4    5 1   
     5    4   10 1   
     6    4   12 1   
     7    5    6 1   
     8    6    7 1   
     9    6    8 1   
    10    6    9 1   
    11   10   11 1   
    12   10   13 1   
    13   10   14 1   
    14   11   15 1   
    15   11   16 1   
    16   11   17 1   
@<TRIPOS>SUBSTRUCTURE
     1 PEZ         1 TEMP              0 ****  ****    0 ROOT
