@<TRIPOS>MOLECULE
PEZ
   17    16     1     0     0
SMALL
bcc


@<TRIPOS>ATOM
      1 O1         -0.8220   -1.2380   -2.8160 o         1 PEZ     -0.920300
      2 C1         -0.5360   -0.1290   -2.2470 c         1 PEZ      0.893600
      3 O2'        -0.8070    0.9620   -2.8460 o         1 PEZ     -0.920300
      4 C2          0.2660   -0.1640   -0.9130 c3        1 PEZ      0.157100
      5 O2         -0.3640    0.4740    0.1320 os        1 PEZ     -0.568200
      6 P          -0.3150   -0.2340    1.7000 p5        1 PEZ      1.329900
      7 O1P         0.8210   -1.2330    1.6420 o         1 PEZ     -0.953500
      8 O2P        -0.0250    0.9650    2.5770 o         1 PEZ     -0.953500
      9 O3P        -1.6790   -0.8400    1.9280 o         1 PEZ     -0.953500
     10 C3          1.6210    0.5030   -1.2720 c3        1 PEZ     -0.090400
     11 C4          2.7380    0.1890   -0.3150 c3        1 PEZ     -0.085100
     12 H2          0.4600   -1.2430   -0.6400 h1        1 PEZ      0.028700
     13 H31         1.9130    0.1550   -2.2990 hc        1 PEZ      0.000200
     14 H32         1.4520    1.6080   -1.3280 hc        1 PEZ      0.000200
     15 H41         3.7380    0.2670   -0.8220 hc        1 PEZ      0.011700
     16 H42         2.7340    0.9020    0.5440 hc        1 PEZ      0.011700
     17 H43         2.6150   -0.8410    0.1070 hc        1 PEZ      0.011700
@<TRIPOS>BOND
     1    1    2 1   
     2    2    3 1   
     3    2    4 1   
     4    4    5 1   
     5    4   10 1   
     6    4   12 1   
     7    5    6 1   
     8    6    7 1   
     9    6    8 1   
    10    6    9 1   
    11   10   11 1   
    12   10   13 1   
    13   10   14 1   
    14   11   15 1   
    15   11   16 1   
    16   11   17 1   
@<TRIPOS>SUBSTRUCTURE
     1 PEZ         1 TEMP              0 ****  ****    0 ROOT
