@<TRIPOS>MOLECULE
PEZ
   17    16     1     0     0
SMALL
bcc


@<TRIPOS>ATOM
      1 O1         -0.0320    0.6380    0.1010 o         1 PEZ     -0.920300
      2 C1          1.0380   -0.0590    0.0830 c         1 PEZ      0.893600
      3 O2'         1.1900   -0.9350   -0.8300 o         1 PEZ     -0.920300
      4 C2          2.0410    0.0870    1.2640 c3        1 PEZ      0.157100
      5 O2          3.3130    0.4410    0.8740 os        1 PEZ     -0.568200
      6 P           4.1910    1.5880    1.8110 p5        1 PEZ      1.329900
      7 O1P         3.4770    1.6290    3.1460 o         1 PEZ     -0.953500
      8 O2P         5.5640    0.9560    1.8760 o         1 PEZ     -0.953500
      9 O3P         4.1500    2.8820    1.0340 o         1 PEZ     -0.953500
     10 C3          2.0090   -1.3010    1.9590 c3        1 PEZ     -0.090400
     11 C4          2.5180   -1.2960    3.3750 c3        1 PEZ     -0.085100
     12 H2          1.6350    0.8570    1.9840 h1        1 PEZ      0.028700
     13 H31         2.6050   -2.0100    1.3310 hc        1 PEZ      0.000200
     14 H32         0.9450   -1.6610    1.9560 hc        1 PEZ      0.000200
     15 H41         3.6260   -1.4270    3.3970 hc        1 PEZ      0.011700
     16 H42         2.2880   -0.3180    3.8700 hc        1 PEZ      0.011700
     17 H43         2.0610   -2.1310    3.9710 hc        1 PEZ      0.011700
@<TRIPOS>BOND
     1    1    2 1   
     2    2    3 1   
     3    2    4 1   
     4    4    5 1   
     5    4   10 1   
     6    4   12 1   
     7    5    6 1   
     8    6    7 1   
     9    6    8 1   
    10    6    9 1   
    11   10   11 1   
    12   10   13 1   
    13   10   14 1   
    14   11   15 1   
    15   11   16 1   
    16   11   17 1   
@<TRIPOS>SUBSTRUCTURE
     1 PEZ         1 TEMP              0 ****  ****    0 ROOT
