@<TRIPOS>MOLECULE
PF
   28    30     1     0     0
SMALL
bcc


@<TRIPOS>ATOM
      1 C1          2.4760    1.6160    0.0000 ca        1 PF      -0.011000
      2 C2          3.6510    0.9280    0.0000 ca        1 PF      -0.207000
      3 C3          3.6590   -0.5190    0.0000 ca        1 PF       0.307600
      4 C4          2.4240   -1.2060    0.0000 ca        1 PF      -0.324000
      5 C5         -2.4240   -1.2060   -0.0000 ca        1 PF      -0.324000
      6 C6         -3.6590   -0.5190   -0.0000 ca        1 PF       0.307600
      7 C7         -3.6510    0.9280    0.0000 ca        1 PF      -0.207000
      8 C8         -2.4760    1.6160    0.0000 ca        1 PF      -0.011000
      9 C9          0.0000    1.6410    0.0000 ca        1 PF       0.086000
     10 N10        -0.0000   -1.1600    0.0000 na        1 PF      -0.185100
     11 C11         1.2120   -0.4910    0.0000 ca        1 PF       0.159700
     12 C12        -1.2150    0.9480    0.0000 ca        1 PF      -0.180000
     13 C13         1.2150    0.9480    0.0000 ca        1 PF      -0.180000
     14 C14        -1.2120   -0.4910    0.0000 ca        1 PF       0.159700
     15 N15         4.8370   -1.1920    0.0000 nh        1 PF      -0.830200
     16 N16        -4.8370   -1.1920   -0.0000 nh        1 PF      -0.830200
     17 H1          2.4760    2.7200    0.0010 ha        1 PF       0.161000
     18 H2          4.6110    1.4700    0.0010 ha        1 PF       0.164000
     19 H4          2.4130   -2.3070    0.0000 ha        1 PF       0.157000
     20 H5         -2.4130   -2.3070   -0.0000 ha        1 PF       0.157000
     21 H7         -4.6110    1.4700    0.0000 ha        1 PF       0.164000
     22 H8         -2.4760    2.7200    0.0000 ha        1 PF       0.161000
     23 H9          0.0000    2.7470    0.0000 ha        1 PF       0.166000
     24 H10        -0.0000   -2.1600   -0.0000 hn        1 PF       0.318700
     25 H151        5.6970   -0.6990    0.0000 hn        1 PF       0.455300
     26 H152        4.8530   -2.1830    0.0000 hn        1 PF       0.455300
     27 H161       -5.6970   -0.6990   -0.0000 hn        1 PF       0.455300
     28 H162       -4.8530   -2.1830   -0.0000 hn        1 PF       0.455300
@<TRIPOS>BOND
     1    1    2 ar  
     2    1   13 ar  
     3    1   17 1   
     4    2    3 ar  
     5    2   18 1   
     6    3    4 ar  
     7    3   15 1   
     8    4   11 ar  
     9    4   19 1   
    10    5    6 ar  
    11    5   14 ar  
    12    5   20 1   
    13    6    7 ar  
    14    6   16 1   
    15    7    8 ar  
    16    7   21 1   
    17    8   12 ar  
    18    8   22 1   
    19    9   12 ar  
    20    9   13 ar  
    21    9   23 1   
    22   10   11 1   
    23   10   14 2   
    24   10   24 1   
    25   11   13 ar  
    26   12   14 ar  
    27   15   25 1   
    28   15   26 1   
    29   16   27 1   
    30   16   28 1   
@<TRIPOS>SUBSTRUCTURE
     1 PF          1 TEMP              0 ****  ****    0 ROOT
