@<TRIPOS>MOLECULE
PF
   30    32     1     0     0
SMALL
bcc


@<TRIPOS>ATOM
      1 C1          0.0270    0.0560   -0.0170 ca        1 PF       0.003000
      2 C2          1.3990    0.0340   -0.0650 ca        1 PF      -0.128000
      3 C3          2.1440   -0.0060    1.1520 ca        1 PF       0.084600
      4 C4          1.5190   -0.0220    2.3890 ca        1 PF      -0.143000
      5 C5         -2.6160   -0.0070    5.0090 ca        1 PF      -0.143000
      6 C6         -4.0010    0.0160    5.0460 ca        1 PF       0.084600
      7 C7         -4.7830    0.0560    3.8530 ca        1 PF      -0.128000
      8 C8         -4.1550    0.0710    2.6330 ca        1 PF       0.003000
      9 C9         -2.0770    0.0640    1.2870 ca        1 PF       0.124000
     10 N10        -0.5740   -0.0130    3.6590 na        1 PF      -0.117100
     11 C11         0.0850    0.0020    2.4470 ca        1 PF       0.109700
     12 C12        -2.7320    0.0490    2.5330 ca        1 PF      -0.098000
     13 C13        -0.6700    0.0410    1.2270 ca        1 PF      -0.098000
     14 C14        -1.9510    0.0090    3.7370 ca        1 PF       0.109700
     15 N15         3.6080   -0.0290    1.0590 n4        1 PF      -0.728000
     16 N16        -4.7100    0.0010    6.3310 n4        1 PF      -0.728000
     17 H1         -0.5600    0.0870   -0.9590 ha        1 PF       0.216000
     18 H2          1.9120    0.0460   -1.0470 ha        1 PF       0.212000
     19 H4          2.0960   -0.0520    3.3330 ha        1 PF       0.194000
     20 H5         -2.0090   -0.0380    5.9340 ha        1 PF       0.194000
     21 H7         -5.8910    0.0740    3.8980 ha        1 PF       0.212000
     22 H8         -4.7560    0.1020    1.7000 ha        1 PF       0.216000
     23 H9         -2.6720    0.0950    0.3480 ha        1 PF       0.220000
     24 H10        -0.0350   -0.0410    4.5100 hn        1 PF       0.350700
     25 H151        3.9080   -0.8630    0.5250 hn        1 PF       0.496467
     26 H152        4.0440   -0.0570    1.9920 hn        1 PF       0.496467
     27 H161       -5.2960    0.8490    6.4140 hn        1 PF       0.496467
     28 H162       -4.0530   -0.0280    7.1240 hn        1 PF       0.496467
     29 H153        3.9370    0.8160    0.5610 hn        1 PF       0.496467
     30 H163       -5.3250   -0.8300    6.3770 hn        1 PF       0.496467
@<TRIPOS>BOND
     1    1    2 ar  
     2    1   13 ar  
     3    1   17 1   
     4    2    3 ar  
     5    2   18 1   
     6    3    4 ar  
     7    3   15 1   
     8    4   11 ar  
     9    4   19 1   
    10    5    6 ar  
    11    5   14 ar  
    12    5   20 1   
    13    6    7 ar  
    14    6   16 1   
    15    7    8 ar  
    16    7   21 1   
    17    8   12 ar  
    18    8   22 1   
    19    9   12 ar  
    20    9   13 ar  
    21    9   23 1   
    22   10   11 1   
    23   10   14 2   
    24   10   24 1   
    25   11   13 ar  
    26   12   14 ar  
    27   15   25 1   
    28   15   26 1   
    29   15   29 1   
    30   16   27 1   
    31   16   28 1   
    32   16   30 1   
@<TRIPOS>SUBSTRUCTURE
     1 PF          1 TEMP              0 ****  ****    0 ROOT
