@<TRIPOS>MOLECULE
PF
   28    30     1     0     0
SMALL
bcc


@<TRIPOS>ATOM
      1 C1          0.0360    0.0410   -0.0040 ca        1 PF      -0.011000
      2 C2          1.3970    0.0310   -0.0520 ca        1 PF      -0.207000
      3 C3          2.1780   -0.0000    1.1650 ca        1 PF       0.307600
      4 C4          1.5030   -0.0210    2.4050 ca        1 PF      -0.324000
      5 C5         -2.5920   -0.0440    5.0010 ca        1 PF      -0.324000
      6 C6         -4.0020   -0.0360    5.0820 ca        1 PF       0.307600
      7 C7         -4.7700   -0.0040    3.8560 ca        1 PF      -0.207000
      8 C8         -4.1460    0.0170    2.6460 ca        1 PF      -0.011000
      9 C9         -2.0690    0.0290    1.2990 ca        1 PF       0.086000
     10 N10        -0.5690   -0.0320    3.6650 na        1 PF      -0.185100
     11 C11         0.0960   -0.0110    2.4510 ca        1 PF       0.159700
     12 C12        -2.7240    0.0080    2.5350 ca        1 PF      -0.180000
     13 C13        -0.6720    0.0200    1.2340 ca        1 PF      -0.180000
     14 C14        -1.9500   -0.0230    3.7490 ca        1 PF       0.159700
     15 N15         3.5330   -0.0090    1.1020 nh        1 PF      -0.830200
     16 N16        -4.6370   -0.0560    6.2810 nh        1 PF      -0.830200
     17 H1         -0.5550    0.0650   -0.9370 ha        1 PF       0.161000
     18 H2          1.9180    0.0480   -1.0240 ha        1 PF       0.164000
     19 H4          2.0830   -0.0450    3.3410 ha        1 PF       0.157000
     20 H5         -1.9930   -0.0680    5.9250 ha        1 PF       0.157000
     21 H7         -5.8710    0.0030    3.9130 ha        1 PF       0.164000
     22 H8         -4.7380    0.0410    1.7140 ha        1 PF       0.161000
     23 H9         -2.6600    0.0530    0.3660 ha        1 PF       0.166000
     24 H10        -0.0340   -0.0530    4.5090 hn        1 PF       0.318700
     25 H151        3.9960    0.0050    0.2250 hn        1 PF       0.455300
     26 H152        4.0770   -0.0310    1.9300 hn        1 PF       0.455300
     27 H161       -4.1200   -0.0780    7.1260 hn        1 PF       0.455300
     28 H162       -5.6280   -0.0500    6.3260 hn        1 PF       0.455300
@<TRIPOS>BOND
     1    1    2 ar  
     2    1   13 ar  
     3    1   17 1   
     4    2    3 ar  
     5    2   18 1   
     6    3    4 ar  
     7    3   15 1   
     8    4   11 ar  
     9    4   19 1   
    10    5    6 ar  
    11    5   14 ar  
    12    5   20 1   
    13    6    7 ar  
    14    6   16 1   
    15    7    8 ar  
    16    7   21 1   
    17    8   12 ar  
    18    8   22 1   
    19    9   12 ar  
    20    9   13 ar  
    21    9   23 1   
    22   10   11 1   
    23   10   14 2   
    24   10   24 1   
    25   11   13 ar  
    26   12   14 ar  
    27   15   25 1   
    28   15   26 1   
    29   16   27 1   
    30   16   28 1   
@<TRIPOS>SUBSTRUCTURE
     1 PF          1 TEMP              0 ****  ****    0 ROOT
