@<TRIPOS>MOLECULE
PF0
   18    18     1     0     0
SMALL
bcc


@<TRIPOS>ATOM
      1 C1         -0.0170    0.1420   -0.0060 ca        1 PF0     -0.236000
      2 C2          1.3770    0.1010    0.0040 ca        1 PF0     -0.137000
      3 C3          2.0600    0.0250    1.2120 ca        1 PF0     -0.133000
      4 C4          1.3730   -0.0040    2.4340 ca        1 PF0     -0.096600
      5 C5         -0.0280    0.0330    2.4460 ca        1 PF0     -0.064300
      6 C6         -0.7060    0.1060    1.2110 ca        1 PF0      0.079100
      7 C7         -0.7830    0.0100    3.7200 c3        1 PF0     -0.036800
      8 C8          2.2060   -0.0820    3.7110 c         1 PF0      0.907200
      9 O1          3.3480   -0.6170    3.6230 o         1 PF0     -0.828800
     10 O2         -2.0920    0.1420    1.2470 oh        1 PF0     -0.516100
     11 O3          1.7340    0.3970    4.7800 o         1 PF0     -0.828800
     12 H36        -0.5690    0.2010   -0.9530 ha        1 PF0      0.102000
     13 H37         1.9270    0.1260   -0.9460 ha        1 PF0      0.104000
     14 H38         3.1610   -0.0290    1.2400 ha        1 PF0      0.150000
     15 H32        -1.8680   -0.1890    3.5500 hc        1 PF0      0.046700
     16 H33        -0.3590   -0.7700    4.4010 hc        1 PF0      0.046700
     17 H34        -0.6620    0.9950    4.2400 hc        1 PF0      0.046700
     18 H23        -2.3990    0.1610    0.3310 ho        1 PF0      0.393000
@<TRIPOS>BOND
     1    1    2 ar  
     2    1    6 ar  
     3    1   12 1   
     4    2    3 ar  
     5    2   13 1   
     6    3    4 ar  
     7    3   14 1   
     8    4    5 ar  
     9    4    8 1   
    10    5    6 ar  
    11    5    7 1   
    12    6   10 1   
    13    7   15 1   
    14    7   16 1   
    15    7   17 1   
    16    8    9 1   
    17    8   11 1   
    18   10   18 1   
@<TRIPOS>SUBSTRUCTURE
     1 PF0         1 TEMP              0 ****  ****    0 ROOT
