@<TRIPOS>MOLECULE
PF0
   18    18     1     0     0
SMALL
bcc


@<TRIPOS>ATOM
      1 C1         -2.1210   -1.2380   -0.0860 ca        1 PF0     -0.189000
      2 C2         -1.0600   -2.1390   -0.1570 ca        1 PF0     -0.131000
      3 C3          0.2520   -1.6820   -0.1010 ca        1 PF0     -0.142000
      4 C4          0.5380   -0.3140    0.0130 ca        1 PF0     -0.072600
      5 C5         -0.5120    0.6100    0.0850 ca        1 PF0     -0.128300
      6 C6         -1.8370    0.1270    0.0400 ca        1 PF0      0.091100
      7 C7         -0.2610    2.0650    0.2060 c3        1 PF0     -0.061800
      8 C8          2.0100    0.0870    0.0670 c         1 PF0      0.907200
      9 O1          2.7570   -0.5630    0.8510 o         1 PF0     -0.826800
     10 O2         -2.9450    0.9560    0.1140 oh        1 PF0     -0.531100
     11 O3          2.4140    1.0230   -0.6800 o         1 PF0     -0.826800
     12 H36        -3.1630   -1.5770   -0.1250 ha        1 PF0      0.120000
     13 H37        -1.2690   -3.2140   -0.2510 ha        1 PF0      0.106000
     14 H38         1.0960   -2.3880   -0.1280 ha        1 PF0      0.142000
     15 H32        -0.7740    2.6220   -0.6190 hc        1 PF0      0.044700
     16 H33        -0.6470    2.4490    1.1840 hc        1 PF0      0.044700
     17 H34         0.8380    2.2820    0.1390 hc        1 PF0      0.044700
     18 H23        -2.6280    1.8650    0.2030 ho        1 PF0      0.410000
@<TRIPOS>BOND
     1    1    2 ar  
     2    1    6 ar  
     3    1   12 1   
     4    2    3 ar  
     5    2   13 1   
     6    3    4 ar  
     7    3   14 1   
     8    4    5 ar  
     9    4    8 1   
    10    5    6 ar  
    11    5    7 1   
    12    6   10 1   
    13    7   15 1   
    14    7   16 1   
    15    7   17 1   
    16    8    9 1   
    17    8   11 1   
    18   10   18 1   
@<TRIPOS>SUBSTRUCTURE
     1 PF0         1 TEMP              0 ****  ****    0 ROOT
