@<TRIPOS>MOLECULE
PF0
   18    18     1     0     0
SMALL
bcc


@<TRIPOS>ATOM
      1 C1         -0.0160    0.1870   -0.0040 ca        1 PF0     -0.236000
      2 C2          1.3780    0.2060    0.0110 ca        1 PF0     -0.137000
      3 C3          2.0620    0.1210    1.2180 ca        1 PF0     -0.133000
      4 C4          1.3730    0.0230    2.4360 ca        1 PF0     -0.096600
      5 C5         -0.0290    0.0000    2.4440 ca        1 PF0     -0.064300
      6 C6         -0.7060    0.0820    1.2100 ca        1 PF0      0.079100
      7 C7         -0.7840   -0.0960    3.7130 c3        1 PF0     -0.036800
      8 C8          2.2050   -0.0590    3.7120 c         1 PF0      0.907200
      9 O1          3.3700   -0.5390    3.6120 o         1 PF0     -0.828800
     10 O2         -2.0920    0.0580    1.2410 oh        1 PF0     -0.516100
     11 O3          1.7110    0.3630    4.7950 o         1 PF0     -0.828800
     12 H36        -0.5670    0.2520   -0.9510 ha        1 PF0      0.102000
     13 H37         1.9290    0.2840   -0.9360 ha        1 PF0      0.104000
     14 H38         3.1630    0.1130    1.2480 ha        1 PF0      0.151000
     15 H32        -1.8600   -0.3350    3.5340 hc        1 PF0      0.046700
     16 H33        -0.3290   -0.8790    4.3710 hc        1 PF0      0.046700
     17 H34        -0.7070    0.8750    4.2660 hc        1 PF0      0.046700
     18 H23        -2.3980    0.0920    0.3250 ho        1 PF0      0.393000
@<TRIPOS>BOND
     1    1    2 ar  
     2    1    6 ar  
     3    1   12 1   
     4    2    3 ar  
     5    2   13 1   
     6    3    4 ar  
     7    3   14 1   
     8    4    5 ar  
     9    4    8 1   
    10    5    6 ar  
    11    5    7 1   
    12    6   10 1   
    13    7   15 1   
    14    7   16 1   
    15    7   17 1   
    16    8    9 1   
    17    8   11 1   
    18   10   18 1   
@<TRIPOS>SUBSTRUCTURE
     1 PF0         1 TEMP              0 ****  ****    0 ROOT
