@<TRIPOS>MOLECULE
PF0
   18    15     1     0     0
SMALL
bcc


@<TRIPOS>ATOM
      1 C1         -0.4650   -0.0150   -2.0140 c1        1 PF0     -0.183500
      2 C2          0.9210    0.0090   -2.0420 c1        1 PF0     -0.076500
      3 C3          1.6380    0.0090   -0.8560 c1        1 PF0     -0.076500
      4 C4          0.9700   -0.0140    0.3580 cg        1 PF0     -0.028200
      5 C5         -0.4150   -0.0380    0.3860 c1        1 PF0     -0.038100
      6 C6         -1.1330   -0.0380   -0.8000 c1        1 PF0      0.069600
      7 C7         -1.1440   -0.0630    1.7110 c3        1 PF0     -0.085000
      8 C8          1.7540   -0.0280    1.6520 c         1 PF0      0.858800
      9 O1          2.1760   -1.1170    2.1210 o         1 PF0     -0.826300
     10 O2         -2.5390   -0.0710   -0.7710 oh        1 PF0     -0.498600
     11 O3          1.9680    1.0480    2.2700 o         1 PF0     -0.826300
     12 H36        -0.9700   -0.0150   -2.8490 ha        1 PF0      0.045500
     13 H37         1.3910    0.0260   -2.8970 ha        1 PF0      0.064500
     14 H38         2.6140    0.0260   -0.8770 ha        1 PF0      0.064500
     15 H32        -0.5880   -0.5130    2.3820 hc        1 PF0      0.047367
     16 H33        -1.9900   -0.5480    1.6100 hc        1 PF0      0.047367
     17 H34        -1.3260    0.8550    2.0010 hc        1 PF0      0.047367
     18 H23        -2.8610    0.4870   -1.3830 ho        1 PF0      0.394000
@<TRIPOS>BOND
     1    1    6 3   
     2    1   12 1   
     3    2    3 3   
     4    2   13 1   
     5    3   14 1   
     6    4    5 3   
     7    4    8 1   
     8    5    7 1   
     9    6   10 1   
    10    7   15 1   
    11    7   16 1   
    12    7   17 1   
    13    8    9 1   
    14    8   11 1   
    15   10   18 1   
@<TRIPOS>SUBSTRUCTURE
     1 PF0         1 TEMP              0 ****  ****    0 ROOT
