@<TRIPOS>MOLECULE
PF1
   29    29     1     0     0
SMALL
bcc


@<TRIPOS>ATOM
      1 OAD        -1.2450    2.2480   -1.6150 oh        1 PF1     -0.594800
      2 CAG        -2.3120    2.1020   -0.7040 c3        1 PF1      0.107400
      3 CAH        -2.9030    0.6840   -0.7440 c3        1 PF1      0.054000
      4 NAO        -2.1900   -0.3160    0.0110 n         1 PF1     -0.497800
      5 CAE        -2.6810   -0.7490    1.2320 c         1 PF1      0.656900
      6 OAC        -2.1610   -1.6730    1.8750 o         1 PF1     -0.588100
      7 CAI        -1.0300   -0.9420   -0.5770 c3        1 PF1      0.153300
      8 C5          0.3120   -0.4190   -0.1680 ca        1 PF1     -0.400900
      9 C6          0.5060    0.6000    0.7790 ca        1 PF1      0.461200
     10 N1          1.7130    1.0630    1.1450 nb        1 PF1     -0.728000
     11 C2          2.7990    0.4710    0.5500 ca        1 PF1      0.684300
     12 CAA         4.1640    0.9770    0.9510 c3        1 PF1     -0.136400
     13 N3          2.7470   -0.5380   -0.3630 nb        1 PF1     -0.759000
     14 C4          1.5040   -0.9890   -0.7370 ca        1 PF1      0.671200
     15 NAB         1.4180   -1.9590   -1.7360 nh        1 PF1     -0.929500
     16 HOAD       -0.5210    1.6880   -1.3030 ho        1 PF1      0.409000
     17 HAG1       -1.9910    2.3850    0.3330 h1        1 PF1      0.053200
     18 HAG2       -3.0900    2.8290   -1.0650 h1        1 PF1      0.053200
     19 HAH1       -3.9620    0.7450   -0.3600 h1        1 PF1      0.059700
     20 HAH2       -2.9470    0.3620   -1.8260 h1        1 PF1      0.059700
     21 HAE        -3.5880   -0.2030    1.5830 h5        1 PF1      0.034200
     22 HAI1       -1.0680   -2.0410   -0.3010 h1        1 PF1      0.064700
     23 HAI2       -1.1140   -0.8520   -1.7020 h1        1 PF1      0.064700
     24 H6         -0.3520    1.0830    1.2830 h4        1 PF1      0.027100
     25 HAA1        4.2960    0.8530    2.0540 hc        1 PF1      0.063700
     26 HAA2        4.9770    0.4220    0.4240 hc        1 PF1      0.063700
     27 HAA3        4.2440    2.0630    0.6980 hc        1 PF1      0.063700
     28 HAB1        0.6370   -2.5700   -1.6580 hn        1 PF1      0.414800
     29 HAB2        2.2690   -2.4040   -1.9990 hn        1 PF1      0.414800
@<TRIPOS>BOND
     1    1    2 1   
     2    1   16 1   
     3    2    3 1   
     4    2   17 1   
     5    2   18 1   
     6    3    4 1   
     7    3   19 1   
     8    3   20 1   
     9    4    5 1   
    10    4    7 1   
    11    5    6 2   
    12    5   21 1   
    13    7    8 1   
    14    7   22 1   
    15    7   23 1   
    16    8    9 ar  
    17    8   14 ar  
    18    9   10 ar  
    19    9   24 1   
    20   10   11 ar  
    21   11   12 1   
    22   11   13 ar  
    23   12   25 1   
    24   12   26 1   
    25   12   27 1   
    26   13   14 ar  
    27   14   15 1   
    28   15   28 1   
    29   15   29 1   
@<TRIPOS>SUBSTRUCTURE
     1 PF1         1 TEMP              0 ****  ****    0 ROOT
