@<TRIPOS>MOLECULE
PF1
   31    31     1     0     0
SMALL
bcc


@<TRIPOS>ATOM
      1 OAD         1.3980    0.2100   -0.2830 oh        1 PF1     -0.665800
      2 CAG         2.5870    0.3070    0.4820 c3        1 PF1      0.108400
      3 CAH         2.2610    0.0130    1.9530 c3        1 PF1      0.098800
      4 NAO         1.2850   -1.1030    2.2020 n4        1 PF1     -0.616200
      5 CAE         1.5590   -2.2820    1.2820 c         1 PF1      0.550900
      6 OAC         1.7170   -3.3590    1.8190 o         1 PF1     -0.378100
      7 CAI        -0.1360   -0.6140    2.0810 c3        1 PF1      0.174100
      8 C5         -1.1140   -1.6320    1.6160 ca        1 PF1     -0.408900
      9 C6         -1.2090   -1.8620    0.2040 ca        1 PF1      0.486200
     10 N1         -2.0780   -2.7000   -0.3560 nb        1 PF1     -0.628000
     11 C2         -2.9530   -3.3690    0.4780 ca        1 PF1      0.781300
     12 CAA        -3.9390   -4.3230   -0.1330 c3        1 PF1     -0.169400
     13 N3         -2.9740   -3.1920    1.8400 nb        1 PF1     -0.696000
     14 C4         -2.0770   -2.3310    2.3800 ca        1 PF1      0.563200
     15 NAB        -2.2010   -2.1560    3.8480 n4        1 PF1     -0.840300
     16 HOAD        1.4990    0.7750   -1.0640 ho        1 PF1      0.472000
     17 HAG1        3.3380   -0.4310    0.0850 h1        1 PF1      0.093200
     18 HAG2        3.0300    1.3410    0.4330 h1        1 PF1      0.093200
     19 HAH1        1.8430    0.9430    2.4380 hx        1 PF1      0.122700
     20 HAH2        3.2280   -0.2610    2.4720 hx        1 PF1      0.122700
     21 HAE         1.5880   -1.9960    0.2030 hx        1 PF1      0.164200
     22 HAI1       -0.1350    0.2360    1.3210 hx        1 PF1      0.123200
     23 HAI2       -0.4190   -0.1740    3.0790 hx        1 PF1      0.123200
     24 H6         -0.5380   -1.3070   -0.4910 h4        1 PF1      0.079100
     25 HAA1       -3.3880   -5.0950   -0.7340 hc        1 PF1      0.114367
     26 HAA2       -4.6150   -3.7560   -0.8290 hc        1 PF1      0.114367
     27 HAA3       -4.5610   -4.8360    0.6420 hc        1 PF1      0.114367
     28 HAB1       -1.3800   -2.5530    4.3170 hn        1 PF1      0.485800
     29 HAB2       -2.2910   -1.1580    4.0680 hn        1 PF1      0.485800
     30 HAO1        1.4330   -1.4170    3.1720 hn        1 PF1      0.444800
     31 HAB3       -3.0460   -2.6490    4.2000 hn        1 PF1      0.485800
@<TRIPOS>BOND
     1    1    2 1   
     2    1   16 1   
     3    2    3 1   
     4    2   17 1   
     5    2   18 1   
     6    3    4 1   
     7    3   19 1   
     8    3   20 1   
     9    4    5 1   
    10    4    7 1   
    11    4   30 1   
    12    5    6 2   
    13    5   21 1   
    14    7    8 1   
    15    7   22 1   
    16    7   23 1   
    17    8    9 ar  
    18    8   14 ar  
    19    9   10 ar  
    20    9   24 1   
    21   10   11 ar  
    22   11   12 1   
    23   11   13 ar  
    24   12   25 1   
    25   12   26 1   
    26   12   27 1   
    27   13   14 ar  
    28   14   15 1   
    29   15   28 1   
    30   15   29 1   
    31   15   31 1   
@<TRIPOS>SUBSTRUCTURE
     1 PF1         1 TEMP              0 ****  ****    0 ROOT
