@<TRIPOS>MOLECULE
PF1
   30    30     1     0     0
SMALL
bcc


@<TRIPOS>ATOM
      1 OAD         2.0970    0.6520    0.0490 oh        1 PF1     -0.637800
      2 CAG         2.9220    0.3860    1.1690 c3        1 PF1      0.109400
      3 CAH         2.0410   -0.1110    2.3220 c3        1 PF1      0.100800
      4 NAO         1.0580   -1.1780    1.9580 nx        1 PF1     -0.612200
      5 CAE         1.6320   -2.0830    0.8930 c         1 PF1      0.555900
      6 OAC         2.0200   -3.1840    1.2310 o         1 PF1     -0.397100
      7 CAI        -0.2480   -0.5850    1.4810 c3        1 PF1      0.210100
      8 C5         -1.2570   -1.6280    1.1990 ca        1 PF1     -0.479900
      9 C6         -1.6930   -1.8730   -0.1260 ca        1 PF1      0.491200
     10 N1         -2.5950   -2.8030   -0.4400 nb        1 PF1     -0.697000
     11 C2         -3.1150   -3.5450    0.6040 ca        1 PF1      0.735300
     12 CAA        -4.1280   -4.6060    0.2570 c3        1 PF1     -0.152400
     13 N3         -2.7910   -3.3770    1.9170 nb        1 PF1     -0.734000
     14 C4         -1.8670   -2.4130    2.2280 ca        1 PF1      0.677200
     15 NAB        -1.4430   -2.2460    3.5630 nv        1 PF1     -0.935500
     16 HOAD        2.5050    1.3650   -0.4610 ho        1 PF1      0.453000
     17 HAG1        3.4590    1.3080    1.5200 h1        1 PF1      0.075700
     18 HAG2        3.6790   -0.3950    0.8810 h1        1 PF1      0.075700
     19 HAH1        1.4680    0.7590    2.7520 hx        1 PF1      0.109700
     20 HAH2        2.7210   -0.5280    3.1200 hx        1 PF1      0.109700
     21 HAE         1.6350   -1.6050   -0.1150 hx        1 PF1      0.141200
     22 HAI1       -0.6070    0.1150    2.2910 hx        1 PF1      0.107700
     23 HAI2       -0.0220    0.0280    0.5580 hx        1 PF1      0.107700
     24 H6         -1.2940   -1.2780   -0.9710 h4        1 PF1      0.038100
     25 HAA1       -5.0160   -4.1230   -0.2240 hc        1 PF1      0.085033
     26 HAA2       -3.6750   -5.3270   -0.4700 hc        1 PF1      0.085033
     27 HAA3       -4.4630   -5.1650    1.1640 hc        1 PF1      0.085033
     28 HAB1       -1.5940   -1.3100    3.8860 hn        1 PF1      0.412300
     29 HAB2       -1.8260   -2.9190    4.2020 hn        1 PF1      0.412300
     30 HAO1        0.8690   -1.7400    2.8030 hn        1 PF1      0.469800
@<TRIPOS>BOND
     1    1    2 1   
     2    1   16 1   
     3    2    3 1   
     4    2   17 1   
     5    2   18 1   
     6    3    4 1   
     7    3   19 1   
     8    3   20 1   
     9    4    5 1   
    10    4    7 1   
    11    4   30 1   
    12    5    6 2   
    13    5   21 1   
    14    7    8 1   
    15    7   22 1   
    16    7   23 1   
    17    8    9 ar  
    18    8   14 ar  
    19    9   10 ar  
    20    9   24 1   
    21   10   11 ar  
    22   11   12 1   
    23   11   13 ar  
    24   12   25 1   
    25   12   26 1   
    26   12   27 1   
    27   13   14 ar  
    28   14   15 1   
    29   15   28 1   
    30   15   29 1   
@<TRIPOS>SUBSTRUCTURE
     1 PF1         1 TEMP              0 ****  ****    0 ROOT
