@<TRIPOS>MOLECULE
PF1
   30    30     1     0     0
SMALL
bcc


@<TRIPOS>ATOM
      1 OAD         2.5090    1.3580    1.3670 oh        1 PF1     -0.629800
      2 CAG         2.0720    0.3700    0.4540 c3        1 PF1      0.114400
      3 CAH         1.7760   -0.9000    1.2650 c3        1 PF1      0.101800
      4 NAO         0.9140   -0.6510    2.4580 n4        1 PF1     -0.617200
      5 CAE         1.0490   -1.7720    3.4590 c         1 PF1      0.570900
      6 OAC         0.8880   -1.4930    4.6320 o         1 PF1     -0.407100
      7 CAI        -0.5350   -0.4150    2.0970 c3        1 PF1      0.208100
      8 C5         -1.1800   -1.5300    1.3770 ca        1 PF1     -0.486900
      9 C6         -1.3690   -1.4500   -0.0270 ca        1 PF1      0.490200
     10 N1         -1.9720   -2.3950   -0.7460 nb        1 PF1     -0.702000
     11 C2         -2.4420   -3.4980   -0.0530 ca        1 PF1      0.737300
     12 CAA        -3.1430   -4.5650   -0.8540 c3        1 PF1     -0.153400
     13 N3         -2.3330   -3.6760    1.2910 nb        1 PF1     -0.739000
     14 C4         -1.7040   -2.6960    2.0210 ca        1 PF1      0.687200
     15 NAB        -1.4840   -2.8970    3.3910 nh        1 PF1     -0.939500
     16 HOAD        3.0430    2.0010    0.8810 ho        1 PF1      0.454000
     17 HAG1        1.1490    0.7340   -0.0750 h1        1 PF1      0.069700
     18 HAG2        2.8630    0.1210   -0.3030 h1        1 PF1      0.069700
     19 HAH1        1.2640   -1.6510    0.5980 hx        1 PF1      0.108700
     20 HAH2        2.7530   -1.3270    1.6330 hx        1 PF1      0.108700
     21 HAE         1.2780   -2.7580    2.9990 hx        1 PF1      0.133200
     22 HAI1       -0.5520    0.5190    1.4580 hx        1 PF1      0.104200
     23 HAI2       -1.0650   -0.1840    3.0680 hx        1 PF1      0.104200
     24 H6         -1.0130   -0.5650   -0.5910 h4        1 PF1      0.033100
     25 HAA1       -4.0880   -4.1390   -1.2770 hc        1 PF1      0.085700
     26 HAA2       -2.4870   -4.8900   -1.7010 hc        1 PF1      0.085700
     27 HAA3       -3.3940   -5.4530   -0.2240 hc        1 PF1      0.085700
     28 HAB1       -1.7020   -2.0990    3.9530 hn        1 PF1      0.423800
     29 HAB2       -1.8680   -3.7440    3.7650 hn        1 PF1      0.423800
     30 HAO1        1.2470    0.2260    2.9000 hn        1 PF1      0.475800
@<TRIPOS>BOND
     1    1    2 1   
     2    1   16 1   
     3    2    3 1   
     4    2   17 1   
     5    2   18 1   
     6    3    4 1   
     7    3   19 1   
     8    3   20 1   
     9    4    5 1   
    10    4    7 1   
    11    4   30 1   
    12    5    6 2   
    13    5   21 1   
    14    7    8 1   
    15    7   22 1   
    16    7   23 1   
    17    8    9 ar  
    18    8   14 ar  
    19    9   10 ar  
    20    9   24 1   
    21   10   11 ar  
    22   11   12 1   
    23   11   13 ar  
    24   12   25 1   
    25   12   26 1   
    26   12   27 1   
    27   13   14 ar  
    28   14   15 1   
    29   15   28 1   
    30   15   29 1   
@<TRIPOS>SUBSTRUCTURE
     1 PF1         1 TEMP              0 ****  ****    0 ROOT
