@<TRIPOS>MOLECULE
PF2
   50    51     1     0     0
SMALL
bcc


@<TRIPOS>ATOM
      1 F26        -5.8720    3.4060    3.5910 f         1 PF2     -0.164000
      2 C11        -5.1950    2.3540    3.3080 c3        1 PF2      0.249000
      3 F25        -5.9900    1.4340    2.6640 f         1 PF2     -0.164000
      4 C10        -4.5940    1.7390    4.5910 c3        1 PF2     -0.217000
      5 C9         -3.0670    1.4980    4.2670 c3        1 PF2     -0.023000
      6 C12        -4.1270    2.6730    2.5380 c3        1 PF2     -0.051000
      7 N8         -2.9580    1.6720    2.9600 n         1 PF2     -0.328000
      8 C6         -1.9910    1.0900    2.1020 c2        1 PF2      0.325000
      9 O7         -1.1570    0.3490    2.5530 o         1 PF2     -0.366000
     10 C4         -1.9560    1.4270    0.8240 c3        1 PF2     -0.045000
     11 N3         -0.9000    2.5650    0.6080 n3        1 PF2     -0.276000
     12 C2          0.1170    2.0030    0.0680 c3        1 PF2     -0.090000
     13 C5         -1.3460    0.2390   -0.0260 c3        1 PF2     -0.173000
     14 C1         -0.4140    0.7590   -0.7290 c3        1 PF2     -0.040000
     15 N13         0.7070   -0.2440   -0.9330 n3        1 PF2     -0.239000
     16 C18         1.9150    0.4470   -1.2620 c3        1 PF2     -0.080000
     17 C17         3.0460   -0.5010   -1.6150 c3        1 PF2     -0.037500
     18 N16         2.6640   -1.4590   -2.6190 n3        1 PF2     -0.214000
     19 C15         1.4480   -2.1540   -2.2890 c3        1 PF2     -0.037500
     20 C14         0.3220   -1.2080   -1.9400 c3        1 PF2     -0.080000
     21 C19         3.7090   -2.3980   -2.7970 c2        1 PF2      0.145000
     22 N23         4.2800   -2.5640   -4.0340 n2        1 PF2     -0.220000
     23 C24         5.2670   -3.4770   -4.2080 c1        1 PF2     -0.004000
     24 C22         5.6960   -4.2390   -3.1400 c1        1 PF2     -0.146000
     25 C21         5.1200   -4.0690   -1.8990 c1        1 PF2     -0.146000
     26 N20         4.1390   -3.1610   -1.7300 n1        1 PF2     -0.218000
     27 H10        -4.6860    2.3690    5.3510 hc        1 PF2      0.121500
     28 H10A       -5.0420    0.8760    4.8010 hc        1 PF2      0.121500
     29 H9         -2.8120    0.5960    4.5090 h1        1 PF2      0.105500
     30 H9A        -2.5200    2.1380    4.7360 h1        1 PF2      0.105500
     31 H12        -4.3480    2.5520    1.5920 h1        1 PF2      0.113500
     32 H12A       -3.8500    3.6160    2.7090 h1        1 PF2      0.113500
     33 H4         -2.8750    1.6500    0.6710 h1        1 PF2      0.095000
     34 HN3        -1.2550    3.2200    0.0110 hn        1 PF2      0.150000
     35 H2          0.7550    1.7080    0.7740 h1        1 PF2      0.103000
     36 H2A         0.5820    2.6540   -0.5720 h1        1 PF2      0.103000
     37 H5         -0.9840   -0.4420    0.5630 hc        1 PF2      0.119000
     38 H5A        -2.0450   -0.1560   -0.6210 hc        1 PF2      0.119000
     39 H1         -0.7630    1.0400   -1.5830 h1        1 PF2      0.058000
     40 H18         1.7480    1.0330   -2.0220 h1        1 PF2      0.082000
     41 H18A        2.1860    0.9920   -0.4960 h1        1 PF2      0.082000
     42 H17         3.3310   -0.9920   -0.7860 h1        1 PF2      0.101500
     43 H17A        3.7900    0.0110   -1.9440 h1        1 PF2      0.101500
     44 H15         1.1610   -2.7320   -3.1030 h1        1 PF2      0.101500
     45 H15A        1.6110   -2.7310   -1.5410 h1        1 PF2      0.101500
     46 H14        -0.4380   -1.7290   -1.6040 h1        1 PF2      0.082000
     47 H14A        0.0360   -0.7110   -2.7860 h1        1 PF2      0.082000
     48 H24         5.6890   -3.6000   -5.1200 ha        1 PF2      0.162000
     49 H22         6.4380   -4.9260   -3.2680 ha        1 PF2      0.158000
     50 H21         5.4300   -4.6190   -1.1260 ha        1 PF2      0.158000
@<TRIPOS>BOND
     1    1    2 1   
     2    2    3 1   
     3    2    4 1   
     4    2    6 1   
     5    4    5 1   
     6    4   27 1   
     7    4   28 1   
     8    5    7 1   
     9    5   29 1   
    10    5   30 1   
    11    6    7 1   
    12    6   31 1   
    13    6   32 1   
    14    7    8 1   
    15    8    9 1   
    16    8   10 1   
    17   10   11 1   
    18   10   13 1   
    19   10   33 1   
    20   11   12 1   
    21   11   34 1   
    22   12   14 1   
    23   12   35 1   
    24   12   36 1   
    25   13   14 1   
    26   13   37 1   
    27   13   38 1   
    28   14   15 1   
    29   14   39 1   
    30   15   16 1   
    31   15   20 1   
    32   16   17 1   
    33   16   40 1   
    34   16   41 1   
    35   17   18 1   
    36   17   42 1   
    37   17   43 1   
    38   18   19 1   
    39   18   21 1   
    40   19   20 1   
    41   19   44 1   
    42   19   45 1   
    43   20   46 1   
    44   20   47 1   
    45   21   22 1   
    46   21   26 1   
    47   22   23 1   
    48   23   48 1   
    49   24   25 1   
    50   24   49 1   
    51   25   50 1   
@<TRIPOS>SUBSTRUCTURE
     1 PF2         1 TEMP              0 ****  ****    0 ROOT
