@<TRIPOS>MOLECULE
PF2
   50    53     1     0     0
SMALL
bcc


@<TRIPOS>ATOM
      1 F26        -6.7690   -1.7590   -1.0620 f         1 PF2     -0.234300
      2 C11        -5.6020   -1.6730   -0.3380 c3        1 PF2      0.395600
      3 F25        -4.9780   -2.8590   -0.6590 f         1 PF2     -0.234300
      4 C10        -5.8400   -1.5060    1.1900 c3        1 PF2     -0.139400
      5 C9         -5.1510   -0.1980    1.5880 c3        1 PF2      0.080000
      6 C12        -4.7380   -0.4240   -0.7650 c3        1 PF2      0.041000
      7 N8         -4.4630    0.3430    0.4250 n         1 PF2     -0.471800
      8 C6         -3.2770    1.0650    0.5930 c         1 PF2      0.665100
      9 O7         -2.9000    1.3640    1.7370 o         1 PF2     -0.558100
     10 C4         -2.5180    1.4930   -0.6780 c3        1 PF2      0.103500
     11 N3         -2.0310    2.8710   -0.5550 n3        1 PF2     -0.773200
     12 C2         -0.5840    2.8160   -0.4030 c3        1 PF2      0.143800
     13 C5         -1.3120    0.5410   -0.8720 c3        1 PF2     -0.100400
     14 C1         -0.0820    1.4670   -1.0130 c3        1 PF2      0.157500
     15 N13         1.1250    0.9440   -0.3800 n3        1 PF2     -0.713600
     16 C18         2.2100    1.9140   -0.3640 c3        1 PF2      0.157300
     17 C17         3.4930    1.3740    0.3000 c3        1 PF2      0.198800
     18 N16         3.9000    0.0740   -0.2100 nh        1 PF2     -0.723300
     19 C15         2.8200   -0.8940   -0.3250 c3        1 PF2      0.198800
     20 C14         1.5540   -0.3110   -0.9830 c3        1 PF2      0.157300
     21 C19         5.1600   -0.4170    0.2150 ca        1 PF2      0.863900
     22 N23         5.4220   -1.7780    0.0660 nb        1 PF2     -0.745500
     23 C24         6.6630   -2.1900    0.3610 ca        1 PF2      0.461200
     24 C22         7.6780   -1.3310    0.8170 ca        1 PF2     -0.418600
     25 C21         7.3210    0.0210    0.9630 ca        1 PF2      0.461200
     26 N20         6.1000    0.4990    0.6860 nb        1 PF2     -0.745500
     27 H10        -6.9360   -1.4620    1.4000 hc        1 PF2      0.083200
     28 H10A       -5.4040   -2.3760    1.7370 hc        1 PF2      0.083200
     29 H9         -5.9080    0.5600    1.9320 h1        1 PF2      0.070200
     30 H9A        -4.4240   -0.3650    2.4330 h1        1 PF2      0.070200
     31 H12        -3.7980   -0.7800   -1.2680 h1        1 PF2      0.070200
     32 H12A       -5.3340    0.1960   -1.4900 h1        1 PF2      0.070200
     33 H4         -3.2100    1.4200   -1.5670 h1        1 PF2      0.056700
     34 HN3        -2.2860    3.3910   -1.3740 hn        1 PF2      0.356800
     35 H2         -0.0870    3.6860   -0.9040 h1        1 PF2      0.069700
     36 H2A        -0.3660    2.8530    0.7000 h1        1 PF2      0.069700
     37 H5         -1.2090   -0.1410    0.0090 hc        1 PF2      0.065200
     38 H5A        -1.4470   -0.0810   -1.7880 hc        1 PF2      0.065200
     39 H1          0.1010    1.6370   -2.1200 h1        1 PF2      0.019700
     40 H18         2.4630    2.2730   -1.4050 h1        1 PF2      0.042200
     41 H18A        1.8780    2.8050    0.2400 h1        1 PF2      0.042200
     42 H17         4.3040    2.1260    0.0860 h1        1 PF2      0.062200
     43 H17A        3.3350    1.3290    1.4160 h1        1 PF2      0.062200
     44 H15         3.1560   -1.7490   -0.9780 h1        1 PF2      0.062200
     45 H15A        2.5480   -1.3070    0.6890 h1        1 PF2      0.062200
     46 H14         0.7300   -1.0660   -0.8470 h1        1 PF2      0.042200
     47 H14A        1.7410   -0.1980   -2.0920 h1        1 PF2      0.042200
     48 H24         6.8460   -3.2720    0.2280 h4        1 PF2      0.025100
     49 H22         8.6830   -1.6930    1.0500 ha        1 PF2      0.154000
     50 H21         8.0490    0.7700    1.3280 h4        1 PF2      0.025100
@<TRIPOS>BOND
     1    1    2 1   
     2    2    3 1   
     3    2    4 1   
     4    2    6 1   
     5    4    5 1   
     6    4   27 1   
     7    4   28 1   
     8    5    7 1   
     9    5   29 1   
    10    5   30 1   
    11    6    7 1   
    12    6   31 1   
    13    6   32 1   
    14    7    8 1   
    15    8    9 2   
    16    8   10 1   
    17   10   11 1   
    18   10   13 1   
    19   10   33 1   
    20   11   12 1   
    21   11   34 1   
    22   12   14 1   
    23   12   35 1   
    24   12   36 1   
    25   13   14 1   
    26   13   37 1   
    27   13   38 1   
    28   14   15 1   
    29   14   39 1   
    30   15   16 1   
    31   15   20 1   
    32   16   17 1   
    33   16   40 1   
    34   16   41 1   
    35   17   18 1   
    36   17   42 1   
    37   17   43 1   
    38   18   19 1   
    39   18   21 1   
    40   19   20 1   
    41   19   44 1   
    42   19   45 1   
    43   20   46 1   
    44   20   47 1   
    45   21   22 ar  
    46   21   26 ar  
    47   22   23 ar  
    48   23   24 ar  
    49   23   48 1   
    50   24   25 ar  
    51   24   49 1   
    52   25   26 ar  
    53   25   50 1   
@<TRIPOS>SUBSTRUCTURE
     1 PF2         1 TEMP              0 ****  ****    0 ROOT
