@<TRIPOS>MOLECULE
PF2
   50    53     1     0     0
SMALL
bcc


@<TRIPOS>ATOM
      1 F26        -0.1170    1.2320    0.9440 f         1 PF2     -0.234300
      2 C11         1.0030    0.5730    0.4890 c3        1 PF2      0.395600
      3 F25         0.4520   -0.4770   -0.2130 f         1 PF2     -0.234300
      4 C10         1.9470    0.1090    1.6340 c3        1 PF2     -0.139400
      5 C9          3.3020    0.7680    1.3630 c3        1 PF2      0.080000
      6 C12         1.8890    1.4940   -0.4360 c3        1 PF2      0.041000
      7 N8          3.2260    1.4970    0.1050 n         1 PF2     -0.471800
      8 C6          4.3620    1.6030   -0.7040 c         1 PF2      0.665100
      9 O7          5.4570    1.2070   -0.2770 o         1 PF2     -0.558100
     10 C4          4.1890    2.2610   -2.0870 c3        1 PF2      0.103500
     11 N3          5.3060    3.1670   -2.3770 n7        1 PF2     -0.773200
     12 C2          6.1240    2.5450   -3.4090 c3        1 PF2      0.143800
     13 C5          4.1490    1.1440   -3.1590 c3        1 PF2     -0.100400
     14 C1          5.2270    1.5350   -4.1960 c3        1 PF2      0.157500
     15 N13         5.9580    0.3960   -4.7420 n3        1 PF2     -0.713600
     16 C18         7.0870    0.8040   -5.5670 c3        1 PF2      0.157300
     17 C17         7.8680   -0.3890   -6.1540 c3        1 PF2      0.198800
     18 N16         7.0140   -1.3710   -6.8030 nh        1 PF2     -0.723300
     19 C15         5.8250   -1.7340   -6.0460 c3        1 PF2      0.198800
     20 C14         5.0820   -0.5130   -5.4690 c3        1 PF2      0.157300
     21 C19         7.6600   -2.4100   -7.5220 ca        1 PF2      0.863900
     22 N23         6.9240   -3.5530   -7.8330 nb        1 PF2     -0.745500
     23 C24         7.5230   -4.4600   -8.6170 ca        1 PF2      0.461200
     24 C22         8.8310   -4.3170   -9.1110 ca        1 PF2     -0.418600
     25 C21         9.5090   -3.1470   -8.7280 ca        1 PF2      0.461200
     26 N20         8.9700   -2.2000   -7.9480 nb        1 PF2     -0.745500
     27 H10         1.5340    0.4310    2.6200 hc        1 PF2      0.083200
     28 H10A        2.0310   -1.0050    1.6260 hc        1 PF2      0.083200
     29 H9          3.5550    1.5020    2.1780 h1        1 PF2      0.070200
     30 H9A         4.1250    0.0010    1.3250 h1        1 PF2      0.070200
     31 H12         1.8570    1.0990   -1.4880 h1        1 PF2      0.070200
     32 H12A        1.4680    2.5360   -0.4180 h1        1 PF2      0.070200
     33 H4          3.2230    2.8440   -2.1050 h1        1 PF2      0.056700
     34 HN3         4.9480    4.0510   -2.6880 hn        1 PF2      0.356800
     35 H2          6.5600    3.3100   -4.1010 h1        1 PF2      0.069700
     36 H2A         6.9600    2.0030   -2.8850 h1        1 PF2      0.069700
     37 H5          3.1410    1.0950   -3.6350 hc        1 PF2      0.065200
     38 H5A         4.3720    0.1510   -2.6950 hc        1 PF2      0.065200
     39 H1          4.7160    2.1070   -5.0310 h1        1 PF2      0.019700
     40 H18         6.7630    1.4770   -6.4140 h1        1 PF2      0.042200
     41 H18A        7.8060    1.3800   -4.9200 h1        1 PF2      0.042200
     42 H17         8.5830    0.0380   -6.9120 h1        1 PF2      0.062200
     43 H17A        8.4690   -0.8720   -5.3300 h1        1 PF2      0.062200
     44 H15         6.0920   -2.4330   -5.2020 h1        1 PF2      0.062200
     45 H15A        5.0980   -2.2600   -6.7270 h1        1 PF2      0.062200
     46 H14         4.3080   -0.9040   -4.7500 h1        1 PF2      0.042200
     47 H14A        4.5400    0.0120   -6.3100 h1        1 PF2      0.042200
     48 H24         6.9150   -5.3540   -8.8530 h4        1 PF2      0.025100
     49 H22         9.2960   -5.0740   -9.7500 ha        1 PF2      0.154000
     50 H21        10.5480   -2.9530   -9.0560 h4        1 PF2      0.025100
@<TRIPOS>BOND
     1    1    2 1   
     2    2    3 1   
     3    2    4 1   
     4    2    6 1   
     5    4    5 1   
     6    4   27 1   
     7    4   28 1   
     8    5    7 1   
     9    5   29 1   
    10    5   30 1   
    11    6    7 1   
    12    6   31 1   
    13    6   32 1   
    14    7    8 1   
    15    8    9 2   
    16    8   10 1   
    17   10   11 1   
    18   10   13 1   
    19   10   33 1   
    20   11   12 1   
    21   11   34 1   
    22   12   14 1   
    23   12   35 1   
    24   12   36 1   
    25   13   14 1   
    26   13   37 1   
    27   13   38 1   
    28   14   15 1   
    29   14   39 1   
    30   15   16 1   
    31   15   20 1   
    32   16   17 1   
    33   16   40 1   
    34   16   41 1   
    35   17   18 1   
    36   17   42 1   
    37   17   43 1   
    38   18   19 1   
    39   18   21 1   
    40   19   20 1   
    41   19   44 1   
    42   19   45 1   
    43   20   46 1   
    44   20   47 1   
    45   21   22 ar  
    46   21   26 ar  
    47   22   23 ar  
    48   23   24 ar  
    49   23   48 1   
    50   24   25 ar  
    51   24   49 1   
    52   25   26 ar  
    53   25   50 1   
@<TRIPOS>SUBSTRUCTURE
     1 PF2         1 TEMP              0 ****  ****    0 ROOT
