@<TRIPOS>MOLECULE
PF2
   50    53     1     0     0
SMALL
bcc


@<TRIPOS>ATOM
      1 F26        -0.1060    1.2300    0.9640 f         1 PF2     -0.234300
      2 C11         1.0080    0.5660    0.5020 c3        1 PF2      0.395600
      3 F25         0.4480   -0.4750   -0.2050 f         1 PF2     -0.234300
      4 C10         1.9520    0.0890    1.6420 c3        1 PF2     -0.139400
      5 C9          3.3110    0.7420    1.3710 c3        1 PF2      0.080000
      6 C12         1.8980    1.4870   -0.4190 c3        1 PF2      0.041000
      7 N8          3.2360    1.4790    0.1180 n         1 PF2     -0.471800
      8 C6          4.3700    1.5840   -0.6940 c         1 PF2      0.665100
      9 O7          5.4640    1.1780   -0.2720 o         1 PF2     -0.558100
     10 C4          4.1990    2.2520   -2.0720 c3        1 PF2      0.103500
     11 N3          5.3190    3.1560   -2.3560 n3        1 PF2     -0.773200
     12 C2          6.1330    2.5380   -3.3940 c3        1 PF2      0.143800
     13 C5          4.1530    1.1420   -3.1510 c3        1 PF2     -0.101400
     14 C1          5.2320    1.5360   -4.1870 c3        1 PF2      0.157500
     15 N13         5.9580    0.3990   -4.7420 n3        1 PF2     -0.713600
     16 C18         7.0880    0.8080   -5.5640 c3        1 PF2      0.157300
     17 C17         7.8640   -0.3840   -6.1600 c3        1 PF2      0.198800
     18 N16         7.0060   -1.3590   -6.8160 nh        1 PF2     -0.723300
     19 C15         5.8170   -1.7220   -6.0600 c3        1 PF2      0.198800
     20 C14         5.0790   -0.5030   -5.4730 c3        1 PF2      0.157300
     21 C19         7.6480   -2.3950   -7.5410 ca        1 PF2      0.863900
     22 N23         6.9080   -3.5320   -7.8600 nb        1 PF2     -0.745500
     23 C24         7.5030   -4.4370   -8.6500 ca        1 PF2      0.461200
     24 C22         8.8120   -4.2950   -9.1440 ca        1 PF2     -0.418600
     25 C21         9.4950   -3.1300   -8.7540 ca        1 PF2      0.461200
     26 N20         8.9590   -2.1870   -7.9660 nb        1 PF2     -0.745500
     27 H10         2.0290   -1.0250    1.6270 hc        1 PF2      0.083200
     28 H10A        1.5440    0.4080    2.6310 hc        1 PF2      0.083200
     29 H9          3.5710    1.4690    2.1910 h1        1 PF2      0.070200
     30 H9A         4.1290   -0.0310    1.3260 h1        1 PF2      0.070200
     31 H12         1.4830    2.5320   -0.3940 h1        1 PF2      0.070200
     32 H12A        1.8610    1.0990   -1.4740 h1        1 PF2      0.070200
     33 H4          3.2340    2.8370   -2.0850 h1        1 PF2      0.056700
     34 HN3         4.9630    4.0430   -2.6600 hn        1 PF2      0.356800
     35 H2          6.9670    1.9890   -2.8750 h1        1 PF2      0.069700
     36 H2A         6.5710    3.3060   -4.0810 h1        1 PF2      0.069700
     37 H5          4.3740    0.1450   -2.6940 hc        1 PF2      0.065200
     38 H5A         3.1450    1.0990   -3.6260 hc        1 PF2      0.065200
     39 H1          4.7220    2.1160   -5.0170 h1        1 PF2      0.019700
     40 H18         6.7650    1.4880   -6.4060 h1        1 PF2      0.042200
     41 H18A        7.8100    1.3770   -4.9140 h1        1 PF2      0.042200
     42 H17         8.4640   -0.8740   -5.3400 h1        1 PF2      0.062200
     43 H17A        8.5800    0.0460   -6.9160 h1        1 PF2      0.062200
     44 H15         6.0820   -2.4280   -5.2210 h1        1 PF2      0.062200
     45 H15A        5.0870   -2.2410   -6.7440 h1        1 PF2      0.062200
     46 H14         4.3040   -0.8960   -4.7570 h1        1 PF2      0.042200
     47 H14A        4.5380    0.0300   -6.3100 h1        1 PF2      0.042200
     48 H24         6.8920   -5.3260   -8.8930 h4        1 PF2      0.025100
     49 H22         9.2730   -5.0490   -9.7880 ha        1 PF2      0.154000
     50 H21        10.5330   -2.9370   -9.0810 h4        1 PF2      0.025100
@<TRIPOS>BOND
     1    1    2 1   
     2    2    3 1   
     3    2    4 1   
     4    2    6 1   
     5    4    5 1   
     6    4   27 1   
     7    4   28 1   
     8    5    7 1   
     9    5   29 1   
    10    5   30 1   
    11    6    7 1   
    12    6   31 1   
    13    6   32 1   
    14    7    8 1   
    15    8    9 2   
    16    8   10 1   
    17   10   11 1   
    18   10   13 1   
    19   10   33 1   
    20   11   12 1   
    21   11   34 1   
    22   12   14 1   
    23   12   35 1   
    24   12   36 1   
    25   13   14 1   
    26   13   37 1   
    27   13   38 1   
    28   14   15 1   
    29   14   39 1   
    30   15   16 1   
    31   15   20 1   
    32   16   17 1   
    33   16   40 1   
    34   16   41 1   
    35   17   18 1   
    36   17   42 1   
    37   17   43 1   
    38   18   19 1   
    39   18   21 1   
    40   19   20 1   
    41   19   44 1   
    42   19   45 1   
    43   20   46 1   
    44   20   47 1   
    45   21   22 ar  
    46   21   26 ar  
    47   22   23 ar  
    48   23   24 ar  
    49   23   48 1   
    50   24   25 ar  
    51   24   49 1   
    52   25   26 ar  
    53   25   50 1   
@<TRIPOS>SUBSTRUCTURE
     1 PF2         1 TEMP              0 ****  ****    0 ROOT
