@<TRIPOS>MOLECULE
PF2
   50    53     1     0     0
SMALL
bcc


@<TRIPOS>ATOM
      1 F26        -0.1010    1.2410    0.9770 f         1 PF2     -0.234300
      2 C11         1.0130    0.5750    0.5170 c3        1 PF2      0.395600
      3 F25         0.4520   -0.4700   -0.1840 f         1 PF2     -0.234300
      4 C10         1.9590    0.1040    1.6570 c3        1 PF2     -0.139400
      5 C9          3.3170    0.7560    1.3810 c3        1 PF2      0.080000
      6 C12         1.9000    1.4920   -0.4110 c3        1 PF2      0.041000
      7 N8          3.2390    1.4870    0.1240 n         1 PF2     -0.471800
      8 C6          4.3720    1.5880   -0.6900 c         1 PF2      0.665100
      9 O7          5.4670    1.1840   -0.2690 o         1 PF2     -0.558100
     10 C4          4.1980    2.2500   -2.0710 c3        1 PF2      0.103500
     11 N3          5.3160    3.1550   -2.3600 n3        1 PF2     -0.773200
     12 C2          6.1290    2.5370   -3.3980 c3        1 PF2      0.143800
     13 C5          4.1540    1.1360   -3.1450 c3        1 PF2     -0.100400
     14 C1          5.2280    1.5310   -4.1860 c3        1 PF2      0.157500
     15 N13         5.9570    0.3930   -4.7400 n3        1 PF2     -0.713600
     16 C18         7.0820    0.8040   -5.5670 c3        1 PF2      0.157300
     17 C17         7.8600   -0.3870   -6.1630 c3        1 PF2      0.198800
     18 N16         7.0020   -1.3660   -6.8130 nh        1 PF2     -0.723300
     19 C15         5.8170   -1.7310   -6.0520 c3        1 PF2      0.198800
     20 C14         5.0770   -0.5130   -5.4650 c3        1 PF2      0.157300
     21 C19         7.6440   -2.4010   -7.5400 ca        1 PF2      0.863900
     22 N23         6.9070   -3.5420   -7.8530 nb        1 PF2     -0.745500
     23 C24         7.5020   -4.4460   -8.6440 ca        1 PF2      0.461200
     24 C22         8.8080   -4.3010   -9.1440 ca        1 PF2     -0.418600
     25 C21         9.4880   -3.1320   -8.7580 ca        1 PF2      0.461200
     26 N20         8.9530   -2.1890   -7.9710 nb        1 PF2     -0.745500
     27 H10         2.0360   -1.0100    1.6470 hc        1 PF2      0.083200
     28 H10A        1.5520    0.4280    2.6460 hc        1 PF2      0.083200
     29 H9          3.5780    1.4870    2.1960 h1        1 PF2      0.070200
     30 H9A         4.1350   -0.0170    1.3370 h1        1 PF2      0.070200
     31 H12         1.8610    1.0990   -1.4630 h1        1 PF2      0.070200
     32 H12A        1.4850    2.5370   -0.3900 h1        1 PF2      0.070200
     33 H4          3.2320    2.8330   -2.0860 h1        1 PF2      0.056700
     34 HN3         4.9580    4.0410   -2.6650 hn        1 PF2      0.356800
     35 H2          6.9660    1.9920   -2.8790 h1        1 PF2      0.069700
     36 H2A         6.5630    3.3040   -4.0890 h1        1 PF2      0.069700
     37 H5          3.1450    1.0870   -3.6180 hc        1 PF2      0.065200
     38 H5A         4.3800    0.1410   -2.6850 hc        1 PF2      0.065200
     39 H1          4.7140    2.1060   -5.0160 h1        1 PF2      0.019700
     40 H18         6.7540    1.4810   -6.4100 h1        1 PF2      0.042200
     41 H18A        7.8040    1.3770   -4.9210 h1        1 PF2      0.042200
     42 H17         8.5720    0.0440   -6.9230 h1        1 PF2      0.062200
     43 H17A        8.4640   -0.8730   -5.3440 h1        1 PF2      0.062200
     44 H15         6.0880   -2.4340   -5.2120 h1        1 PF2      0.062200
     45 H15A        5.0870   -2.2550   -6.7310 h1        1 PF2      0.062200
     46 H14         4.5310    0.0160   -6.3020 h1        1 PF2      0.042200
     47 H14A        4.3070   -0.9070   -4.7450 h1        1 PF2      0.042200
     48 H24         6.8930   -5.3380   -8.8810 h4        1 PF2      0.025100
     49 H22         9.2680   -5.0540   -9.7880 ha        1 PF2      0.154000
     50 H21        10.5250   -2.9370   -9.0910 h4        1 PF2      0.025100
@<TRIPOS>BOND
     1    1    2 1   
     2    2    3 1   
     3    2    4 1   
     4    2    6 1   
     5    4    5 1   
     6    4   27 1   
     7    4   28 1   
     8    5    7 1   
     9    5   29 1   
    10    5   30 1   
    11    6    7 1   
    12    6   31 1   
    13    6   32 1   
    14    7    8 1   
    15    8    9 2   
    16    8   10 1   
    17   10   11 1   
    18   10   13 1   
    19   10   33 1   
    20   11   12 1   
    21   11   34 1   
    22   12   14 1   
    23   12   35 1   
    24   12   36 1   
    25   13   14 1   
    26   13   37 1   
    27   13   38 1   
    28   14   15 1   
    29   14   39 1   
    30   15   16 1   
    31   15   20 1   
    32   16   17 1   
    33   16   40 1   
    34   16   41 1   
    35   17   18 1   
    36   17   42 1   
    37   17   43 1   
    38   18   19 1   
    39   18   21 1   
    40   19   20 1   
    41   19   44 1   
    42   19   45 1   
    43   20   46 1   
    44   20   47 1   
    45   21   22 ar  
    46   21   26 ar  
    47   22   23 ar  
    48   23   24 ar  
    49   23   48 1   
    50   24   25 ar  
    51   24   49 1   
    52   25   26 ar  
    53   25   50 1   
@<TRIPOS>SUBSTRUCTURE
     1 PF2         1 TEMP              0 ****  ****    0 ROOT
