@<TRIPOS>MOLECULE
PF3
   51    55     1     0     0
SMALL
bcc


@<TRIPOS>ATOM
      1 S1          0.3010    1.3200   -0.2020 s4        1 PF3      0.031400
      2 C1          0.9760   -0.2180   -0.2680 ce        1 PF3     -0.247500
      3 C2          1.4240   -0.6020    1.0240 cf        1 PF3     -0.046000
      4 C3          1.1780    0.3980    1.9760 cf        1 PF3     -0.098200
      5 C4          0.5380    1.5110    1.3730 c2        1 PF3     -0.127300
      6 C5          1.5350    0.3060    3.3760 ca        1 PF3     -0.002800
      7 C6          0.8140    1.0210    4.3460 ca        1 PF3     -0.128500
      8 C7          1.1570    0.9350    5.6910 ca        1 PF3     -0.109500
      9 C8          2.2270    0.1280    6.1040 cp        1 PF3     -0.058000
     10 C9          2.9470   -0.5890    5.1380 ca        1 PF3     -0.109500
     11 C10         2.6080   -0.4980    3.7920 ca        1 PF3     -0.128500
     12 C11         2.5860    0.0360    7.5160 cp        1 PF3      0.009000
     13 C12         2.9880   -1.1840    8.0810 ca        1 PF3     -0.239800
     14 C13         3.3220   -1.2200    9.4450 ca        1 PF3      0.392200
     15 N1          3.2810   -0.1430   10.2530 nb        1 PF3     -0.666000
     16 C14         2.8940    1.0230    9.7000 ca        1 PF3      0.392200
     17 C15         2.5390    1.1650    8.3480 ca        1 PF3     -0.239800
     18 C16         1.1200   -1.1150   -1.3600 c         1 PF3      0.623300
     19 O1          1.4840   -2.2920   -1.3790 o         1 PF3     -0.519100
     20 N2          0.7430   -0.5760   -2.7350 n4        1 PF3     -0.691800
     21 C17         1.8620    0.2250   -3.3640 c3        1 PF3      0.206800
     22 C18         1.3650    1.5700   -3.9020 c3        1 PF3     -0.207400
     23 C19         0.8000    2.4570   -2.8000 c         1 PF3      0.733600
     24 O2         -0.0700    1.9100   -1.9920 os        1 PF3     -0.496900
     25 O3          1.1420    3.6440   -2.6840 o         1 PF3     -0.672500
     26 C20         2.5320   -0.5670   -4.4520 ca        1 PF3     -0.142300
     27 C21         3.8750   -0.9300   -4.3130 ca        1 PF3     -0.107500
     28 C22         4.5110   -1.6440   -5.3290 ca        1 PF3     -0.123000
     29 C23         3.8090   -2.0030   -6.4790 ca        1 PF3     -0.104000
     30 C24         2.4670   -1.6430   -6.6180 ca        1 PF3     -0.123000
     31 C25         1.8290   -0.9260   -5.6080 ca        1 PF3     -0.107500
     32 H2          1.9000   -1.5640    1.2320 ha        1 PF3      0.156000
     33 H4          0.2830    2.4030    1.9500 h4        1 PF3      0.171000
     34 H6         -0.0350    1.6500    4.0400 ha        1 PF3      0.135000
     35 H7          0.5780    1.4970    6.4390 ha        1 PF3      0.134500
     36 H9          3.7950   -1.2200    5.4460 ha        1 PF3      0.134500
     37 H10         3.1900   -1.0580    3.0450 ha        1 PF3      0.135000
     38 H12         3.0340   -2.0970    7.4730 ha        1 PF3      0.145500
     39 H13         3.6400   -2.1640    9.9220 h4        1 PF3      0.021100
     40 H14         2.8700    1.8930   10.3820 h4        1 PF3      0.021100
     41 H15         2.2380    2.1440    7.9520 ha        1 PF3      0.145500
     42 HA          0.5070   -1.3620   -3.3460 hn        1 PF3      0.461800
     43 H17         2.6060    0.4370   -2.5360 hx        1 PF3      0.107700
     44 H181        0.5780    1.4260   -4.6850 hc        1 PF3      0.084700
     45 H182        2.2370    2.0900   -4.3790 hc        1 PF3      0.084700
     46 H21         4.4350   -0.6530   -3.4060 ha        1 PF3      0.138000
     47 H22         5.5690   -1.9260   -5.2180 ha        1 PF3      0.144000
     48 H23         4.3120   -2.5680   -7.2790 ha        1 PF3      0.143000
     49 H24         1.9130   -1.9220   -7.5270 ha        1 PF3      0.144000
     50 H25         0.7760   -0.6290   -5.7320 ha        1 PF3      0.138000
     51 H221       -0.0810    0.0480   -2.6290 hn        1 PF3      0.461800
@<TRIPOS>BOND
     1    1    2 1   
     2    1    5 1   
     3    1   24 1   
     4    2    3 2   
     5    2   18 1   
     6    3    4 1   
     7    3   32 1   
     8    4    5 2   
     9    4    6 1   
    10    5   33 1   
    11    6    7 ar  
    12    6   11 ar  
    13    7    8 ar  
    14    7   34 1   
    15    8    9 ar  
    16    8   35 1   
    17    9   10 ar  
    18    9   12 1   
    19   10   11 ar  
    20   10   36 1   
    21   11   37 1   
    22   12   13 ar  
    23   12   17 ar  
    24   13   14 ar  
    25   13   38 1   
    26   14   15 ar  
    27   14   39 1   
    28   15   16 ar  
    29   16   17 ar  
    30   16   40 1   
    31   17   41 1   
    32   18   19 2   
    33   18   20 1   
    34   20   21 1   
    35   20   42 1   
    36   20   51 1   
    37   21   22 1   
    38   21   26 1   
    39   21   43 1   
    40   22   23 1   
    41   22   44 1   
    42   22   45 1   
    43   23   24 1   
    44   23   25 2   
    45   26   27 ar  
    46   26   31 ar  
    47   27   28 ar  
    48   27   46 1   
    49   28   29 ar  
    50   28   47 1   
    51   29   30 ar  
    52   29   48 1   
    53   30   31 ar  
    54   30   49 1   
    55   31   50 1   
@<TRIPOS>SUBSTRUCTURE
     1 PF3         1 TEMP              0 ****  ****    0 ROOT
