@<TRIPOS>MOLECULE
PF3
   51    55     1     0     0
SMALL
bcc


@<TRIPOS>ATOM
      1 S1          0.1910    1.1700   -0.1950 s4        1 PF3      0.031400
      2 C1          0.9950   -0.3040   -0.2700 ce        1 PF3     -0.247500
      3 C2          1.4730   -0.6560    1.0200 cf        1 PF3     -0.046000
      4 C3          1.1420    0.3140    1.9780 cf        1 PF3     -0.098200
      5 C4          0.4100    1.3710    1.3810 c2        1 PF3     -0.127300
      6 C5          1.5060    0.2440    3.3780 ca        1 PF3     -0.002800
      7 C6          0.7270    0.8890    4.3510 ca        1 PF3     -0.128500
      8 C7          1.0760    0.8250    5.6960 ca        1 PF3     -0.109500
      9 C8          2.2110    0.1100    6.1040 cp        1 PF3     -0.058000
     10 C9          2.9890   -0.5370    5.1350 ca        1 PF3     -0.109500
     11 C10         2.6430   -0.4680    3.7890 ca        1 PF3     -0.128500
     12 C11         2.5760    0.0410    7.5160 cp        1 PF3      0.009000
     13 C12         3.0810   -1.1430    8.0750 ca        1 PF3     -0.239800
     14 C13         3.4170   -1.1570    9.4390 ca        1 PF3      0.392200
     15 N1          3.2850   -0.0920   10.2530 nb        1 PF3     -0.666000
     16 C14         2.8000    1.0390    9.7060 ca        1 PF3      0.392200
     17 C15         2.4330    1.1570    8.3550 ca        1 PF3     -0.239800
     18 C16         1.2150   -1.1790   -1.3670 c         1 PF3      0.623300
     19 O1          1.6780   -2.3210   -1.3930 o         1 PF3     -0.519100
     20 N2          0.7940   -0.6650   -2.7390 n4        1 PF3     -0.691800
     21 C17         1.8410    0.2320   -3.3620 c3        1 PF3      0.206800
     22 C18         1.2320    1.5330   -3.8920 c3        1 PF3     -0.207400
     23 C19         0.5930    2.3620   -2.7850 c         1 PF3      0.733600
     24 O2         -0.2280    1.7380   -1.9820 os        1 PF3     -0.496900
     25 O3          0.8330    3.5730   -2.6620 o         1 PF3     -0.672500
     26 C20         2.5770   -0.4930   -4.4540 ca        1 PF3     -0.142300
     27 C21         3.9460   -0.7420   -4.3160 ca        1 PF3     -0.107500
     28 C22         4.6410   -1.3930   -5.3350 ca        1 PF3     -0.123000
     29 C23         3.9720   -1.8030   -6.4890 ca        1 PF3     -0.104000
     30 C24         2.6050   -1.5580   -6.6270 ca        1 PF3     -0.123000
     31 C25         1.9070   -0.9030   -5.6130 ca        1 PF3     -0.107500
     32 H2          2.0290   -1.5750    1.2220 ha        1 PF3      0.156000
     33 H4          0.0800    2.2350    1.9640 h4        1 PF3      0.171000
     34 H6         -0.1730    1.4450    4.0480 ha        1 PF3      0.135000
     35 H7          0.4510    1.3320    6.4470 ha        1 PF3      0.134500
     36 H9          3.8880   -1.0950    5.4400 ha        1 PF3      0.134500
     37 H10         3.2710   -0.9720    3.0390 ha        1 PF3      0.135000
     38 H12         3.2050   -2.0460    7.4620 ha        1 PF3      0.145500
     39 H13         3.8150   -2.0740    9.9100 h4        1 PF3      0.021100
     40 H14         2.7010    1.9000   10.3920 h4        1 PF3      0.021100
     41 H15         2.0490    2.1090    7.9640 ha        1 PF3      0.145500
     42 HA         -0.0800   -0.1140   -2.6300 hn        1 PF3      0.461800
     43 H17         2.5640    0.5020   -2.5320 hx        1 PF3      0.107700
     44 H181        0.4600    1.3270   -4.6770 hc        1 PF3      0.084700
     45 H182        2.0570    2.1290   -4.3650 hc        1 PF3      0.084700
     46 H21         4.4790   -0.4230   -3.4070 ha        1 PF3      0.138000
     47 H22         5.7190   -1.5840   -5.2250 ha        1 PF3      0.144000
     48 H23         4.5220   -2.3180   -7.2910 ha        1 PF3      0.143000
     49 H24         2.0770   -1.8770   -7.5380 ha        1 PF3      0.144000
     50 H25         0.8340   -0.6960   -5.7370 ha        1 PF3      0.138000
     51 H221        0.6260   -1.4650   -3.3550 hn        1 PF3      0.461800
@<TRIPOS>BOND
     1    1    2 1   
     2    1    5 1   
     3    1   24 1   
     4    2    3 2   
     5    2   18 1   
     6    3    4 1   
     7    3   32 1   
     8    4    5 2   
     9    4    6 1   
    10    5   33 1   
    11    6    7 ar  
    12    6   11 ar  
    13    7    8 ar  
    14    7   34 1   
    15    8    9 ar  
    16    8   35 1   
    17    9   10 ar  
    18    9   12 1   
    19   10   11 ar  
    20   10   36 1   
    21   11   37 1   
    22   12   13 ar  
    23   12   17 ar  
    24   13   14 ar  
    25   13   38 1   
    26   14   15 ar  
    27   14   39 1   
    28   15   16 ar  
    29   16   17 ar  
    30   16   40 1   
    31   17   41 1   
    32   18   19 2   
    33   18   20 1   
    34   20   21 1   
    35   20   42 1   
    36   20   51 1   
    37   21   22 1   
    38   21   26 1   
    39   21   43 1   
    40   22   23 1   
    41   22   44 1   
    42   22   45 1   
    43   23   24 1   
    44   23   25 2   
    45   26   27 ar  
    46   26   31 ar  
    47   27   28 ar  
    48   27   46 1   
    49   28   29 ar  
    50   28   47 1   
    51   29   30 ar  
    52   29   48 1   
    53   30   31 ar  
    54   30   49 1   
    55   31   50 1   
@<TRIPOS>SUBSTRUCTURE
     1 PF3         1 TEMP              0 ****  ****    0 ROOT
