@<TRIPOS>MOLECULE
PF3
   51    55     1     0     0
SMALL
bcc


@<TRIPOS>ATOM
      1 S1          0.1670    1.1290   -0.1990 s4        1 PF3      0.031400
      2 C1          1.0030   -0.3280   -0.2710 ce        1 PF3     -0.247500
      3 C2          1.4870   -0.6670    1.0210 cf        1 PF3     -0.046000
      4 C3          1.1350    0.2970    1.9760 cf        1 PF3     -0.098200
      5 C4          0.3800    1.3370    1.3770 c2        1 PF3     -0.127300
      6 C5          1.4980    0.2380    3.3770 ca        1 PF3     -0.002800
      7 C6          0.7040    0.8670    4.3480 ca        1 PF3     -0.128500
      8 C7          1.0520    0.8130    5.6940 ca        1 PF3     -0.109500
      9 C8          2.2020    0.1230    6.1050 cp        1 PF3     -0.058000
     10 C9          2.9960   -0.5070    5.1370 ca        1 PF3     -0.109500
     11 C10         2.6500   -0.4480    3.7910 ca        1 PF3     -0.128500
     12 C11         2.5670    0.0640    7.5170 cp        1 PF3      0.009000
     13 C12         3.0970   -1.1080    8.0780 ca        1 PF3     -0.239800
     14 C13         3.4310   -1.1130    9.4430 ca        1 PF3      0.392200
     15 N1          3.2730   -0.0500   10.2550 nb        1 PF3     -0.666000
     16 C14         2.7640    1.0700    9.7060 ca        1 PF3      0.392200
     17 C15         2.3970    1.1780    8.3540 ca        1 PF3     -0.239800
     18 C16         1.2440   -1.2000   -1.3660 c         1 PF3      0.623300
     19 O1          1.7320   -2.3320   -1.3890 o         1 PF3     -0.519100
     20 N2          0.8130   -0.6990   -2.7390 ny        1 PF3     -0.691800
     21 C17         1.8400    0.2190   -3.3640 c3        1 PF3      0.206800
     22 C18         1.2040    1.5060   -3.8970 c3        1 PF3     -0.207400
     23 C19         0.5460    2.3230   -2.7920 c         1 PF3      0.733600
     24 O2         -0.2620    1.6830   -1.9880 os        1 PF3     -0.496900
     25 O3          0.7590    3.5390   -2.6710 o         1 PF3     -0.672500
     26 C20         2.5920   -0.4920   -4.4540 ca        1 PF3     -0.142300
     27 C21         3.9660   -0.7110   -4.3150 ca        1 PF3     -0.107500
     28 C22         4.6750   -1.3490   -5.3320 ca        1 PF3     -0.123000
     29 C23         4.0160   -1.7750   -6.4850 ca        1 PF3     -0.104000
     30 C24         2.6440   -1.5600   -6.6240 ca        1 PF3     -0.123000
     31 C25         1.9320   -0.9190   -5.6120 ca        1 PF3     -0.107500
     32 H2          2.0640   -1.5740    1.2260 ha        1 PF3      0.156000
     33 H4          0.0300    2.1950    1.9570 h4        1 PF3      0.171000
     34 H6         -0.2080    1.4030    4.0430 ha        1 PF3      0.135000
     35 H7          0.4150    1.3060    6.4430 ha        1 PF3      0.134500
     36 H9          3.9060   -1.0450    5.4440 ha        1 PF3      0.134500
     37 H10         3.2910   -0.9400    3.0430 ha        1 PF3      0.135000
     38 H12         3.2420   -2.0080    7.4660 ha        1 PF3      0.145500
     39 H13         3.8480   -2.0200    9.9160 h4        1 PF3      0.021100
     40 H14         2.6460    1.9280   10.3910 h4        1 PF3      0.021100
     41 H15         1.9930    2.1200    7.9620 ha        1 PF3      0.145500
     42 HA          0.6620   -1.5030   -3.3530 hn        1 PF3      0.461800
     43 H17         2.5570    0.5060   -2.5330 hx        1 PF3      0.107700
     44 H181        0.4370    1.2820   -4.6810 hc        1 PF3      0.084700
     45 H182        2.0160    2.1180   -4.3700 hc        1 PF3      0.084700
     46 H21         4.4920   -0.3790   -3.4060 ha        1 PF3      0.138000
     47 H22         5.7570   -1.5160   -5.2210 ha        1 PF3      0.144000
     48 H23         4.5770   -2.2800   -7.2860 ha        1 PF3      0.143000
     49 H24         2.1230   -1.8930   -7.5350 ha        1 PF3      0.144000
     50 H25         0.8540   -0.7360   -5.7360 ha        1 PF3      0.138000
     51 H221       -0.0740   -0.1670   -2.6320 hn        1 PF3      0.461800
@<TRIPOS>BOND
     1    1    2 1   
     2    1    5 1   
     3    1   24 1   
     4    2    3 2   
     5    2   18 1   
     6    3    4 1   
     7    3   32 1   
     8    4    5 2   
     9    4    6 1   
    10    5   33 1   
    11    6    7 ar  
    12    6   11 ar  
    13    7    8 ar  
    14    7   34 1   
    15    8    9 ar  
    16    8   35 1   
    17    9   10 ar  
    18    9   12 1   
    19   10   11 ar  
    20   10   36 1   
    21   11   37 1   
    22   12   13 ar  
    23   12   17 ar  
    24   13   14 ar  
    25   13   38 1   
    26   14   15 ar  
    27   14   39 1   
    28   15   16 ar  
    29   16   17 ar  
    30   16   40 1   
    31   17   41 1   
    32   18   19 2   
    33   18   20 1   
    34   20   21 1   
    35   20   42 1   
    36   20   51 1   
    37   21   22 1   
    38   21   26 1   
    39   21   43 1   
    40   22   23 1   
    41   22   44 1   
    42   22   45 1   
    43   23   24 1   
    44   23   25 2   
    45   26   27 ar  
    46   26   31 ar  
    47   27   28 ar  
    48   27   46 1   
    49   28   29 ar  
    50   28   47 1   
    51   29   30 ar  
    52   29   48 1   
    53   30   31 ar  
    54   30   49 1   
    55   31   50 1   
@<TRIPOS>SUBSTRUCTURE
     1 PF3         1 TEMP              0 ****  ****    0 ROOT
