@<TRIPOS>MOLECULE
PF3
   50    53     1     0     0
SMALL
bcc


@<TRIPOS>ATOM
      1 S1          0.3810   -2.5430   -0.6060 ss        1 PF3      0.078200
      2 C1         -0.3180   -1.0300   -0.8080 cc        1 PF3     -0.174700
      3 C2         -0.4350   -0.3680    0.3990 cd        1 PF3     -0.089000
      4 C3          0.0830   -1.1480    1.4850 cd        1 PF3     -0.091000
      5 C4          0.5620   -2.3700    1.0310 cc        1 PF3     -0.174100
      6 C5          0.0920   -0.7020    2.8620 ca        1 PF3      0.017000
      7 C6          1.0510   -1.1870    3.7660 ca        1 PF3     -0.125500
      8 C7          1.0570   -0.7620    5.0900 ca        1 PF3     -0.111500
      9 C8          0.1070    0.1630    5.5450 cp        1 PF3     -0.065000
     10 C9         -0.8510    0.6500    4.6440 ca        1 PF3     -0.111500
     11 C10        -0.8600    0.2220    3.3210 ca        1 PF3     -0.125500
     12 C11         0.1150    0.6120    6.9340 cp        1 PF3      0.015000
     13 C12        -0.1680    1.9460    7.2640 ca        1 PF3     -0.240300
     14 C13        -0.1460    2.3280    8.6160 ca        1 PF3      0.389700
     15 N1          0.1330    1.4840    9.6280 nb        1 PF3     -0.672000
     16 C14         0.4030    0.2050    9.2990 ca        1 PF3      0.389700
     17 C15         0.4070   -0.2770    7.9800 ca        1 PF3     -0.240300
     18 C16        -0.7890   -0.4530   -2.0930 c         1 PF3      0.699700
     19 O1         -1.6540    0.4470   -2.0940 o         1 PF3     -0.598100
     20 N2         -0.2310   -0.9720   -3.2350 n         1 PF3     -0.554900
     21 C17        -0.5950   -0.5580   -4.5800 c3        1 PF3      0.143000
     22 C18        -0.5610   -1.7440   -5.5560 c3        1 PF3     -0.212400
     23 C19        -1.5990   -1.6140   -6.6910 c         1 PF3      0.916600
     24 O2         -2.4780   -0.7060   -6.6290 o         1 PF3     -0.839800
     25 O3         -1.5140   -2.4570   -7.6260 o         1 PF3     -0.839800
     26 C20         0.2700    0.5630   -5.1190 ca        1 PF3     -0.067300
     27 C21        -0.2840    1.3730   -6.1230 ca        1 PF3     -0.119000
     28 C22         0.4560    2.4210   -6.6640 ca        1 PF3     -0.145000
     29 C23         1.7520    2.6750   -6.2130 ca        1 PF3     -0.150000
     30 C24         2.3090    1.8670   -5.2250 ca        1 PF3     -0.145000
     31 C25         1.5730    0.8120   -4.6820 ca        1 PF3     -0.119000
     32 H2         -0.8680    0.6310    0.5080 ha        1 PF3      0.175000
     33 H4          0.9940   -3.1430    1.6650 h4        1 PF3      0.168000
     34 H6          1.8100   -1.9050    3.4190 ha        1 PF3      0.141000
     35 H7          1.8200   -1.1470    5.7840 ha        1 PF3      0.132000
     36 H9         -1.6080    1.3710    4.9890 ha        1 PF3      0.132000
     37 H10        -1.6250    0.6060    2.6270 ha        1 PF3      0.141000
     38 H12        -0.3960    2.6820    6.4820 ha        1 PF3      0.146500
     39 H13        -0.3630    3.3710    8.9080 h4        1 PF3      0.018100
     40 H14         0.6260   -0.4700   10.1450 h4        1 PF3      0.018100
     41 H15         0.6280   -1.3330    7.7740 ha        1 PF3      0.146500
     42 HA          0.5020   -1.6360   -3.1560 hn        1 PF3      0.293500
     43 H17        -1.6670   -0.1760   -4.5400 h1        1 PF3      0.129700
     44 H181       -0.7950   -2.7030   -5.0270 hc        1 PF3      0.035700
     45 H182        0.4550   -1.8420   -6.0130 hc        1 PF3      0.035700
     46 H21        -1.3040    1.1370   -6.4910 ha        1 PF3      0.155500
     47 H22         0.0160    3.0470   -7.4530 ha        1 PF3      0.114500
     48 H23         2.3320    3.5040   -6.6400 ha        1 PF3      0.109000
     49 H24         3.3320    2.0560   -4.8710 ha        1 PF3      0.114500
     50 H25         2.0400    0.1850   -3.9100 ha        1 PF3      0.155500
@<TRIPOS>BOND
     1    1    2 1   
     2    1    5 1   
     3    2    3 2   
     4    2   18 1   
     5    3    4 1   
     6    3   32 1   
     7    4    5 2   
     8    4    6 1   
     9    5   33 1   
    10    6    7 ar  
    11    6   11 ar  
    12    7    8 ar  
    13    7   34 1   
    14    8    9 ar  
    15    8   35 1   
    16    9   10 ar  
    17    9   12 1   
    18   10   11 ar  
    19   10   36 1   
    20   11   37 1   
    21   12   13 ar  
    22   12   17 ar  
    23   13   14 ar  
    24   13   38 1   
    25   14   15 ar  
    26   14   39 1   
    27   15   16 ar  
    28   16   17 ar  
    29   16   40 1   
    30   17   41 1   
    31   18   19 2   
    32   18   20 1   
    33   20   21 1   
    34   20   42 1   
    35   21   22 1   
    36   21   26 1   
    37   21   43 1   
    38   22   23 1   
    39   22   44 1   
    40   22   45 1   
    41   23   24 1   
    42   23   25 1   
    43   26   27 ar  
    44   26   31 ar  
    45   27   28 ar  
    46   27   46 1   
    47   28   29 ar  
    48   28   47 1   
    49   29   30 ar  
    50   29   48 1   
    51   30   31 ar  
    52   30   49 1   
    53   31   50 1   
@<TRIPOS>SUBSTRUCTURE
     1 PF3         1 TEMP              0 ****  ****    0 ROOT
