@<TRIPOS>MOLECULE
PF4
   44    47     1     0     0
SMALL
bcc


@<TRIPOS>ATOM
      1 C7         -0.1410    0.0480   -0.0280 ca        1 PF4     -0.078000
      2 C9          2.5850   -0.4130   -3.2980 cc        1 PF4      0.492000
      3 C13         1.1590   -0.1010    2.4460 ca        1 PF4     -0.186000
      4 C20         5.8110    2.9660    1.0800 ca        1 PF4      0.131100
      5 C8          1.8970   -0.0710    1.2710 ca        1 PF4     -0.078000
      6 C18         1.7330   -1.8730   -5.1460 cd        1 PF4     -0.108000
      7 C16         4.4160    3.1610    1.1010 ca        1 PF4     -0.181000
      8 C26         7.9350    3.6050    1.9450 c3        1 PF4      0.112700
      9 O24         6.5250    3.7930    1.9240 os        1 PF4     -0.323900
     10 C15         6.3820    1.9970    0.2480 ca        1 PF4     -0.181000
     11 C10         5.5560    1.2240   -0.5670 ca        1 PF4     -0.083000
     12 C11         3.6080    2.3840    0.2840 ca        1 PF4     -0.083000
     13 C5          4.1680    1.4090   -0.5590 ca        1 PF4     -0.057000
     14 C2          3.3110    0.6200   -1.4220 cc        1 PF4     -0.137600
     15 N6          3.6460    0.3300   -2.7500 na        1 PF4     -0.311900
     16 C14         2.5820   -0.8940   -4.6580 cc        1 PF4     -0.153600
     17 S19         3.6070   -0.3170   -5.8720 ss        1 PF4     -0.011800
     18 C23         2.9730   -1.3340   -7.0360 cc        1 PF4     -0.150100
     19 C22         1.9650   -2.1260   -6.5330 cd        1 PF4     -0.158000
     20 N4          1.6040   -0.6090   -2.3740 nd        1 PF4     -0.645000
     21 C1          2.0380    0.0220   -1.2030 cd        1 PF4      0.379800
     22 C3          1.2580    0.0090    0.0230 ca        1 PF4     -0.146500
     23 C12        -0.8970    0.0210    1.1430 ca        1 PF4     -0.186000
     24 C17        -0.2460   -0.0540    2.3790 ca        1 PF4      0.125100
     25 O21        -0.8870   -0.0840    3.6030 os        1 PF4     -0.327900
     26 C25        -2.3090   -0.0750    3.5650 c3        1 PF4      0.113700
     27 H7         -0.6550    0.0990   -1.0010 ha        1 PF4      0.145500
     28 H13         1.6520   -0.1640    3.4260 ha        1 PF4      0.143000
     29 H8          2.9970   -0.1080    1.3150 ha        1 PF4      0.145500
     30 H18         0.9770   -2.3930   -4.5520 ha        1 PF4      0.175000
     31 H16         3.9870    3.9260    1.7640 ha        1 PF4      0.147000
     32 H26         8.1910    2.5700    2.2800 h1        1 PF4      0.045700
     33 H26A        8.3750    3.8110    0.9390 h1        1 PF4      0.045700
     34 H26B        8.2870    4.3610    2.6920 h1        1 PF4      0.045700
     35 H15         7.4680    1.8330    0.2300 ha        1 PF4      0.147000
     36 H10         6.0090    0.4540   -1.2090 ha        1 PF4      0.142500
     37 H11         2.5150    2.5220    0.2990 ha        1 PF4      0.142500
     38 H23         3.3350   -1.3420   -8.0630 h4        1 PF4      0.174000
     39 H22         1.3990   -2.8650   -7.1050 ha        1 PF4      0.158000
     40 H12        -1.9930    0.0540    1.0800 ha        1 PF4      0.143000
     41 H25        -2.5990   -0.1230    4.6450 h1        1 PF4      0.044033
     42 H25A       -2.6960   -0.9670    3.0140 h1        1 PF4      0.044033
     43 H25B       -2.6850    0.8670    3.0980 h1        1 PF4      0.044033
     44 HN6         4.4710    0.6130   -3.2090 hn        1 PF4      0.302700
@<TRIPOS>BOND
     1    1   22 ar  
     2    1   23 ar  
     3    1   27 1   
     4    2   15 1   
     5    2   16 1   
     6    2   20 2   
     7    3    5 ar  
     8    3   24 ar  
     9    3   28 1   
    10    4    7 ar  
    11    4    9 1   
    12    4   10 ar  
    13    5   22 ar  
    14    5   29 1   
    15    6   16 2   
    16    6   19 1   
    17    6   30 1   
    18    7   12 ar  
    19    7   31 1   
    20    8    9 1   
    21    8   32 1   
    22    8   33 1   
    23    8   34 1   
    24   10   11 ar  
    25   10   35 1   
    26   11   13 ar  
    27   11   36 1   
    28   12   13 ar  
    29   12   37 1   
    30   13   14 1   
    31   14   15 1   
    32   14   21 2   
    33   15   44 1   
    34   16   17 1   
    35   17   18 1   
    36   18   19 2   
    37   18   38 1   
    38   19   39 1   
    39   20   21 1   
    40   21   22 1   
    41   23   24 ar  
    42   23   40 1   
    43   24   25 1   
    44   25   26 1   
    45   26   41 1   
    46   26   42 1   
    47   26   43 1   
@<TRIPOS>SUBSTRUCTURE
     1 PF4         1 TEMP              0 ****  ****    0 ROOT
