@<TRIPOS>MOLECULE
PF4
   44    47     1     0     0
SMALL
bcc


@<TRIPOS>ATOM
      1 C7         -0.8100    2.9440    0.5750 ca        1 PF4     -0.078000
      2 C9          2.4810    0.2630    0.0110 cc        1 PF4      0.492000
      3 C13        -3.0800    2.1270   -0.8460 ca        1 PF4     -0.186000
      4 C20        -2.6970   -3.4970    0.2250 ca        1 PF4      0.131100
      5 C8         -1.9650    1.3040   -0.7780 ca        1 PF4     -0.078000
      6 C18         4.6860    1.4010   -0.3240 cd        1 PF4     -0.108000
      7 C16        -2.8050   -2.3090    0.9740 ca        1 PF4     -0.181000
      8 C26        -3.6850   -5.5750   -0.3860 c3        1 PF4      0.112700
      9 O24        -3.7510   -4.3760    0.3770 os        1 PF4     -0.323900
     10 C15        -1.5870   -3.7230   -0.5960 ca        1 PF4     -0.181000
     11 C10        -0.5810   -2.7610   -0.6630 ca        1 PF4     -0.083000
     12 C11        -1.7960   -1.3610    0.8950 ca        1 PF4     -0.083000
     13 C5         -0.6720   -1.5760    0.0780 ca        1 PF4     -0.057000
     14 C2          0.3840   -0.5850    0.0240 cc        1 PF4     -0.137600
     15 N6          1.7400   -0.9330    0.0340 na        1 PF4     -0.311900
     16 C14         3.9230    0.2950    0.0090 cc        1 PF4     -0.153600
     17 S19         4.9030   -1.0150    0.4340 ss        1 PF4     -0.011800
     18 C23         6.3220   -0.1700    0.1820 cc        1 PF4     -0.150100
     19 C22         6.0850    1.1250   -0.2210 cd        1 PF4     -0.158000
     20 N4          1.6530    1.3430   -0.0200 nd        1 PF4     -0.645000
     21 C1          0.3480    0.8370   -0.0150 cd        1 PF4      0.379800
     22 C3         -0.8210    1.6980   -0.0660 ca        1 PF4     -0.146500
     23 C12        -1.9220    3.7830    0.5190 ca        1 PF4     -0.186000
     24 C17        -3.0560    3.3730   -0.1910 ca        1 PF4      0.125100
     25 O21        -4.2150    4.1150   -0.3140 os        1 PF4     -0.327900
     26 C25        -4.2070    5.3960    0.3050 c3        1 PF4      0.113700
     27 H7          0.0850    3.2710    1.1270 ha        1 PF4      0.145500
     28 H13        -3.9780    1.8250   -1.4020 ha        1 PF4      0.143000
     29 H8         -1.9750    0.3270   -1.2880 ha        1 PF4      0.145500
     30 H18         4.2790    2.3690   -0.6270 ha        1 PF4      0.175000
     31 H16        -3.6880   -2.1490    1.6100 ha        1 PF4      0.147000
     32 H26        -4.6300   -6.1090   -0.1120 h1        1 PF4      0.045700
     33 H26A       -3.6630   -5.3480   -1.4790 h1        1 PF4      0.045700
     34 H26B       -2.7920   -6.1800   -0.0930 h1        1 PF4      0.045700
     35 H15        -1.4970   -4.6440   -1.1890 ha        1 PF4      0.147000
     36 H10         0.2840   -2.9370   -1.3200 ha        1 PF4      0.142500
     37 H11        -1.8730   -0.4240    1.4700 ha        1 PF4      0.142500
     38 H23         7.3030   -0.6200    0.3310 h4        1 PF4      0.174000
     39 H22         6.8550    1.8670   -0.4420 ha        1 PF4      0.158000
     40 H12        -1.8930    4.7550    1.0290 ha        1 PF4      0.143000
     41 H25        -5.2190    5.8090    0.0620 h1        1 PF4      0.044033
     42 H25A       -4.0770    5.2990    1.4100 h1        1 PF4      0.044033
     43 H25B       -3.4050    6.0400   -0.1280 h1        1 PF4      0.044033
     44 HN6         2.0970   -1.8510    0.0650 hn        1 PF4      0.302700
@<TRIPOS>BOND
     1    1   22 ar  
     2    1   23 ar  
     3    1   27 1   
     4    2   15 1   
     5    2   16 1   
     6    2   20 2   
     7    3    5 ar  
     8    3   24 ar  
     9    3   28 1   
    10    4    7 ar  
    11    4    9 1   
    12    4   10 ar  
    13    5   22 ar  
    14    5   29 1   
    15    6   16 2   
    16    6   19 1   
    17    6   30 1   
    18    7   12 ar  
    19    7   31 1   
    20    8    9 1   
    21    8   32 1   
    22    8   33 1   
    23    8   34 1   
    24   10   11 ar  
    25   10   35 1   
    26   11   13 ar  
    27   11   36 1   
    28   12   13 ar  
    29   12   37 1   
    30   13   14 1   
    31   14   15 1   
    32   14   21 2   
    33   15   44 1   
    34   16   17 1   
    35   17   18 1   
    36   18   19 2   
    37   18   38 1   
    38   19   39 1   
    39   20   21 1   
    40   21   22 1   
    41   23   24 ar  
    42   23   40 1   
    43   24   25 1   
    44   25   26 1   
    45   26   41 1   
    46   26   42 1   
    47   26   43 1   
@<TRIPOS>SUBSTRUCTURE
     1 PF4         1 TEMP              0 ****  ****    0 ROOT
