@<TRIPOS>MOLECULE
PF4
   44    47     1     0     0
SMALL
bcc


@<TRIPOS>ATOM
      1 C7         -0.1400    0.0450   -0.0260 ca        1 PF4     -0.078000
      2 C9          2.5830   -0.4080   -3.3000 cc        1 PF4      0.492000
      3 C13         1.1630   -0.1070    2.4470 ca        1 PF4     -0.186000
      4 C20         5.8110    2.9660    1.0810 ca        1 PF4      0.131100
      5 C8          1.8990   -0.0740    1.2710 ca        1 PF4     -0.078000
      6 C18         1.7310   -1.8660   -5.1490 cd        1 PF4     -0.108000
      7 C16         4.4160    3.1600    1.1040 ca        1 PF4     -0.181000
      8 C26         7.9350    3.6050    1.9450 c3        1 PF4      0.112700
      9 O24         6.5250    3.7920    1.9250 os        1 PF4     -0.323900
     10 C15         6.3820    1.9980    0.2470 ca        1 PF4     -0.181000
     11 C10         5.5550    1.2270   -0.5690 ca        1 PF4     -0.083000
     12 C11         3.6070    2.3840    0.2860 ca        1 PF4     -0.083000
     13 C5          4.1670    1.4100   -0.5590 ca        1 PF4     -0.057000
     14 C2          3.3100    0.6220   -1.4220 cc        1 PF4     -0.137600
     15 N6          3.6440    0.3340   -2.7510 na        1 PF4     -0.311900
     16 C14         2.5790   -0.8870   -4.6600 cc        1 PF4     -0.153600
     17 S19         3.6020   -0.3080   -5.8750 ss        1 PF4     -0.011800
     18 C23         2.9680   -1.3230   -7.0400 cc        1 PF4     -0.150100
     19 C22         1.9620   -2.1170   -6.5370 cd        1 PF4     -0.158000
     20 N4          1.6030   -0.6060   -2.3750 nd        1 PF4     -0.645000
     21 C1          2.0380    0.0230   -1.2030 cd        1 PF4      0.379800
     22 C3          1.2590    0.0070    0.0230 ca        1 PF4     -0.146500
     23 C12        -0.8950    0.0150    1.1450 ca        1 PF4     -0.186000
     24 C17        -0.2430   -0.0610    2.3810 ca        1 PF4      0.125100
     25 O21        -0.8830   -0.0940    3.6050 os        1 PF4     -0.327900
     26 C25        -2.3050   -0.0860    3.5690 c3        1 PF4      0.113700
     27 H7         -0.6550    0.0970   -0.9990 ha        1 PF4      0.145500
     28 H13         1.6570   -0.1720    3.4260 ha        1 PF4      0.143000
     29 H8          2.9990   -0.1110    1.3140 ha        1 PF4      0.145500
     30 H18         0.9750   -2.3880   -4.5550 ha        1 PF4      0.175000
     31 H16         3.9870    3.9240    1.7680 ha        1 PF4      0.147000
     32 H26         8.1920    2.5700    2.2780 h1        1 PF4      0.045700
     33 H26A        8.3740    3.8130    0.9390 h1        1 PF4      0.045700
     34 H26B        8.2870    4.3600    2.6930 h1        1 PF4      0.045700
     35 H15         7.4680    1.8360    0.2270 ha        1 PF4      0.147000
     36 H10         6.0080    0.4570   -1.2120 ha        1 PF4      0.142500
     37 H11         2.5140    2.5200    0.3020 ha        1 PF4      0.142500
     38 H23         3.3300   -1.3290   -8.0670 h4        1 PF4      0.174000
     39 H22         1.3960   -2.8550   -7.1090 ha        1 PF4      0.158000
     40 H12        -1.9910    0.0480    1.0840 ha        1 PF4      0.143000
     41 H25        -2.5930   -0.1350    4.6490 h1        1 PF4      0.044033
     42 H25A       -2.6920   -0.9770    3.0160 h1        1 PF4      0.044033
     43 H25B       -2.6820    0.8570    3.1030 h1        1 PF4      0.044033
     44 HN6         4.4680    0.6190   -3.2100 hn        1 PF4      0.302700
@<TRIPOS>BOND
     1    1   22 ar  
     2    1   23 ar  
     3    1   27 1   
     4    2   15 1   
     5    2   16 1   
     6    2   20 2   
     7    3    5 ar  
     8    3   24 ar  
     9    3   28 1   
    10    4    7 ar  
    11    4    9 1   
    12    4   10 ar  
    13    5   22 ar  
    14    5   29 1   
    15    6   16 2   
    16    6   19 1   
    17    6   30 1   
    18    7   12 ar  
    19    7   31 1   
    20    8    9 1   
    21    8   32 1   
    22    8   33 1   
    23    8   34 1   
    24   10   11 ar  
    25   10   35 1   
    26   11   13 ar  
    27   11   36 1   
    28   12   13 ar  
    29   12   37 1   
    30   13   14 1   
    31   14   15 1   
    32   14   21 2   
    33   15   44 1   
    34   16   17 1   
    35   17   18 1   
    36   18   19 2   
    37   18   38 1   
    38   19   39 1   
    39   20   21 1   
    40   21   22 1   
    41   23   24 ar  
    42   23   40 1   
    43   24   25 1   
    44   25   26 1   
    45   26   41 1   
    46   26   42 1   
    47   26   43 1   
@<TRIPOS>SUBSTRUCTURE
     1 PF4         1 TEMP              0 ****  ****    0 ROOT
