@<TRIPOS>MOLECULE
PF5
   22    22     1     0     0
SMALL
bcc


@<TRIPOS>ATOM
      1 N          -0.1360   -0.9730    0.1600 n3        1 PF5     -0.891800
      2 CA          1.1520   -1.4700    0.6310 c3        1 PF5      0.020500
      3 CB          1.4410   -0.9710    2.0580 c3        1 PF5     -0.024100
      4 CG          2.8820   -1.0850    2.4100 ca        1 PF5     -0.052300
      5 CD1         3.8380   -0.2540    1.7920 ca        1 PF5      0.143400
      6 FD1         3.4600    0.6800    0.8890 f         1 PF5     -0.110400
      7 CD2         3.3220   -2.0110    3.3780 ca        1 PF5      0.143400
      8 FD2         2.4420   -2.7990    4.0340 f         1 PF5     -0.110400
      9 CE1         5.2170   -0.3580    2.1070 ca        1 PF5      0.055400
     10 FE1         6.1170    0.4470    1.5000 f         1 PF5     -0.122900
     11 CE2         4.6980   -2.1300    3.7050 ca        1 PF5      0.055400
     12 FE2         5.1020   -3.0250    4.6350 f         1 PF5     -0.122900
     13 CZ          5.6490   -1.3050    3.0630 ca        1 PF5      0.080900
     14 FZ          6.9620   -1.4130    3.3690 f         1 PF5     -0.123900
     15 C           1.2620   -3.0340    0.6090 c         1 PF5      0.885600
     16 O           0.1940   -3.6940    0.7430 o         1 PF5     -0.832300
     17 OXT         2.4080   -3.5310    0.4430 o         1 PF5     -0.832300
     18 H          -0.2430   -1.2740   -0.7920 hn        1 PF5      0.335800
     19 H2         -0.8570   -1.4380    0.6880 hn        1 PF5      0.335800
     20 HA          1.9470   -1.0580   -0.0540 h1        1 PF5      0.049700
     21 HB2         1.1470    0.1110    2.1530 hc        1 PF5      0.057700
     22 HB3         0.8190   -1.5680    2.7770 hc        1 PF5      0.057700
@<TRIPOS>BOND
     1    1    2 1   
     2    1   18 1   
     3    1   19 1   
     4    2    3 1   
     5    2   15 1   
     6    2   20 1   
     7    3    4 1   
     8    3   21 1   
     9    3   22 1   
    10    4    5 ar  
    11    4    7 ar  
    12    5    6 1   
    13    5    9 ar  
    14    7    8 1   
    15    7   11 ar  
    16    9   10 1   
    17    9   13 ar  
    18   11   12 1   
    19   11   13 ar  
    20   13   14 1   
    21   15   16 1   
    22   15   17 1   
@<TRIPOS>SUBSTRUCTURE
     1 PF5         1 TEMP              0 ****  ****    0 ROOT
