@<TRIPOS>MOLECULE
PF6
   50    54     1     0     0
SMALL
bcc


@<TRIPOS>ATOM
      1 C7          0.4460    0.3650    0.4960 ca        1 PF6     -0.078000
      2 C6         -3.8870    0.8680    1.1800 cc        1 PF6     -0.139300
      3 C13        -2.9290    4.3710    0.7220 ca        1 PF6     -0.243800
      4 C20         4.5930   -0.0310    2.8600 c3        1 PF6      0.075100
      5 C21         6.0600   -0.1090    2.5060 ca        1 PF6      0.417600
      6 C8          0.4030    0.2100    2.9120 ca        1 PF6     -0.078000
      7 C16        -3.7450    5.5070    0.5820 ca        1 PF6      0.391700
      8 C26         8.7530   -0.1620    1.8800 ca        1 PF6     -0.144300
      9 C29        10.3860   -1.8850    3.3720 ca        1 PF6     -0.124000
     10 C30        10.9440   -1.0840    2.3470 ca        1 PF6     -0.125000
     11 C28        10.1440   -0.2400    1.6170 ca        1 PF6     -0.112000
     12 C25         7.8870    0.6970    1.1460 ca        1 PF6     -0.085000
     13 C23         6.5510    0.7320    1.4520 ca        1 PF6     -0.223300
     14 C24         8.1800   -0.9670    2.9140 ca        1 PF6      0.397600
     15 C27         9.0450   -1.8370    3.6560 ca        1 PF6     -0.164300
     16 N22         6.8330   -0.9310    3.2100 nb        1 PF6     -0.658000
     17 O18         3.8880    0.2390    1.6400 os        1 PF6     -0.332900
     18 C15         2.5090    0.2390    1.7400 ca        1 PF6      0.131100
     19 C12         1.7960    0.1770    2.9420 ca        1 PF6     -0.182500
     20 C11         1.8330    0.3300    0.5080 ca        1 PF6     -0.182500
     21 C3         -0.2830    0.3120    1.6950 ca        1 PF6     -0.147500
     22 C1         -1.7360    0.3540    1.6700 cd        1 PF6      0.363800
     23 C2         -2.5700    1.1990    0.8240 cd        1 PF6     -0.239600
     24 N9         -3.7940   -0.1050    2.1740 na        1 PF6     -0.013600
     25 N4         -2.5360   -0.4180    2.4710 nc        1 PF6     -0.507800
     26 C5         -2.1130    2.1700   -0.1790 c3        1 PF6      0.035200
     27 C10        -2.9770    3.3820   -0.2690 ca        1 PF6     -0.040300
     28 N19        -4.5760    5.7050   -0.4610 nb        1 PF6     -0.666000
     29 C17        -4.6090    4.7490   -1.4080 ca        1 PF6      0.391700
     30 C14        -3.8340    3.5760   -1.3590 ca        1 PF6     -0.243800
     31 H7         -0.0890    0.4230   -0.4640 ha        1 PF6      0.143000
     32 H6         -4.8420    1.2460    0.8170 h4        1 PF6      0.182000
     33 H13        -2.2700    4.2620    1.5930 ha        1 PF6      0.146000
     34 H20         4.4330    0.8210    3.5750 h1        1 PF6      0.064700
     35 H20A        4.2170   -0.9880    3.3100 h1        1 PF6      0.064700
     36 H8         -0.1600    0.1560    3.8570 ha        1 PF6      0.143000
     37 H16        -3.7340    6.3060    1.3440 h4        1 PF6      0.021600
     38 H29        11.0490   -2.5540    3.9430 ha        1 PF6      0.136000
     39 H30        12.0230   -1.1480    2.1460 ha        1 PF6      0.135000
     40 H28        10.5650    0.3880    0.8170 ha        1 PF6      0.135000
     41 H25         8.3080    1.3210    0.3440 ha        1 PF6      0.140000
     42 H23         5.8420    1.3730    0.9090 ha        1 PF6      0.160000
     43 H27         8.6140   -2.4620    4.4540 ha        1 PF6      0.150000
     44 H12         2.3130    0.1010    3.9090 ha        1 PF6      0.145500
     45 H11         2.4120    0.3670   -0.4250 ha        1 PF6      0.145500
     46 H5         -1.0620    2.4910    0.0730 hc        1 PF6      0.063700
     47 H5A        -2.0700    1.6640   -1.1850 hc        1 PF6      0.063700
     48 H17        -5.2950    4.9350   -2.2540 h4        1 PF6      0.021600
     49 H14        -3.9010    2.8340   -2.1650 ha        1 PF6      0.146000
     50 HN9        -4.5440   -0.5620    2.6380 hn        1 PF6      0.323700
@<TRIPOS>BOND
     1    1   20 ar  
     2    1   21 ar  
     3    1   31 1   
     4    2   23 2   
     5    2   24 1   
     6    2   32 1   
     7    3    7 ar  
     8    3   27 ar  
     9    3   33 1   
    10    4    5 1   
    11    4   17 1   
    12    4   34 1   
    13    4   35 1   
    14    5   13 ar  
    15    5   16 ar  
    16    6   19 ar  
    17    6   21 ar  
    18    6   36 1   
    19    7   28 ar  
    20    7   37 1   
    21    8   11 ar  
    22    8   12 ar  
    23    8   14 ar  
    24    9   10 ar  
    25    9   15 ar  
    26    9   38 1   
    27   10   11 ar  
    28   10   39 1   
    29   11   40 1   
    30   12   13 ar  
    31   12   41 1   
    32   13   42 1   
    33   14   15 ar  
    34   14   16 ar  
    35   15   43 1   
    36   17   18 1   
    37   18   19 ar  
    38   18   20 ar  
    39   19   44 1   
    40   20   45 1   
    41   21   22 1   
    42   22   23 1   
    43   22   25 2   
    44   23   26 1   
    45   24   25 1   
    46   24   50 1   
    47   26   27 1   
    48   26   46 1   
    49   26   47 1   
    50   27   30 ar  
    51   28   29 ar  
    52   29   30 ar  
    53   29   48 1   
    54   30   49 1   
@<TRIPOS>SUBSTRUCTURE
     1 PF6         1 TEMP              0 ****  ****    0 ROOT
