@<TRIPOS>MOLECULE
PF6
   50    54     1     0     0
SMALL
bcc


@<TRIPOS>ATOM
      1 C7          0.4500    0.3950    0.4750 ca        1 PF6     -0.078000
      2 C6         -3.8860    0.8830    1.1530 cc        1 PF6     -0.139300
      3 C13        -2.9250    4.3960    0.7930 ca        1 PF6     -0.243800
      4 C20         4.5870   -0.0700    2.8450 c3        1 PF6      0.075100
      5 C21         6.0550   -0.1420    2.4940 ca        1 PF6      0.417600
      6 C8          0.3960    0.1740    2.8850 ca        1 PF6     -0.078000
      7 C16        -3.7400    5.5350    0.6790 ca        1 PF6      0.391700
      8 C26         8.7500   -0.1820    1.8780 ca        1 PF6     -0.144300
      9 C29        10.3740   -1.9520    3.3240 ca        1 PF6     -0.124000
     10 C30        10.9370   -1.1220    2.3250 ca        1 PF6     -0.125000
     11 C28        10.1420   -0.2550    1.6170 ca        1 PF6     -0.112000
     12 C25         7.8890    0.7010    1.1660 ca        1 PF6     -0.085000
     13 C23         6.5520    0.7290    1.4670 ca        1 PF6     -0.223300
     14 C24         8.1720   -1.0160    2.8840 ca        1 PF6      0.397600
     15 C27         9.0320   -1.9090    3.6040 ca        1 PF6     -0.164300
     16 N22         6.8230   -0.9860    3.1760 nb        1 PF6     -0.658000
     17 O18         3.8870    0.2340    1.6300 os        1 PF6     -0.332900
     18 C15         2.5080    0.2330    1.7240 ca        1 PF6      0.131100
     19 C12         1.7900    0.1390    2.9210 ca        1 PF6     -0.182500
     20 C11         1.8370    0.3580    0.4920 ca        1 PF6     -0.182500
     21 C3         -0.2840    0.3100    1.6690 ca        1 PF6     -0.147500
     22 C1         -1.7370    0.3540    1.6390 cd        1 PF6      0.363800
     23 C2         -2.5660    1.2220    0.8120 cd        1 PF6     -0.239600
     24 N9         -3.7970   -0.1170    2.1220 na        1 PF6     -0.013600
     25 N4         -2.5410   -0.4390    2.4150 nc        1 PF6     -0.507800
     26 C5         -2.1050    2.2190   -0.1620 c3        1 PF6      0.035200
     27 C10        -2.9680    3.4330   -0.2240 ca        1 PF6     -0.040300
     28 N19        -4.5660    5.7610   -0.3620 nb        1 PF6     -0.666000
     29 C17        -4.5940    4.8300   -1.3350 ca        1 PF6      0.391700
     30 C14        -3.8190    3.6570   -1.3130 ca        1 PF6     -0.243800
     31 H7         -0.0810    0.4800   -0.4860 ha        1 PF6      0.143000
     32 H6         -4.8390    1.2710    0.7970 h4        1 PF6      0.182000
     33 H13        -2.2700    4.2630    1.6640 ha        1 PF6      0.146000
     34 H20         4.4250    0.7610    3.5830 h1        1 PF6      0.064700
     35 H20A        4.2070   -1.0390    3.2650 h1        1 PF6      0.064700
     36 H8         -0.1700    0.0940    3.8260 ha        1 PF6      0.143000
     37 H16        -3.7330    6.3140    1.4620 h4        1 PF6      0.021600
     38 H29        11.0330   -2.6390    3.8770 ha        1 PF6      0.136000
     39 H30        12.0170   -1.1830    2.1270 ha        1 PF6      0.135000
     40 H28        10.5670    0.3950    0.8380 ha        1 PF6      0.135000
     41 H25         8.3140    1.3480    0.3840 ha        1 PF6      0.140000
     42 H23         5.8460    1.3870    0.9410 ha        1 PF6      0.160000
     43 H27         8.5970   -2.5570    4.3810 ha        1 PF6      0.150000
     44 H12         2.3020    0.0360    3.8870 ha        1 PF6      0.145500
     45 H11         2.4200    0.4210   -0.4380 ha        1 PF6      0.145500
     46 H5         -1.0550    2.5340    0.1040 hc        1 PF6      0.063700
     47 H5A        -2.0570    1.7400   -1.1810 hc        1 PF6      0.063700
     48 H17        -5.2760    5.0390   -2.1790 h4        1 PF6      0.021600
     49 H14        -3.8820    2.9360   -2.1390 ha        1 PF6      0.146000
     50 HN9        -4.5490   -0.5860    2.5690 hn        1 PF6      0.323700
@<TRIPOS>BOND
     1    1   20 ar  
     2    1   21 ar  
     3    1   31 1   
     4    2   23 2   
     5    2   24 1   
     6    2   32 1   
     7    3    7 ar  
     8    3   27 ar  
     9    3   33 1   
    10    4    5 1   
    11    4   17 1   
    12    4   34 1   
    13    4   35 1   
    14    5   13 ar  
    15    5   16 ar  
    16    6   19 ar  
    17    6   21 ar  
    18    6   36 1   
    19    7   28 ar  
    20    7   37 1   
    21    8   11 ar  
    22    8   12 ar  
    23    8   14 ar  
    24    9   10 ar  
    25    9   15 ar  
    26    9   38 1   
    27   10   11 ar  
    28   10   39 1   
    29   11   40 1   
    30   12   13 ar  
    31   12   41 1   
    32   13   42 1   
    33   14   15 ar  
    34   14   16 ar  
    35   15   43 1   
    36   17   18 1   
    37   18   19 ar  
    38   18   20 ar  
    39   19   44 1   
    40   20   45 1   
    41   21   22 1   
    42   22   23 1   
    43   22   25 2   
    44   23   26 1   
    45   24   25 1   
    46   24   50 1   
    47   26   27 1   
    48   26   46 1   
    49   26   47 1   
    50   27   30 ar  
    51   28   29 ar  
    52   29   30 ar  
    53   29   48 1   
    54   30   49 1   
@<TRIPOS>SUBSTRUCTURE
     1 PF6         1 TEMP              0 ****  ****    0 ROOT
