@<TRIPOS>MOLECULE
PF6
   50    54     1     0     0
SMALL
bcc


@<TRIPOS>ATOM
      1 C7         -1.5870    0.6980    0.8650 ca        1 PF6     -0.078000
      2 C6         -5.7600    1.1680   -0.4970 cc        1 PF6     -0.139300
      3 C13        -5.5140   -2.4830   -0.5350 ca        1 PF6     -0.243800
      4 C20         2.9090    0.6120   -0.7860 c3        1 PF6      0.075100
      5 C21         4.2850    0.3470   -0.2210 ca        1 PF6      0.417600
      6 C8         -1.1890    1.2130   -1.4670 ca        1 PF6     -0.078000
      7 C16        -6.5250   -3.4430   -0.7120 ca        1 PF6      0.391700
      8 C26         6.8000   -0.2260    0.7760 ca        1 PF6     -0.144300
      9 C29         8.9340    1.3470   -0.1380 ca        1 PF6     -0.124000
     10 C30         9.1630    0.3060    0.7950 ca        1 PF6     -0.125000
     11 C28         8.1180   -0.4640    1.2420 ca        1 PF6     -0.112000
     12 C25         5.6880   -0.9990    1.2140 ca        1 PF6     -0.085000
     13 C23         4.4380   -0.7230    0.7230 ca        1 PF6     -0.223300
     14 C24         6.5590    0.8220   -0.1660 ca        1 PF6      0.397600
     15 C27         7.6730    1.6060   -0.6120 ca        1 PF6     -0.164300
     16 N22         5.2960    1.0970   -0.6500 nb        1 PF6     -0.658000
     17 O18         1.9700    0.3090    0.2550 os        1 PF6     -0.332900
     18 C15         0.6500    0.5960   -0.0350 ca        1 PF6      0.131100
     19 C12         0.1740    0.9750   -1.2960 ca        1 PF6     -0.182500
     20 C11        -0.2320    0.4600    1.0540 ca        1 PF6     -0.182500
     21 C3         -2.0800    1.0710   -0.3960 ca        1 PF6     -0.147500
     22 C1         -3.5010    1.3130   -0.5820 cd        1 PF6      0.363800
     23 C2         -4.5990    0.5340   -0.0250 cd        1 PF6     -0.239600
     24 N9         -5.3320    2.2400   -1.2810 na        1 PF6     -0.013600
     25 N4         -4.0070    2.3370   -1.3390 nc        1 PF6     -0.507800
     26 C5         -4.4950   -0.6440    0.8450 c3        1 PF6      0.035200
     27 C10        -5.5570   -1.6610    0.5980 ca        1 PF6     -0.040300
     28 N19        -7.5430   -3.6230    0.1520 nb        1 PF6     -0.666000
     29 C17        -7.5710   -2.8290    1.2400 ca        1 PF6      0.391700
     30 C14        -6.6070   -1.8400    1.5070 ca        1 PF6     -0.243800
     31 H7         -2.2800    0.6050    1.7150 ha        1 PF6      0.143000
     32 H6         -6.8140    0.9370   -0.3450 h4        1 PF6      0.182000
     33 H13        -4.7070   -2.3800   -1.2730 ha        1 PF6      0.146000
     34 H20         2.7850    1.6810   -1.1070 h1        1 PF6      0.064700
     35 H20A        2.7300   -0.0750   -1.6570 h1        1 PF6      0.064700
     36 H8         -1.5640    1.5180   -2.4570 ha        1 PF6      0.143000
     37 H16        -6.5230   -4.1080   -1.5950 h4        1 PF6      0.021600
     38 H29         9.7890    1.9500   -0.4800 ha        1 PF6      0.136000
     39 H30        10.1870    0.1260    1.1540 ha        1 PF6      0.135000
     40 H28         8.2820   -1.2750    1.9670 ha        1 PF6      0.135000
     41 H25         5.8520   -1.8070    1.9430 ha        1 PF6      0.140000
     42 H23         3.5470   -1.2860    1.0370 ha        1 PF6      0.160000
     43 H27         7.4990    2.4170   -1.3370 ha        1 PF6      0.150000
     44 H12         0.8530    1.0890   -2.1510 ha        1 PF6      0.145500
     45 H11         0.1630    0.1710    2.0370 ha        1 PF6      0.145500
     46 H5         -3.4880   -1.1270    0.6890 hc        1 PF6      0.063700
     47 H5A        -4.5370   -0.3110    1.9210 hc        1 PF6      0.063700
     48 H17        -8.4120   -2.9980    1.9360 h4        1 PF6      0.021600
     49 H14        -6.6810   -1.2250    2.4140 ha        1 PF6      0.146000
     50 HN9        -5.9020    2.8990   -1.7570 hn        1 PF6      0.323700
@<TRIPOS>BOND
     1    1   20 ar  
     2    1   21 ar  
     3    1   31 1   
     4    2   23 2   
     5    2   24 1   
     6    2   32 1   
     7    3    7 ar  
     8    3   27 ar  
     9    3   33 1   
    10    4    5 1   
    11    4   17 1   
    12    4   34 1   
    13    4   35 1   
    14    5   13 ar  
    15    5   16 ar  
    16    6   19 ar  
    17    6   21 ar  
    18    6   36 1   
    19    7   28 ar  
    20    7   37 1   
    21    8   11 ar  
    22    8   12 ar  
    23    8   14 ar  
    24    9   10 ar  
    25    9   15 ar  
    26    9   38 1   
    27   10   11 ar  
    28   10   39 1   
    29   11   40 1   
    30   12   13 ar  
    31   12   41 1   
    32   13   42 1   
    33   14   15 ar  
    34   14   16 ar  
    35   15   43 1   
    36   17   18 1   
    37   18   19 ar  
    38   18   20 ar  
    39   19   44 1   
    40   20   45 1   
    41   21   22 1   
    42   22   23 1   
    43   22   25 2   
    44   23   26 1   
    45   24   25 1   
    46   24   50 1   
    47   26   27 1   
    48   26   46 1   
    49   26   47 1   
    50   27   30 ar  
    51   28   29 ar  
    52   29   30 ar  
    53   29   48 1   
    54   30   49 1   
@<TRIPOS>SUBSTRUCTURE
     1 PF6         1 TEMP              0 ****  ****    0 ROOT
