@<TRIPOS>MOLECULE
PF7
   37    39     1     0     0
SMALL
bcc


@<TRIPOS>ATOM
      1 O19        -0.2390    0.5310    0.4750 o         1 PF7     -0.834300
      2 C18         0.9770    0.3770    0.1570 c         1 PF7      0.990600
      3 N15         1.8780   -0.2020    1.1650 n         1 PF7     -0.485800
      4 C16         1.4570   -0.1310    2.5380 c3        1 PF7      0.086000
      5 C17         1.9840    1.0770    3.3250 c3        1 PF7     -0.106400
      6 C12         3.4930    1.1970    3.1880 c3        1 PF7     -0.054700
      7 C13         3.8810    1.2150    1.7170 c3        1 PF7     -0.106400
      8 C14         3.2880    0.0070    0.9790 c3        1 PF7      0.086000
      9 C11         4.0170    2.4550    3.8760 c3        1 PF7     -0.039100
     10 C9          3.9930    2.3590    5.3570 ca        1 PF7     -0.169600
     11 C10         2.8890    2.6980    6.1050 ca        1 PF7     -0.089000
     12 C3          2.9390    2.5980    7.5240 ca        1 PF7     -0.140300
     13 C4          1.8280    2.9330    8.3400 ca        1 PF7     -0.106000
     14 C5          1.9110    2.8280    9.7070 ca        1 PF7     -0.138000
     15 C6          3.1080    2.3840   10.3160 ca        1 PF7     -0.136000
     16 C1          4.2030    2.0490    9.5590 ca        1 PF7     -0.166300
     17 C2          4.1510    2.1450    8.1310 ca        1 PF7      0.384600
     18 N7          5.2560    1.8010    7.3740 nb        1 PF7     -0.672000
     19 C8          5.1620    1.9060    6.0620 ca        1 PF7      0.417200
     20 OXT         1.4640    0.6490   -0.9790 o         1 PF7     -0.834300
     21 H161        0.3300   -0.1160    2.5650 h1        1 PF7      0.039450
     22 H162        1.8160   -1.0640    3.0640 h1        1 PF7      0.039450
     23 H141        3.8300   -0.9140    1.3450 h1        1 PF7      0.039450
     24 H142        3.4890    0.1240   -0.1240 h1        1 PF7      0.039450
     25 H171        1.4940    2.0090    2.9420 hc        1 PF7      0.031700
     26 H172        1.7090    0.9630    4.4050 hc        1 PF7      0.031700
     27 H12         3.9690    0.2980    3.6710 hc        1 PF7      0.039700
     28 H131        3.5090    2.1600    1.2420 hc        1 PF7      0.031700
     29 H132        4.9950    1.1950    1.6170 hc        1 PF7      0.031700
     30 H111        5.0720    2.6420    3.5350 hc        1 PF7      0.047200
     31 H112        3.3990    3.3330    3.5450 hc        1 PF7      0.047200
     32 H10         1.9610    3.0400    5.6200 ha        1 PF7      0.149000
     33 H8          6.0590    1.6160    5.4820 h4        1 PF7      0.021100
     34 H4          0.9020    3.2730    7.8530 ha        1 PF7      0.135000
     35 H5          1.0510    3.0850   10.3420 ha        1 PF7      0.126000
     36 H6          3.1490    2.3070   11.4120 ha        1 PF7      0.125000
     37 H1          5.1320    1.7000   10.0350 ha        1 PF7      0.141000
@<TRIPOS>BOND
     1    1    2 1   
     2    2    3 1   
     3    2   20 1   
     4    3    4 1   
     5    3    8 1   
     6    4    5 1   
     7    4   21 1   
     8    4   22 1   
     9    5    6 1   
    10    5   25 1   
    11    5   26 1   
    12    6    7 1   
    13    6    9 1   
    14    6   27 1   
    15    7    8 1   
    16    7   28 1   
    17    7   29 1   
    18    8   23 1   
    19    8   24 1   
    20    9   10 1   
    21    9   30 1   
    22    9   31 1   
    23   10   11 ar  
    24   10   19 ar  
    25   11   12 ar  
    26   11   32 1   
    27   12   13 ar  
    28   12   17 ar  
    29   13   14 ar  
    30   13   34 1   
    31   14   15 ar  
    32   14   35 1   
    33   15   16 ar  
    34   15   36 1   
    35   16   17 ar  
    36   16   37 1   
    37   17   18 ar  
    38   18   19 ar  
    39   19   33 1   
@<TRIPOS>SUBSTRUCTURE
     1 PF7         1 TEMP              0 ****  ****    0 ROOT
