@<TRIPOS>MOLECULE
PF7
   37    39     1     0     0
SMALL
bcc


@<TRIPOS>ATOM
      1 O19        50.5690  -15.5360  -34.2130 o         1 PF7     -0.834300
      2 C18        50.3640  -15.4630  -35.4600 c         1 PF7      0.990600
      3 N15        49.1680  -14.7390  -35.9140 n         1 PF7     -0.485800
      4 C16        48.1060  -14.5660  -34.9590 c3        1 PF7      0.086000
      5 C17        47.0020  -15.6310  -35.0040 c3        1 PF7     -0.106400
      6 C12        46.4710  -15.8030  -36.4170 c3        1 PF7     -0.054700
      7 C13        47.6210  -16.0800  -37.3740 c3        1 PF7     -0.106400
      8 C14        48.7090  -15.0040  -37.2500 c3        1 PF7      0.086000
      9 C11        45.4500  -16.9350  -36.4960 c3        1 PF7     -0.039100
     10 C9         44.1490  -16.5870  -35.8730 ca        1 PF7     -0.169600
     11 C10        43.8950  -16.7710  -34.5330 ca        1 PF7     -0.089000
     12 C3         42.6180  -16.4310  -34.0020 ca        1 PF7     -0.140300
     13 C4         42.3070  -16.6000  -32.6280 ca        1 PF7     -0.106000
     14 C5         41.0650  -16.2640  -32.1490 ca        1 PF7     -0.138000
     15 C6         40.0810  -15.7460  -33.0230 ca        1 PF7     -0.136000
     16 C1         40.3460  -15.5680  -34.3580 ca        1 PF7     -0.166300
     17 C2         41.6310  -15.9060  -34.8900 ca        1 PF7      0.384600
     18 N7         41.8930  -15.7180  -36.2360 nb        1 PF7     -0.672000
     19 C8         43.0920  -16.0440  -36.6820 ca        1 PF7      0.417200
     20 OXT        51.1360  -15.9350  -36.3460 o         1 PF7     -0.834300
     21 H161       48.5540  -14.5530  -33.9250 h1        1 PF7      0.039450
     22 H162       47.6200  -13.5640  -35.1520 h1        1 PF7      0.039450
     23 H141       48.2870  -14.0450  -37.6730 h1        1 PF7      0.039450
     24 H142       49.5940  -15.3120  -37.8760 h1        1 PF7      0.039450
     25 H171       47.4140  -16.6050  -34.6340 hc        1 PF7      0.031700
     26 H172       46.1680  -15.3290  -34.3200 hc        1 PF7      0.031700
     27 H12        45.9700  -14.8440  -36.7310 hc        1 PF7      0.039700
     28 H131       48.0640  -17.0840  -37.1480 hc        1 PF7      0.031700
     29 H132       47.2440  -16.0990  -38.4280 hc        1 PF7      0.031700
     30 H111       45.2830  -17.1980  -37.5760 hc        1 PF7      0.047200
     31 H112       45.8770  -17.8440  -35.9930 hc        1 PF7      0.047200
     32 H10        44.6700  -17.1720  -33.8600 ha        1 PF7      0.149000
     33 H8         43.2750  -15.8750  -37.7600 h4        1 PF7      0.021100
     34 H4         43.0840  -17.0000  -31.9580 ha        1 PF7      0.135000
     35 H5         40.8210  -16.3920  -31.0850 ha        1 PF7      0.126000
     36 H6         39.0930  -15.4840  -32.6150 ha        1 PF7      0.125000
     37 H1         39.5790  -15.1610  -35.0350 ha        1 PF7      0.141000
@<TRIPOS>BOND
     1    1    2 1   
     2    2    3 1   
     3    2   20 1   
     4    3    4 1   
     5    3    8 1   
     6    4    5 1   
     7    4   21 1   
     8    4   22 1   
     9    5    6 1   
    10    5   25 1   
    11    5   26 1   
    12    6    7 1   
    13    6    9 1   
    14    6   27 1   
    15    7    8 1   
    16    7   28 1   
    17    7   29 1   
    18    8   23 1   
    19    8   24 1   
    20    9   10 1   
    21    9   30 1   
    22    9   31 1   
    23   10   11 ar  
    24   10   19 ar  
    25   11   12 ar  
    26   11   32 1   
    27   12   13 ar  
    28   12   17 ar  
    29   13   14 ar  
    30   13   34 1   
    31   14   15 ar  
    32   14   35 1   
    33   15   16 ar  
    34   15   36 1   
    35   16   17 ar  
    36   16   37 1   
    37   17   18 ar  
    38   18   19 ar  
    39   19   33 1   
@<TRIPOS>SUBSTRUCTURE
     1 PF7         1 TEMP              0 ****  ****    0 ROOT
