@<TRIPOS>MOLECULE
PF7
   37    39     1     0     0
SMALL
bcc


@<TRIPOS>ATOM
      1 O19        -0.2360    0.5480    0.4690 o         1 PF7     -0.834300
      2 C18         0.9800    0.3860    0.1540 c         1 PF7      0.990600
      3 N15         1.8740   -0.1990    1.1640 n         1 PF7     -0.485800
      4 C16         1.4510   -0.1230    2.5360 c3        1 PF7      0.086000
      5 C17         1.9830    1.0820    3.3230 c3        1 PF7     -0.106400
      6 C12         3.4940    1.1920    3.1900 c3        1 PF7     -0.054700
      7 C13         3.8850    1.2060    1.7190 c3        1 PF7     -0.106400
      8 C14         3.2870    0.0010    0.9810 c3        1 PF7      0.086000
      9 C11         4.0240    2.4470    3.8770 c3        1 PF7     -0.039100
     10 C9          3.9970    2.3530    5.3580 ca        1 PF7     -0.169600
     11 C10         2.8930    2.7000    6.1040 ca        1 PF7     -0.089000
     12 C3          2.9400    2.6010    7.5230 ca        1 PF7     -0.140300
     13 C4          1.8290    2.9440    8.3360 ca        1 PF7     -0.106000
     14 C5          1.9090    2.8400    9.7030 ca        1 PF7     -0.138000
     15 C6          3.1020    2.3880   10.3150 ca        1 PF7     -0.136000
     16 C1          4.1960    2.0450    9.5610 ca        1 PF7     -0.166300
     17 C2          4.1470    2.1410    8.1330 ca        1 PF7      0.384600
     18 N7          5.2520    1.7890    7.3780 nb        1 PF7     -0.672000
     19 C8          5.1610    1.8930    6.0660 ca        1 PF7      0.417200
     20 OXT         1.4720    0.6530   -0.9820 o         1 PF7     -0.834300
     21 H161        1.8020   -1.0580    3.0640 h1        1 PF7      0.039450
     22 H162        0.3240   -0.1010    2.5600 h1        1 PF7      0.039450
     23 H141        3.8220   -0.9230    1.3500 h1        1 PF7      0.039450
     24 H142        3.4910    0.1160   -0.1210 h1        1 PF7      0.039450
     25 H171        1.5010    2.0170    2.9380 hc        1 PF7      0.031700
     26 H172        1.7060    0.9710    4.4020 hc        1 PF7      0.031700
     27 H12         3.9620    0.2900    3.6750 hc        1 PF7      0.039700
     28 H131        5.0000    1.1780    1.6220 hc        1 PF7      0.031700
     29 H132        3.5210    2.1520    1.2430 hc        1 PF7      0.031700
     30 H111        5.0810    2.6270    3.5380 hc        1 PF7      0.047200
     31 H112        3.4130    3.3290    3.5450 hc        1 PF7      0.047200
     32 H10         1.9680    3.0470    5.6170 ha        1 PF7      0.149000
     33 H8          6.0570    1.5970    5.4880 h4        1 PF7      0.021100
     34 H4          0.9060    3.2900    7.8470 ha        1 PF7      0.135000
     35 H5          1.0490    3.1030   10.3360 ha        1 PF7      0.126000
     36 H6          3.1400    2.3120   11.4120 ha        1 PF7      0.125000
     37 H1          5.1210    1.6910   10.0390 ha        1 PF7      0.141000
@<TRIPOS>BOND
     1    1    2 1   
     2    2    3 1   
     3    2   20 1   
     4    3    4 1   
     5    3    8 1   
     6    4    5 1   
     7    4   21 1   
     8    4   22 1   
     9    5    6 1   
    10    5   25 1   
    11    5   26 1   
    12    6    7 1   
    13    6    9 1   
    14    6   27 1   
    15    7    8 1   
    16    7   28 1   
    17    7   29 1   
    18    8   23 1   
    19    8   24 1   
    20    9   10 1   
    21    9   30 1   
    22    9   31 1   
    23   10   11 ar  
    24   10   19 ar  
    25   11   12 ar  
    26   11   32 1   
    27   12   13 ar  
    28   12   17 ar  
    29   13   14 ar  
    30   13   34 1   
    31   14   15 ar  
    32   14   35 1   
    33   15   16 ar  
    34   15   36 1   
    35   16   17 ar  
    36   16   37 1   
    37   17   18 ar  
    38   18   19 ar  
    39   19   33 1   
@<TRIPOS>SUBSTRUCTURE
     1 PF7         1 TEMP              0 ****  ****    0 ROOT
