@<TRIPOS>MOLECULE
PF7
   37    39     1     0     0
SMALL
bcc


@<TRIPOS>ATOM
      1 O19        -0.2330    0.5460    0.4670 o         1 PF7     -0.834300
      2 C18         0.9820    0.3850    0.1530 c         1 PF7      0.990600
      3 N15         1.8770   -0.1990    1.1630 n         1 PF7     -0.485800
      4 C16         1.4520   -0.1240    2.5350 c3        1 PF7      0.086000
      5 C17         1.9840    1.0810    3.3230 c3        1 PF7     -0.106400
      6 C12         3.4940    1.1920    3.1900 c3        1 PF7     -0.054700
      7 C13         3.8860    1.2070    1.7200 c3        1 PF7     -0.106400
      8 C14         3.2890    0.0010    0.9810 c3        1 PF7      0.086000
      9 C11         4.0240    2.4480    3.8770 c3        1 PF7     -0.039100
     10 C9          3.9960    2.3540    5.3590 ca        1 PF7     -0.169600
     11 C10         2.8920    2.7000    6.1030 ca        1 PF7     -0.089000
     12 C3          2.9380    2.6010    7.5230 ca        1 PF7     -0.140300
     13 C4          1.8270    2.9420    8.3360 ca        1 PF7     -0.106000
     14 C5          1.9060    2.8380    9.7030 ca        1 PF7     -0.138000
     15 C6          3.0990    2.3880   10.3150 ca        1 PF7     -0.136000
     16 C1          4.1930    2.0460    9.5610 ca        1 PF7     -0.166300
     17 C2          4.1450    2.1420    8.1330 ca        1 PF7      0.384600
     18 N7          5.2510    1.7910    7.3790 nb        1 PF7     -0.672000
     19 C8          5.1600    1.8950    6.0670 ca        1 PF7      0.417200
     20 OXT         1.4750    0.6520   -0.9830 o         1 PF7     -0.834300
     21 H161        0.3260   -0.1020    2.5590 h1        1 PF7      0.039450
     22 H162        1.8040   -1.0580    3.0630 h1        1 PF7      0.039450
     23 H141        3.8250   -0.9220    1.3510 h1        1 PF7      0.039450
     24 H142        3.4940    0.1160   -0.1210 h1        1 PF7      0.039450
     25 H171        1.7060    0.9700    4.4020 hc        1 PF7      0.031700
     26 H172        1.5010    2.0160    2.9370 hc        1 PF7      0.031700
     27 H12         3.9630    0.2910    3.6750 hc        1 PF7      0.039700
     28 H131        3.5220    2.1530    1.2430 hc        1 PF7      0.031700
     29 H132        5.0020    1.1790    1.6230 hc        1 PF7      0.031700
     30 H111        5.0800    2.6280    3.5390 hc        1 PF7      0.047200
     31 H112        3.4120    3.3290    3.5450 hc        1 PF7      0.047200
     32 H10         1.9670    3.0460    5.6170 ha        1 PF7      0.149000
     33 H8          6.0570    1.6000    5.4890 h4        1 PF7      0.021100
     34 H4          0.9030    3.2870    7.8460 ha        1 PF7      0.135000
     35 H5          1.0460    3.1000   10.3360 ha        1 PF7      0.126000
     36 H6          3.1370    2.3120   11.4120 ha        1 PF7      0.125000
     37 H1          5.1190    1.6930   10.0400 ha        1 PF7      0.141000
@<TRIPOS>BOND
     1    1    2 1   
     2    2    3 1   
     3    2   20 1   
     4    3    4 1   
     5    3    8 1   
     6    4    5 1   
     7    4   21 1   
     8    4   22 1   
     9    5    6 1   
    10    5   25 1   
    11    5   26 1   
    12    6    7 1   
    13    6    9 1   
    14    6   27 1   
    15    7    8 1   
    16    7   28 1   
    17    7   29 1   
    18    8   23 1   
    19    8   24 1   
    20    9   10 1   
    21    9   30 1   
    22    9   31 1   
    23   10   11 ar  
    24   10   19 ar  
    25   11   12 ar  
    26   11   32 1   
    27   12   13 ar  
    28   12   17 ar  
    29   13   14 ar  
    30   13   34 1   
    31   14   15 ar  
    32   14   35 1   
    33   15   16 ar  
    34   15   36 1   
    35   16   17 ar  
    36   16   37 1   
    37   17   18 ar  
    38   18   19 ar  
    39   19   33 1   
@<TRIPOS>SUBSTRUCTURE
     1 PF7         1 TEMP              0 ****  ****    0 ROOT
