@<TRIPOS>MOLECULE
PF8
   47    51     1     0     0
SMALL
bcc


@<TRIPOS>ATOM
      1 C7         -1.6710    1.8750   -0.6970 ca        1 PF8     -0.072500
      2 C6         -6.2480    1.4950    0.2030 cc        1 PF8     -0.128300
      3 C13        -0.7640   -0.2900    0.8300 ca        1 PF8     -0.185500
      4 C20         3.7580    0.2430   -0.3220 ca        1 PF8      0.417600
      5 C8         -2.1070    0.0580    0.8430 ca        1 PF8     -0.072500
      6 C16         0.1330    0.4540    0.0380 ca        1 PF8      0.134100
      7 C19         2.3970    0.8430   -0.5880 c3        1 PF8      0.075100
      8 C26         7.1980    1.3650    0.0320 ca        1 PF8     -0.164300
      9 C29         8.6260   -0.5690    0.3600 ca        1 PF8     -0.125000
     10 C28         8.4450    0.8290    0.2310 ca        1 PF8     -0.124000
     11 C23         6.0500    0.5100   -0.0490 ca        1 PF8      0.397600
     12 N21         4.8010    1.0640   -0.2460 nb        1 PF8     -0.658000
     13 C27         7.5480   -1.4160    0.2880 ca        1 PF8     -0.112000
     14 C25         6.2420   -0.9000    0.0840 ca        1 PF8     -0.144300
     15 C24         5.0970   -1.7410    0.0040 ca        1 PF8     -0.085000
     16 C22         3.8620   -1.1830   -0.1990 ca        1 PF8     -0.223300
     17 O18         1.4400    0.0080    0.0790 os        1 PF8     -0.331900
     18 C12        -0.3190    1.5350   -0.7260 ca        1 PF8     -0.185500
     19 C3         -2.5750    1.1400    0.0800 ca        1 PF8     -0.158500
     20 C1         -3.9800    1.5110    0.1220 cd        1 PF8      0.387800
     21 C2         -5.1400    0.6270    0.1130 cd        1 PF8     -0.209300
     22 N9         -5.7340    2.7870    0.2480 na        1 PF8     -0.009600
     23 N4         -4.4040    2.8120    0.2050 nc        1 PF8     -0.509800
     24 C5         -5.2100   -0.8060    0.0050 ca        1 PF8      0.043000
     25 C11        -4.2700   -1.5370   -0.7400 ca        1 PF8     -0.244300
     26 C15        -4.4150   -2.9310   -0.8310 ca        1 PF8      0.393200
     27 N17        -5.4100   -3.6220   -0.2410 nb        1 PF8     -0.668000
     28 C14        -6.3060   -2.9120    0.4730 ca        1 PF8      0.393200
     29 C10        -6.2520   -1.5170    0.6250 ca        1 PF8     -0.244300
     30 H7         -2.0250    2.7320   -1.2910 ha        1 PF8      0.146000
     31 H6         -7.3170    1.2840    0.2240 h4        1 PF8      0.181000
     32 H13        -0.3880   -1.1330    1.4270 ha        1 PF8      0.146500
     33 H8         -2.8170   -0.5200    1.4570 ha        1 PF8      0.146000
     34 H19         2.3170    1.8930   -0.1980 h1        1 PF8      0.064700
     35 H19A        2.1960    0.8260   -1.6930 h1        1 PF8      0.064700
     36 H26         7.0610    2.4530   -0.0680 ha        1 PF8      0.150000
     37 H29         9.6400   -0.9650    0.5190 ha        1 PF8      0.135000
     38 H28         9.3270    1.4860    0.2930 ha        1 PF8      0.136000
     39 H27         7.6750   -2.5040    0.3880 ha        1 PF8      0.135000
     40 H24         5.2240   -2.8290    0.1080 ha        1 PF8      0.140000
     41 H22         2.9470   -1.7890   -0.2600 ha        1 PF8      0.160000
     42 H12         0.3720    2.1240   -1.3460 ha        1 PF8      0.146500
     43 H11        -3.4350   -1.0260   -1.2390 ha        1 PF8      0.147000
     44 H15        -3.6930   -3.5330   -1.4120 h4        1 PF8      0.021100
     45 H14        -7.1110   -3.4990    0.9500 h4        1 PF8      0.021100
     46 H10        -7.0090   -0.9940    1.2240 ha        1 PF8      0.147000
     47 HN9        -6.2450    3.6350    0.3180 hn        1 PF8      0.325700
@<TRIPOS>BOND
     1    1   18 ar  
     2    1   19 ar  
     3    1   30 1   
     4    2   21 2   
     5    2   22 1   
     6    2   31 1   
     7    3    5 ar  
     8    3    6 ar  
     9    3   32 1   
    10    4    7 1   
    11    4   12 ar  
    12    4   16 ar  
    13    5   19 ar  
    14    5   33 1   
    15    6   17 1   
    16    6   18 ar  
    17    7   17 1   
    18    7   34 1   
    19    7   35 1   
    20    8   10 ar  
    21    8   11 ar  
    22    8   36 1   
    23    9   10 ar  
    24    9   13 ar  
    25    9   37 1   
    26   10   38 1   
    27   11   12 ar  
    28   11   14 ar  
    29   13   14 ar  
    30   13   39 1   
    31   14   15 ar  
    32   15   16 ar  
    33   15   40 1   
    34   16   41 1   
    35   18   42 1   
    36   19   20 1   
    37   20   21 1   
    38   20   23 2   
    39   21   24 1   
    40   22   23 1   
    41   22   47 1   
    42   24   25 ar  
    43   24   29 ar  
    44   25   26 ar  
    45   25   43 1   
    46   26   27 ar  
    47   26   44 1   
    48   27   28 ar  
    49   28   29 ar  
    50   28   45 1   
    51   29   46 1   
@<TRIPOS>SUBSTRUCTURE
     1 PF8         1 TEMP              0 ****  ****    0 ROOT
