@<TRIPOS>MOLECULE
PF8
   47    51     1     0     0
SMALL
bcc


@<TRIPOS>ATOM
      1 C7         -0.0660   -0.3970   -0.0880 ca        1 PF8     -0.072500
      2 C6         -4.2860   -0.1750    1.9240 cc        1 PF8     -0.128300
      3 C13         1.5040    0.0810    2.1810 ca        1 PF8     -0.185500
      4 C20         5.6140   -0.3040   -0.0600 ca        1 PF8      0.417600
      5 C8          0.1200    0.1270    2.2690 ca        1 PF8     -0.072500
      6 C16         2.1070   -0.2130    0.9420 ca        1 PF8      0.134100
      7 C19         4.1260   -0.3960   -0.3060 c3        1 PF8      0.075100
      8 C26         8.5940    0.8160   -1.8160 ca        1 PF8     -0.164300
      9 C29        10.5360    0.3760   -0.4300 ca        1 PF8     -0.125000
     10 C28         9.9510    0.8660   -1.6230 ca        1 PF8     -0.124000
     11 C23         7.7410    0.2620   -0.8060 ca        1 PF8      0.397600
     12 N21         6.3770    0.2210   -1.0150 nb        1 PF8     -0.658000
     13 C27         9.7480   -0.1610    0.5570 ca        1 PF8     -0.112000
     14 C25         8.3410   -0.2300    0.3940 ca        1 PF8     -0.144300
     15 C24         7.4860   -0.7760    1.3930 ca        1 PF8     -0.085000
     16 C22         6.1330   -0.8200    1.1750 ca        1 PF8     -0.223300
     17 O18         3.4870   -0.2580    0.9710 os        1 PF8     -0.331900
     18 C12         1.3240   -0.4540   -0.1930 ca        1 PF8     -0.185500
     19 C3         -0.6780   -0.1140    1.1390 ca        1 PF8     -0.158500
     20 C1         -2.1270   -0.0370    1.2380 cd        1 PF8      0.387800
     21 C2         -2.9790   -0.5430    2.3090 cd        1 PF8     -0.209300
     22 N9         -4.1670    0.4860    0.7070 na        1 PF8     -0.009600
     23 N4         -2.9050    0.5790    0.2930 nc        1 PF8     -0.509800
     24 C5         -2.6340   -1.2830    3.4930 ca        1 PF8      0.043000
     25 C11        -1.5600   -2.1880    3.5120 ca        1 PF8     -0.244300
     26 C15        -1.2980   -2.9020    4.6920 ca        1 PF8      0.393200
     27 N17        -2.0200   -2.7730    5.8230 nb        1 PF8     -0.668000
     28 C14        -3.0470   -1.9020    5.7950 ca        1 PF8      0.393200
     29 C10        -3.3930   -1.1410    4.6680 ca        1 PF8     -0.244300
     30 H7         -0.6820   -0.5770   -0.9820 ha        1 PF8      0.146000
     31 H6         -5.2440   -0.3460    2.4130 h4        1 PF8      0.181000
     32 H13         2.1370    0.2730    3.0580 ha        1 PF8      0.146500
     33 H8         -0.3600    0.3540    3.2340 ha        1 PF8      0.146000
     34 H19         3.8850   -1.4060   -0.7340 h1        1 PF8      0.064700
     35 H19A        3.7640    0.4120   -0.9970 h1        1 PF8      0.064700
     36 H26         8.1420    1.1990   -2.7450 ha        1 PF8      0.150000
     37 H29        11.6280    0.4320   -0.3090 ha        1 PF8      0.135000
     38 H28        10.6060    1.2920   -2.3990 ha        1 PF8      0.136000
     39 H27        10.1900   -0.5440    1.4890 ha        1 PF8      0.135000
     40 H24         7.9280   -1.1560    2.3260 ha        1 PF8      0.140000
     41 H22         5.4320   -1.2240    1.9180 ha        1 PF8      0.160000
     42 H12         1.7820   -0.6820   -1.1650 ha        1 PF8      0.146500
     43 H11        -0.9350   -2.3300    2.6200 ha        1 PF8      0.147000
     44 H15        -0.4610   -3.6230    4.7370 h4        1 PF8      0.021100
     45 H14        -3.6230   -1.8110    6.7340 h4        1 PF8      0.021100
     46 H10        -4.2400   -0.4430    4.7070 ha        1 PF8      0.147000
     47 HN9        -4.8990    0.8790    0.1630 hn        1 PF8      0.325700
@<TRIPOS>BOND
     1    1   18 ar  
     2    1   19 ar  
     3    1   30 1   
     4    2   21 2   
     5    2   22 1   
     6    2   31 1   
     7    3    5 ar  
     8    3    6 ar  
     9    3   32 1   
    10    4    7 1   
    11    4   12 ar  
    12    4   16 ar  
    13    5   19 ar  
    14    5   33 1   
    15    6   17 1   
    16    6   18 ar  
    17    7   17 1   
    18    7   34 1   
    19    7   35 1   
    20    8   10 ar  
    21    8   11 ar  
    22    8   36 1   
    23    9   10 ar  
    24    9   13 ar  
    25    9   37 1   
    26   10   38 1   
    27   11   12 ar  
    28   11   14 ar  
    29   13   14 ar  
    30   13   39 1   
    31   14   15 ar  
    32   15   16 ar  
    33   15   40 1   
    34   16   41 1   
    35   18   42 1   
    36   19   20 1   
    37   20   21 1   
    38   20   23 2   
    39   21   24 1   
    40   22   23 1   
    41   22   47 1   
    42   24   25 ar  
    43   24   29 ar  
    44   25   26 ar  
    45   25   43 1   
    46   26   27 ar  
    47   26   44 1   
    48   27   28 ar  
    49   28   29 ar  
    50   28   45 1   
    51   29   46 1   
@<TRIPOS>SUBSTRUCTURE
     1 PF8         1 TEMP              0 ****  ****    0 ROOT
