@<TRIPOS>MOLECULE
PF8
   47    51     1     0     0
SMALL
bcc


@<TRIPOS>ATOM
      1 C7         -0.0650   -0.3900   -0.0880 ca        1 PF8     -0.072500
      2 C6         -4.2860   -0.1790    1.9250 cc        1 PF8     -0.128300
      3 C13         1.5040    0.0750    2.1840 ca        1 PF8     -0.185500
      4 C20         5.6150   -0.2960   -0.0590 ca        1 PF8      0.417600
      5 C8          0.1200    0.1210    2.2720 ca        1 PF8     -0.072500
      6 C16         2.1070   -0.2120    0.9430 ca        1 PF8      0.134100
      7 C19         4.1270   -0.3860   -0.3060 c3        1 PF8      0.075100
      8 C26         8.5940    0.8360   -1.8070 ca        1 PF8     -0.164300
      9 C29        10.5360    0.3880   -0.4240 ca        1 PF8     -0.125000
     10 C28         9.9510    0.8860   -1.6130 ca        1 PF8     -0.124000
     11 C23         7.7410    0.2760   -0.8010 ca        1 PF8      0.397600
     12 N21         6.3770    0.2360   -1.0100 nb        1 PF8     -0.658000
     13 C27         9.7480   -0.1550    0.5600 ca        1 PF8     -0.112000
     14 C25         8.3410   -0.2240    0.3970 ca        1 PF8     -0.144300
     15 C24         7.4860   -0.7770    1.3910 ca        1 PF8     -0.085000
     16 C22         6.1340   -0.8190    1.1730 ca        1 PF8     -0.223300
     17 O18         3.4870   -0.2570    0.9720 os        1 PF8     -0.331900
     18 C12         1.3240   -0.4460   -0.1930 ca        1 PF8     -0.185500
     19 C3         -0.6780   -0.1140    1.1410 ca        1 PF8     -0.158500
     20 C1         -2.1270   -0.0370    1.2400 cd        1 PF8      0.387800
     21 C2         -2.9790   -0.5480    2.3070 cd        1 PF8     -0.209300
     22 N9         -4.1670    0.4890    0.7110 na        1 PF8     -0.009600
     23 N4         -2.9050    0.5840    0.2980 nc        1 PF8     -0.509800
     24 C5         -2.6350   -1.2960    3.4880 ca        1 PF8      0.043000
     25 C11        -1.5610   -2.2000    3.5020 ca        1 PF8     -0.244300
     26 C15        -1.2990   -2.9220    4.6780 ca        1 PF8      0.393200
     27 N17        -2.0210   -2.7990    5.8090 nb        1 PF8     -0.668000
     28 C14        -3.0470   -1.9270    5.7870 ca        1 PF8      0.393200
     29 C10        -3.3940   -1.1590    4.6630 ca        1 PF8     -0.244300
     30 H7         -0.6820   -0.5650   -0.9830 ha        1 PF8      0.146000
     31 H6         -5.2440   -0.3530    2.4120 h4        1 PF8      0.181000
     32 H13         2.1370    0.2620    3.0630 ha        1 PF8      0.146500
     33 H8         -0.3600    0.3420    3.2380 ha        1 PF8      0.146000
     34 H19         3.8860   -1.3950   -0.7390 h1        1 PF8      0.064700
     35 H19A        3.7650    0.4250   -0.9920 h1        1 PF8      0.064700
     36 H26         8.1420    1.2250   -2.7330 ha        1 PF8      0.150000
     37 H29        11.6280    0.4440   -0.3010 ha        1 PF8      0.135000
     38 H28        10.6060    1.3170   -2.3860 ha        1 PF8      0.136000
     39 H27        10.1900   -0.5450    1.4890 ha        1 PF8      0.135000
     40 H24         7.9280   -1.1620    2.3220 ha        1 PF8      0.140000
     41 H22         5.4330   -1.2290    1.9140 ha        1 PF8      0.160000
     42 H12         1.7820   -0.6690   -1.1660 ha        1 PF8      0.146500
     43 H11        -0.9360   -2.3380    2.6090 ha        1 PF8      0.147000
     44 H15        -0.4620   -3.6430    4.7190 h4        1 PF8      0.021100
     45 H14        -3.6240   -1.8410    6.7250 h4        1 PF8      0.021100
     46 H10        -4.2400   -0.4620    4.7060 ha        1 PF8      0.147000
     47 HN9        -4.8990    0.8860    0.1690 hn        1 PF8      0.325700
@<TRIPOS>BOND
     1    1   18 ar  
     2    1   19 ar  
     3    1   30 1   
     4    2   21 2   
     5    2   22 1   
     6    2   31 1   
     7    3    5 ar  
     8    3    6 ar  
     9    3   32 1   
    10    4    7 1   
    11    4   12 ar  
    12    4   16 ar  
    13    5   19 ar  
    14    5   33 1   
    15    6   17 1   
    16    6   18 ar  
    17    7   17 1   
    18    7   34 1   
    19    7   35 1   
    20    8   10 ar  
    21    8   11 ar  
    22    8   36 1   
    23    9   10 ar  
    24    9   13 ar  
    25    9   37 1   
    26   10   38 1   
    27   11   12 ar  
    28   11   14 ar  
    29   13   14 ar  
    30   13   39 1   
    31   14   15 ar  
    32   15   16 ar  
    33   15   40 1   
    34   16   41 1   
    35   18   42 1   
    36   19   20 1   
    37   20   21 1   
    38   20   23 2   
    39   21   24 1   
    40   22   23 1   
    41   22   47 1   
    42   24   25 ar  
    43   24   29 ar  
    44   25   26 ar  
    45   25   43 1   
    46   26   27 ar  
    47   26   44 1   
    48   27   28 ar  
    49   28   29 ar  
    50   28   45 1   
    51   29   46 1   
@<TRIPOS>SUBSTRUCTURE
     1 PF8         1 TEMP              0 ****  ****    0 ROOT
