@<TRIPOS>MOLECULE
PF9
   50    50     1     0     0
SMALL
bcc


@<TRIPOS>ATOM
      1 C4         -0.3260   -0.3450   -0.1190 c2        1 PF9     -0.110000
      2 C7          0.6760    0.8050    2.3070 c1        1 PF9     -0.027000
      3 C6          1.3670   -2.9830    7.2560 c2        1 PF9     -0.335000
      4 C9         -1.8190   -2.2250    3.6200 c1        1 PF9      0.092000
      5 C20         8.1790    0.2420    1.8390 c2        1 PF9     -0.034000
      6 C21         8.4370   -1.3060   -0.0510 c2        1 PF9     -0.076000
      7 C8          1.0770   -0.3920    0.1860 c2        1 PF9     -0.151000
      8 C18         7.4360   -0.6400    0.8570 c2        1 PF9      0.045000
      9 C19         7.6640    0.3970    3.1780 c2        1 PF9     -0.447000
     10 C26        -3.7430   -0.3470    1.1480 c2        1 PF9     -0.247000
     11 N28        -4.4550    0.8860   -0.6010 na        1 PF9     -0.162000
     12 C27        -4.8980    0.0880    0.4220 c2        1 PF9     -0.072000
     13 C2         -3.7830   -1.2260    2.2510 c2        1 PF9      0.278000
     14 C10         0.7900   -3.3460    6.1340 c1        1 PF9      0.015000
     15 N12         0.3430   -3.8240    5.0910 n2        1 PF9     -0.224000
     16 C5         -2.7520   -1.7110    2.9460 c1        1 PF9     -0.584000
     17 N29        -3.1270    1.0120   -0.6070 n2        1 PF9     -0.103000
     18 C25        -2.6330    0.2850    0.4410 c2        1 PF9     -0.007000
     19 C1         -1.2120    0.2080    0.7460 c2        1 PF9     -0.046000
     20 C11         1.5420    0.1560    1.3530 c2        1 PF9     -0.006000
     21 C3         -0.7500    0.7820    2.0350 c3        1 PF9     -0.204000
     22 O13         2.8660    0.1770    1.7390 os        1 PF9     -0.177000
     23 C14         3.7780   -0.4830    0.8540 c3        1 PF9     -0.020000
     24 C15         5.1440   -0.3640    1.5580 c3        1 PF9     -0.118000
     25 C17         6.5080    0.0880    3.7310 c1        1 PF9      0.214000
     26 C22         9.3400    0.8630    1.4780 c2        1 PF9     -0.117000
     27 C24         9.7900    0.7240    0.0850 c2        1 PF9     -0.096000
     28 C23         9.3600   -0.4300   -0.4140 c1        1 PF9     -0.139000
     29 N16         6.1830   -0.8750    0.7190 n2        1 PF9     -0.162000
     30 H4         -0.6510   -0.7750   -1.0790 ha        1 PF9      0.140000
     31 H7         -1.2010    0.1770    2.8920 hc        1 PF9      0.180500
     32 H6          2.2990   -2.4070    7.2590 ha        1 PF9      0.141500
     33 H9         -0.3500   -3.3300    4.5480 hn        1 PF9      0.243000
     34 H21         8.3840   -2.3790   -0.2440 ha        1 PF9      0.174000
     35 H8          1.7350   -0.8730   -0.5530 ha        1 PF9      0.141000
     36 H19         5.2870    0.7230    1.8360 h1        1 PF9      0.125000
     37 H30        -5.0330    1.3920   -1.3420 hn        1 PF9      0.340000
     38 H30A       -6.0120    3.3150   -2.4550 ha        1 PF9      0.066000
     39 H30B       -5.8340    1.8650   -3.5820 ha        1 PF9      0.066000
     40 H27        -5.9500   -0.1390    0.5980 h4        1 PF9      0.179000
     41 H10         0.9460   -3.2500    8.2300 ha        1 PF9      0.141500
     42 H5         -4.8080   -1.5440    2.5510 ha        1 PF9      0.118000
     43 H3         -1.1430    1.8330    2.1610 hc        1 PF9      0.180500
     44 H14         3.4820   -1.5560    0.7240 h1        1 PF9      0.088500
     45 H14A        3.7820    0.0380   -0.1390 h1        1 PF9      0.088500
     46 H17         5.0780   -0.9730    2.5150 h1        1 PF9      0.125000
     47 H22         8.3870    0.8510    3.9010 ha        1 PF9      0.197000
     48 H24         9.8950    1.5230    2.1560 ha        1 PF9      0.142000
     49 H23        10.3080    1.5370   -0.4270 ha        1 PF9      0.163000
     50 C30        -5.7370    2.2590   -2.5640 c1        1 PF9     -0.019000
@<TRIPOS>BOND
     1    1    7 1   
     2    1   19 1   
     3    1   30 1   
     4    2   20 1   
     5    2   21 1   
     6    3   14 1   
     7    3   32 1   
     8    3   41 1   
     9    4   16 1   
    10    5    8 1   
    11    5    9 1   
    12    5   26 1   
    13    6    8 1   
    14    6   28 1   
    15    6   34 1   
    16    7   20 1   
    17    7   35 1   
    18    8   29 1   
    19    9   25 1   
    20    9   47 1   
    21   10   12 1   
    22   10   13 1   
    23   10   18 1   
    24   11   12 1   
    25   11   17 1   
    26   11   37 1   
    27   12   40 1   
    28   13   16 1   
    29   13   42 1   
    30   14   15 1   
    31   15   33 1   
    32   17   18 1   
    33   18   19 1   
    34   19   21 1   
    35   20   22 1   
    36   21   31 1   
    37   21   43 1   
    38   22   23 1   
    39   23   24 1   
    40   23   44 1   
    41   23   45 1   
    42   24   29 1   
    43   24   36 1   
    44   24   46 1   
    45   26   27 1   
    46   26   48 1   
    47   27   28 1   
    48   27   49 1   
    49   38   50 1   
    50   39   50 1   
@<TRIPOS>SUBSTRUCTURE
     1 PF9         1 TEMP              0 ****  ****    0 ROOT
