@<TRIPOS>MOLECULE
PF9
   50    54     1     0     0
SMALL
bcc


@<TRIPOS>ATOM
      1 C4          1.5110    1.6490    0.7450 ca        1 PF9     -0.073500
      2 C7          0.5160   -0.4440   -0.8250 ca        1 PF9     -0.185500
      3 C6          5.9470   -1.9190   -0.5950 ca        1 PF9     -0.245300
      4 C9          4.0340   -3.2690    0.8230 ca        1 PF9      0.392700
      5 C20        -6.5140   -0.7580   -0.1130 ca        1 PF9     -0.144300
      6 C21        -7.3700    1.5440   -0.0180 ca        1 PF9     -0.164300
      7 C8          0.1450    1.3690    0.7640 ca        1 PF9     -0.185500
      8 C18        -6.2600    0.6390    0.0480 ca        1 PF9      0.397600
      9 C19        -5.4060   -1.6510   -0.0480 ca        1 PF9     -0.085000
     10 C26         4.9240    0.2650   -0.0690 cc        1 PF9     -0.213300
     11 N28         5.6200    2.4060   -0.1740 na        1 PF9      0.097400
     12 C27         6.0680    1.0850   -0.1420 cd        1 PF9     -0.128300
     13 C2          4.9300   -1.1710    0.0220 ca        1 PF9      0.045000
     14 C10         5.9390   -3.3170   -0.4600 ca        1 PF9      0.392700
     15 N12         5.0050   -3.9950    0.2350 nb        1 PF9     -0.669000
     16 C5          3.9520   -1.8690    0.7480 ca        1 PF9     -0.245300
     17 N29         4.2820    2.4820   -0.1380 nd        1 PF9     -0.504800
     18 C25         3.8060    1.2000   -0.0720 cc        1 PF9      0.388800
     19 C1          2.3850    0.8900   -0.0420 ca        1 PF9     -0.156500
     20 C11        -0.3500    0.3230   -0.0220 ca        1 PF9      0.133100
     21 C3          1.8730   -0.1560   -0.8270 ca        1 PF9     -0.073500
     22 O13        -1.6750   -0.0640   -0.0750 os        1 PF9     -0.331900
     23 C14        -2.5980    0.8010    0.6030 c3        1 PF9      0.075100
     24 C15        -3.9830    0.2660    0.3220 ca        1 PF9      0.417600
     25 C17        -4.1480   -1.1510    0.1700 ca        1 PF9     -0.223300
     26 C22        -7.8390   -1.2120   -0.3320 ca        1 PF9     -0.112000
     27 C24        -8.8790   -0.3180   -0.3900 ca        1 PF9     -0.126000
     28 C23        -8.6380    1.0680   -0.2320 ca        1 PF9     -0.124000
     29 N16        -4.9890    1.1340    0.2600 nb        1 PF9     -0.659000
     30 H4          1.9000    2.4780    1.3570 ha        1 PF9      0.146000
     31 H7          0.1060   -1.2580   -1.4400 ha        1 PF9      0.146500
     32 H6          6.7330   -1.4220   -1.1790 ha        1 PF9      0.147000
     33 H9          3.2800   -3.8460    1.3880 h4        1 PF9      0.021100
     34 H21        -7.1850    2.6230    0.1030 ha        1 PF9      0.150000
     35 H8         -0.5210    1.9750    1.3930 ha        1 PF9      0.146500
     36 H19        -5.5800   -2.7300   -0.1740 ha        1 PF9      0.140000
     37 H30         6.3010    4.1050   -1.2250 h1        1 PF9      0.060700
     38 H30A        6.2790    4.2570    0.5960 h1        1 PF9      0.060700
     39 H30B        7.5480    3.2150   -0.2180 h1        1 PF9      0.060700
     40 H27         7.1250    0.8210   -0.1610 h4        1 PF9      0.179000
     41 H10         6.7240   -3.9320   -0.9350 h4        1 PF9      0.021100
     42 H5          3.1340   -1.3280    1.2440 ha        1 PF9      0.147000
     43 H3          2.5600   -0.7520   -1.4490 ha        1 PF9      0.146000
     44 H14        -2.4030    0.7540    1.7090 h1        1 PF9      0.064700
     45 H14A       -2.4700    1.8530    0.2330 h1        1 PF9      0.064700
     46 H17        -3.2610   -1.7980    0.2210 ha        1 PF9      0.161000
     47 H22        -8.0140   -2.2920   -0.4540 ha        1 PF9      0.135000
     48 H24        -9.9090   -0.6650   -0.5590 ha        1 PF9      0.135000
     49 H23        -9.4890    1.7640   -0.2830 ha        1 PF9      0.136000
     50 C30         6.4820    3.5600   -0.2600 c3        1 PF9      0.038600
@<TRIPOS>BOND
     1    1    7 ar  
     2    1   19 ar  
     3    1   30 1   
     4    2   20 ar  
     5    2   21 ar  
     6    2   31 1   
     7    3   13 ar  
     8    3   14 ar  
     9    3   32 1   
    10    4   15 ar  
    11    4   16 ar  
    12    4   33 1   
    13    5    8 ar  
    14    5    9 ar  
    15    5   26 ar  
    16    6    8 ar  
    17    6   28 ar  
    18    6   34 1   
    19    7   20 ar  
    20    7   35 1   
    21    8   29 ar  
    22    9   25 ar  
    23    9   36 1   
    24   10   12 2   
    25   10   13 1   
    26   10   18 1   
    27   11   12 1   
    28   11   17 1   
    29   11   50 1   
    30   12   40 1   
    31   13   16 ar  
    32   14   15 ar  
    33   14   41 1   
    34   16   42 1   
    35   17   18 2   
    36   18   19 1   
    37   19   21 ar  
    38   20   22 1   
    39   21   43 1   
    40   22   23 1   
    41   23   24 1   
    42   23   44 1   
    43   23   45 1   
    44   24   25 ar  
    45   24   29 ar  
    46   25   46 1   
    47   26   27 ar  
    48   26   47 1   
    49   27   28 ar  
    50   27   48 1   
    51   28   49 1   
    52   37   50 1   
    53   38   50 1   
    54   39   50 1   
@<TRIPOS>SUBSTRUCTURE
     1 PF9         1 TEMP              0 ****  ****    0 ROOT
