@<TRIPOS>MOLECULE
PF9
   50    50     1     0     0
SMALL
bcc


@<TRIPOS>ATOM
      1 C4         -0.0920   -0.3220    0.4440 c2        1 PF9     -0.109000
      2 C7          1.2440    0.7690    2.7330 c1        1 PF9     -0.026000
      3 C6         -4.4570   -1.7840    3.7920 c3        1 PF9     -0.237000
      4 C9         -0.9700   -2.4000    3.9730 c1        1 PF9      0.063000
      5 C20         8.6140    0.1050    1.2400 c2        1 PF9     -0.033000
      6 C21         8.5810   -1.4440   -0.6660 c2        1 PF9     -0.075000
      7 C8          1.3390   -0.3860    0.5540 c2        1 PF9     -0.150000
      8 C18         7.7270   -0.7560    0.3660 c2        1 PF9      0.046000
      9 C19         8.2840    0.2710    2.6350 c2        1 PF9     -0.448000
     10 C26        -3.3100   -0.3540    2.1260 c2        1 PF9     -0.246000
     11 N28        -4.2270    1.0240    0.5930 na        1 PF9     -0.161000
     12 C27        -4.5430    0.1500    1.6010 c2        1 PF9     -0.075000
     13 C2         -3.1890   -1.3220    3.1550 c2        1 PF9      0.344000
     14 C10         2.1550   -4.7530    5.1320 c1        1 PF9      0.029000
     15 N12         1.2880   -4.0230    4.8160 n2        1 PF9     -0.383000
     16 C5         -2.0260   -1.8510    3.5740 c1        1 PF9     -0.578000
     17 N29        -2.9100    1.1390    0.4160 n2        1 PF9     -0.103000
     18 C25        -2.2940    0.3250    1.3260 c2        1 PF9     -0.006000
     19 C1         -0.8460    0.2210    1.4330 c2        1 PF9     -0.046000
     20 C11         1.9650    0.1380    1.6540 c2        1 PF9     -0.006000
     21 C3         -0.2060    0.7620    2.6590 c3        1 PF9     -0.202000
     22 O13         3.3300    0.1470    1.8520 os        1 PF9     -0.177000
     23 C14         4.1040   -0.5200    0.8490 c3        1 PF9     -0.020000
     24 C15         5.5530   -0.4290    1.3650 c3        1 PF9     -0.118000
     25 C17         7.1970    0.0070    3.3340 c1        1 PF9      0.216000
     26 C22         9.7330    0.6970    0.7300 c2        1 PF9     -0.118000
     27 C24         9.9920    0.5500   -0.7110 c2        1 PF9     -0.096000
     28 C23         9.4710   -0.5910   -1.1480 c1        1 PF9     -0.140000
     29 N16         6.4610   -0.9600    0.3950 n2        1 PF9     -0.162000
     30 H4         -0.5500   -0.7290   -0.4700 ha        1 PF9      0.139000
     31 H7         -0.5420    0.1400    3.5540 hc        1 PF9      0.179000
     32 H6         -5.0180   -0.9090    4.2070 hc        1 PF9      0.107667
     33 H9          0.5560   -3.4100    4.5480 hn        1 PF9      0.321000
     34 H21         8.4760   -2.5150   -0.8490 ha        1 PF9      0.174000
     35 H8          1.8840   -0.8590   -0.2760 ha        1 PF9      0.141000
     36 H19         5.7540    0.6550    1.6180 h1        1 PF9      0.125500
     37 H30        -4.8890    1.5930   -0.0230 hn        1 PF9      0.340000
     38 H30A       -5.9610    2.2490   -2.0960 ha        1 PF9      0.066500
     39 H30B       -5.9510    3.6110   -0.8510 ha        1 PF9      0.066500
     40 H27        -5.5660   -0.0810    1.8990 h4        1 PF9      0.178000
     41 H10        -5.1000   -2.2910    3.0300 hc        1 PF9      0.107667
     42 H5         -4.2510   -2.5050    4.6220 hc        1 PF9      0.107667
     43 H3         -0.5670    1.8140    2.8590 hc        1 PF9      0.179000
     44 H14         3.7740   -1.5870    0.7540 h1        1 PF9      0.088500
     45 H14A        3.9840    0.0090   -0.1320 h1        1 PF9      0.088500
     46 H17         5.6030   -1.0370    2.3230 h1        1 PF9      0.125500
     47 H22         9.1130    0.6920    3.2590 ha        1 PF9      0.197000
     48 H24        10.3900    1.3400    1.3280 ha        1 PF9      0.142000
     49 H23        10.4600    1.3510   -1.2870 ha        1 PF9      0.162000
     50 C30        -5.7230    2.5620   -1.0730 c1        1 PF9     -0.019000
@<TRIPOS>BOND
     1    1    7 1   
     2    1   19 1   
     3    1   30 1   
     4    2   20 1   
     5    2   21 1   
     6    3   13 1   
     7    3   32 1   
     8    3   41 1   
     9    3   42 1   
    10    4   16 1   
    11    5    8 1   
    12    5    9 1   
    13    5   26 1   
    14    6    8 1   
    15    6   28 1   
    16    6   34 1   
    17    7   20 1   
    18    7   35 1   
    19    8   29 1   
    20    9   25 1   
    21    9   47 1   
    22   10   12 1   
    23   10   13 1   
    24   10   18 1   
    25   11   12 1   
    26   11   17 1   
    27   11   37 1   
    28   12   40 1   
    29   13   16 1   
    30   14   15 1   
    31   15   33 1   
    32   17   18 1   
    33   18   19 1   
    34   19   21 1   
    35   20   22 1   
    36   21   31 1   
    37   21   43 1   
    38   22   23 1   
    39   23   24 1   
    40   23   44 1   
    41   23   45 1   
    42   24   29 1   
    43   24   36 1   
    44   24   46 1   
    45   26   27 1   
    46   26   48 1   
    47   27   28 1   
    48   27   49 1   
    49   38   50 1   
    50   39   50 1   
@<TRIPOS>SUBSTRUCTURE
     1 PF9         1 TEMP              0 ****  ****    0 ROOT
