@<TRIPOS>MOLECULE
PFA
   48    50     1     0     0
SMALL
bcc


@<TRIPOS>ATOM
      1 O9          0.5110   -0.2210    0.4680 o         1 PFA     -0.604500
      2 C14         1.7090   -0.0130    0.2090 c         1 PFA      0.793500
      3 N6          2.6620    0.0550    1.2440 n         1 PFA     -0.587500
      4 C10         4.0190    0.2920    0.9830 c         1 PFA      0.598200
      5 O8          4.8440    0.3470    1.9030 o         1 PFA     -0.577500
      6 N5          2.1840    0.1760   -1.1420 n         1 PFA     -0.142000
      7 N3          3.4680    0.3990   -1.4300 nc        1 PFA     -0.363300
      8 C17         4.3450    0.4630   -0.4620 cd        1 PFA      0.267200
      9 C4          1.2430    0.0700   -2.2270 ca        1 PFA      0.067600
     10 C5          1.5600   -0.6980   -3.3620 ca        1 PFA     -0.118500
     11 C6          0.6550   -0.7920   -4.4220 ca        1 PFA     -0.062800
     12 C7          1.0080   -1.5800   -5.6250 c3        1 PFA     -0.055800
     13 C3          0.0120    0.7480   -2.1520 ca        1 PFA     -0.118500
     14 C2         -0.9060    0.6510   -3.2000 ca        1 PFA     -0.062800
     15 C19        -2.2000    1.3670   -3.1260 c3        1 PFA     -0.055800
     16 C1         -0.5740   -0.1180   -4.3300 ca        1 PFA      0.083100
     17 O20        -1.4330   -0.0960   -5.4300 os        1 PFA     -0.253200
     18 C21        -2.3270   -1.1640   -5.5230 ca        1 PFA      0.078100
     19 C31        -2.7240   -1.9420   -4.4330 ca        1 PFA     -0.148000
     20 C22        -2.8640   -1.3730   -6.8030 ca        1 PFA     -0.117000
     21 C24        -3.8160   -2.3720   -7.0070 ca        1 PFA     -0.068300
     22 C25        -4.4010   -2.6000   -8.3660 c3        1 PFA     -0.022400
     23 C8         -5.1430   -1.3690   -8.8500 c3        1 PFA     -0.087100
     24 C9         -3.3250   -2.9970   -9.3590 c3        1 PFA     -0.087100
     25 C26        -4.2100   -3.1590   -5.9030 ca        1 PFA      0.101100
     26 C29        -3.6670   -2.9460   -4.6290 ca        1 PFA     -0.184000
     27 O27        -5.1470   -4.1440   -6.1340 oh        1 PFA     -0.499100
     28 HN6         2.3370   -0.0780    2.1780 hn        1 PFA      0.355500
     29 H17C        5.3990    0.6590   -0.7270 h4        1 PFA      0.079800
     30 HC5         2.5230   -1.2270   -3.4380 ha        1 PFA      0.155500
     31 HC71        0.0870   -1.9830   -6.1170 hc        1 PFA      0.054700
     32 HC72        1.6790   -2.4340   -5.3620 hc        1 PFA      0.054700
     33 HC73        1.5390   -0.9260   -6.3620 hc        1 PFA      0.054700
     34 HC3        -0.2510    1.3360   -1.2580 ha        1 PFA      0.155500
     35 H191       -3.0140    0.7370   -3.5670 hc        1 PFA      0.054700
     36 H192       -2.1410    2.3170   -3.7140 hc        1 PFA      0.054700
     37 H193       -2.4660    1.6160   -2.0700 hc        1 PFA      0.054700
     38 H31C       -2.2940   -1.7660   -3.4350 ha        1 PFA      0.151000
     39 H22C       -2.5330   -0.7380   -7.6390 ha        1 PFA      0.154000
     40 H25C       -5.1420   -3.4500   -8.2980 hc        1 PFA      0.074700
     41 HC81       -5.9540   -1.0970   -8.1340 hc        1 PFA      0.036367
     42 HC82       -5.6000   -1.5700   -9.8490 hc        1 PFA      0.036367
     43 HC83       -4.4480   -0.5000   -8.9470 hc        1 PFA      0.036367
     44 HC91       -3.7840   -3.1960  -10.3570 hc        1 PFA      0.036367
     45 HC92       -2.8010   -3.9210   -9.0170 hc        1 PFA      0.036367
     46 HC93       -2.5700   -2.1820   -9.4720 hc        1 PFA      0.036367
     47 H29C       -3.9880   -3.5700   -3.7820 ha        1 PFA      0.137000
     48 H27O       -5.3240   -4.5870   -5.2920 ho        1 PFA      0.418000
@<TRIPOS>BOND
     1    1    2 2   
     2    2    3 1   
     3    2    6 1   
     4    3    4 1   
     5    3   28 1   
     6    4    5 2   
     7    4    8 1   
     8    6    7 1   
     9    6    9 1   
    10    7    8 2   
    11    8   29 1   
    12    9   10 ar  
    13    9   13 ar  
    14   10   11 ar  
    15   10   30 1   
    16   11   12 1   
    17   11   16 ar  
    18   12   31 1   
    19   12   32 1   
    20   12   33 1   
    21   13   14 ar  
    22   13   34 1   
    23   14   15 1   
    24   14   16 ar  
    25   15   35 1   
    26   15   36 1   
    27   15   37 1   
    28   16   17 1   
    29   17   18 1   
    30   18   19 ar  
    31   18   20 ar  
    32   19   26 ar  
    33   19   38 1   
    34   20   21 ar  
    35   20   39 1   
    36   21   22 1   
    37   21   25 ar  
    38   22   23 1   
    39   22   24 1   
    40   22   40 1   
    41   23   41 1   
    42   23   42 1   
    43   23   43 1   
    44   24   44 1   
    45   24   45 1   
    46   24   46 1   
    47   25   26 ar  
    48   25   27 1   
    49   26   47 1   
    50   27   48 1   
@<TRIPOS>SUBSTRUCTURE
     1 PFA         1 TEMP              0 ****  ****    0 ROOT
