@<TRIPOS>MOLECULE
PFA
   48    50     1     0     0
SMALL
bcc


@<TRIPOS>ATOM
      1 O9          0.5080   -0.2050    0.4660 o         1 PFA     -0.604500
      2 C14         1.7070   -0.0040    0.2080 c         1 PFA      0.793500
      3 N6          2.6590    0.0640    1.2440 ns        1 PFA     -0.587500
      4 C10         4.0180    0.2930    0.9840 c         1 PFA      0.598200
      5 O8          4.8410    0.3480    1.9060 o         1 PFA     -0.577500
      6 N5          2.1860    0.1750   -1.1430 n         1 PFA     -0.142000
      7 N3          3.4710    0.3900   -1.4290 nc        1 PFA     -0.363300
      8 C17         4.3470    0.4550   -0.4610 cd        1 PFA      0.267200
      9 C4          1.2460    0.0680   -2.2290 ca        1 PFA      0.067600
     10 C5          1.5610   -0.7070   -3.3590 ca        1 PFA     -0.118500
     11 C6          0.6570   -0.8020   -4.4210 ca        1 PFA     -0.062800
     12 C7          1.0090   -1.5990   -5.6190 c3        1 PFA     -0.055800
     13 C3          0.0190    0.7530   -2.1600 ca        1 PFA     -0.118500
     14 C2         -0.8980    0.6560   -3.2090 ca        1 PFA     -0.062800
     15 C19        -2.1890    1.3790   -3.1410 c3        1 PFA     -0.055800
     16 C1         -0.5690   -0.1210   -4.3340 ca        1 PFA      0.083100
     17 O20        -1.4250   -0.1010   -5.4360 os        1 PFA     -0.253200
     18 C21        -2.3250   -1.1630   -5.5250 ca        1 PFA      0.078100
     19 C31        -2.7270   -1.9350   -4.4310 ca        1 PFA     -0.148000
     20 C22        -2.8620   -1.3750   -6.8040 ca        1 PFA     -0.117000
     21 C24        -3.8200   -2.3700   -7.0040 ca        1 PFA     -0.068300
     22 C25        -4.4040   -2.6020   -8.3620 c3        1 PFA     -0.022400
     23 C8         -5.1400   -1.3690   -8.8530 c3        1 PFA     -0.087100
     24 C9         -3.3300   -3.0090   -9.3530 c3        1 PFA     -0.087100
     25 C26        -4.2190   -3.1500   -5.8970 ca        1 PFA      0.101100
     26 C29        -3.6760   -2.9340   -4.6230 ca        1 PFA     -0.184000
     27 O27        -5.1610   -4.1310   -6.1240 oh        1 PFA     -0.499100
     28 HN6         2.3310   -0.0620    2.1780 hn        1 PFA      0.355500
     29 H17C        5.4020    0.6440   -0.7240 h4        1 PFA      0.079800
     30 HC5         2.5210   -1.2420   -3.4310 ha        1 PFA      0.155500
     31 HC71        0.0860   -1.9990   -6.1100 hc        1 PFA      0.054700
     32 HC72        1.6750   -2.4540   -5.3510 hc        1 PFA      0.054700
     33 HC73        1.5430   -0.9500   -6.3590 hc        1 PFA      0.054700
     34 HC3        -0.2430    1.3470   -1.2690 ha        1 PFA      0.155500
     35 H191       -3.0050    0.7500   -3.5800 hc        1 PFA      0.054700
     36 H192       -2.1240    2.3260   -3.7350 hc        1 PFA      0.054700
     37 H193       -2.4550    1.6350   -2.0870 hc        1 PFA      0.054700
     38 H31C       -2.2980   -1.7560   -3.4340 ha        1 PFA      0.151000
     39 H22C       -2.5270   -0.7470   -7.6430 ha        1 PFA      0.154000
     40 H25C       -5.1510   -3.4470   -8.2920 hc        1 PFA      0.074700
     41 HC81       -5.9500   -1.0890   -8.1390 hc        1 PFA      0.036367
     42 HC82       -5.5970   -1.5720   -9.8510 hc        1 PFA      0.036367
     43 HC83       -4.4400   -0.5040   -8.9530 hc        1 PFA      0.036367
     44 HC91       -3.7900   -3.2100  -10.3500 hc        1 PFA      0.036367
     45 HC92       -2.8110   -3.9340   -9.0060 hc        1 PFA      0.036367
     46 HC93       -2.5710   -2.1980   -9.4700 hc        1 PFA      0.036367
     47 H29C       -4.0010   -3.5520   -3.7730 ha        1 PFA      0.137000
     48 H27O       -5.3410   -4.5690   -5.2800 ho        1 PFA      0.418000
@<TRIPOS>BOND
     1    1    2 2   
     2    2    3 1   
     3    2    6 1   
     4    3    4 1   
     5    3   28 1   
     6    4    5 2   
     7    4    8 1   
     8    6    7 1   
     9    6    9 1   
    10    7    8 2   
    11    8   29 1   
    12    9   10 ar  
    13    9   13 ar  
    14   10   11 ar  
    15   10   30 1   
    16   11   12 1   
    17   11   16 ar  
    18   12   31 1   
    19   12   32 1   
    20   12   33 1   
    21   13   14 ar  
    22   13   34 1   
    23   14   15 1   
    24   14   16 ar  
    25   15   35 1   
    26   15   36 1   
    27   15   37 1   
    28   16   17 1   
    29   17   18 1   
    30   18   19 ar  
    31   18   20 ar  
    32   19   26 ar  
    33   19   38 1   
    34   20   21 ar  
    35   20   39 1   
    36   21   22 1   
    37   21   25 ar  
    38   22   23 1   
    39   22   24 1   
    40   22   40 1   
    41   23   41 1   
    42   23   42 1   
    43   23   43 1   
    44   24   44 1   
    45   24   45 1   
    46   24   46 1   
    47   25   26 ar  
    48   25   27 1   
    49   26   47 1   
    50   27   48 1   
@<TRIPOS>SUBSTRUCTURE
     1 PFA         1 TEMP              0 ****  ****    0 ROOT
