@<TRIPOS>MOLECULE
PFA
   48    50     1     0     0
SMALL
bcc


@<TRIPOS>ATOM
      1 O9          0.5020   -0.0840    0.4540 o         1 PFA     -0.604500
      2 C14         1.7080    0.0750    0.1950 c         1 PFA      0.793500
      3 N6          2.6570    0.1510    1.2330 n         1 PFA     -0.587500
      4 C10         4.0220    0.3340    0.9720 c         1 PFA      0.598200
      5 O8          4.8440    0.3960    1.8950 o         1 PFA     -0.577500
      6 N5          2.1960    0.1970   -1.1590 n         1 PFA     -0.142000
      7 N3          3.4880    0.3670   -1.4460 nc        1 PFA     -0.363300
      8 C17         4.3620    0.4400   -0.4760 cd        1 PFA      0.267200
      9 C4          1.2580    0.0820   -2.2450 ca        1 PFA      0.067600
     10 C5          1.5550   -0.7370   -3.3490 ca        1 PFA     -0.118500
     11 C6          0.6530   -0.8410   -4.4110 ca        1 PFA     -0.062800
     12 C7          0.9870   -1.6840   -5.5820 c3        1 PFA     -0.055800
     13 C3          0.0500    0.8020   -2.2040 ca        1 PFA     -0.118500
     14 C2         -0.8650    0.6970   -3.2530 ca        1 PFA     -0.062800
     15 C19        -2.1360    1.4580   -3.2140 c3        1 PFA     -0.055800
     16 C1         -0.5530   -0.1230   -4.3520 ca        1 PFA      0.083100
     17 O20        -1.4040   -0.1140   -5.4590 os        1 PFA     -0.253200
     18 C21        -2.3360   -1.1510   -5.5170 ca        1 PFA      0.078100
     19 C31        -2.7580   -1.8810   -4.4020 ca        1 PFA     -0.148000
     20 C22        -2.8820   -1.3810   -6.7890 ca        1 PFA     -0.118000
     21 C24        -3.8690   -2.3510   -6.9620 ca        1 PFA     -0.068300
     22 C25        -4.4630   -2.6020   -8.3120 c3        1 PFA     -0.022400
     23 C8         -5.1640   -1.3610   -8.8340 c3        1 PFA     -0.087100
     24 C9         -3.4030   -3.0650   -9.2940 c3        1 PFA     -0.087100
     25 C26        -4.2880   -3.0900   -5.8340 ca        1 PFA      0.101100
     26 C29        -3.7360   -2.8570   -4.5670 ca        1 PFA     -0.184000
     27 O27        -5.2590   -4.0490   -6.0330 oh        1 PFA     -0.499100
     28 HN6         2.3230    0.0640    2.1690 hn        1 PFA      0.355500
     29 H17C        5.4220    0.5910   -0.7410 h4        1 PFA      0.079800
     30 HC5         2.5010   -1.3000   -3.3990 ha        1 PFA      0.155500
     31 HC71        0.0550   -2.0760   -6.0640 hc        1 PFA      0.054867
     32 HC72        1.6290   -2.5490   -5.2840 hc        1 PFA      0.054867
     33 HC73        1.5400   -1.0750   -6.3400 hc        1 PFA      0.054867
     34 HC3        -0.1980    1.4310   -1.3330 ha        1 PFA      0.155500
     35 H191       -2.3980    1.7560   -2.1700 hc        1 PFA      0.054867
     36 H192       -2.0430    2.3810   -3.8390 hc        1 PFA      0.054867
     37 H193       -2.9680    0.8370   -3.6350 hc        1 PFA      0.054867
     38 H31C       -2.3210   -1.6890   -3.4110 ha        1 PFA      0.151000
     39 H22C       -2.5310   -0.7840   -7.6450 ha        1 PFA      0.154000
     40 H25C       -5.2340   -3.4230   -8.2180 hc        1 PFA      0.074700
     41 HC81       -5.6300   -1.5770   -9.8250 hc        1 PFA      0.036367
     42 HC82       -4.4400   -0.5190   -8.9570 hc        1 PFA      0.036367
     43 HC83       -5.9650   -1.0400   -8.1250 hc        1 PFA      0.036367
     44 HC91       -2.9110   -3.9960   -8.9240 hc        1 PFA      0.036367
     45 HC92       -3.8720   -3.2790  -10.2850 hc        1 PFA      0.036367
     46 HC93       -2.6220   -2.2800   -9.4330 hc        1 PFA      0.036367
     47 H29C       -4.0770   -3.4430   -3.7010 ha        1 PFA      0.137000
     48 H27O       -5.4490   -4.4590   -5.1780 ho        1 PFA      0.418000
@<TRIPOS>BOND
     1    1    2 2   
     2    2    3 1   
     3    2    6 1   
     4    3    4 1   
     5    3   28 1   
     6    4    5 2   
     7    4    8 1   
     8    6    7 1   
     9    6    9 1   
    10    7    8 2   
    11    8   29 1   
    12    9   10 ar  
    13    9   13 ar  
    14   10   11 ar  
    15   10   30 1   
    16   11   12 1   
    17   11   16 ar  
    18   12   31 1   
    19   12   32 1   
    20   12   33 1   
    21   13   14 ar  
    22   13   34 1   
    23   14   15 1   
    24   14   16 ar  
    25   15   35 1   
    26   15   36 1   
    27   15   37 1   
    28   16   17 1   
    29   17   18 1   
    30   18   19 ar  
    31   18   20 ar  
    32   19   26 ar  
    33   19   38 1   
    34   20   21 ar  
    35   20   39 1   
    36   21   22 1   
    37   21   25 ar  
    38   22   23 1   
    39   22   24 1   
    40   22   40 1   
    41   23   41 1   
    42   23   42 1   
    43   23   43 1   
    44   24   44 1   
    45   24   45 1   
    46   24   46 1   
    47   25   26 ar  
    48   25   27 1   
    49   26   47 1   
    50   27   48 1   
@<TRIPOS>SUBSTRUCTURE
     1 PFA         1 TEMP              0 ****  ****    0 ROOT
