@<TRIPOS>MOLECULE
PFA
   48    45     1     0     0
SMALL
bcc


@<TRIPOS>ATOM
      1 O9          4.4260    2.5150    2.7500 o         1 PFA     -0.326000
      2 C14         4.0670    1.7970    3.6620 c1        1 PFA      0.384000
      3 N6          4.7440    1.8460    4.9170 n2        1 PFA     -0.367000
      4 C10         4.3940    0.9580    5.9320 c2        1 PFA      0.325000
      5 O8          4.9540    1.0150    7.0090 o         1 PFA     -0.303000
      6 N5          2.9490    0.8850    3.4730 n3        1 PFA     -0.215000
      7 N3          2.5920   -0.0140    4.4950 n2        1 PFA      0.054000
      8 C17         3.2890    0.0000    5.7230 c2        1 PFA     -0.219000
      9 C4          2.2490    0.8680    2.2370 c2        1 PFA      0.075000
     10 C5          2.6260   -0.0190    1.2410 c1        1 PFA     -0.123000
     11 C6          1.9270   -0.0550    0.0430 c1        1 PFA     -0.058000
     12 C7          2.4050   -0.9440   -1.0830 c3        1 PFA     -0.181000
     13 C3          1.1730    1.7190    2.0380 c2        1 PFA     -0.115000
     14 C2          0.4740    1.6840    0.8410 c1        1 PFA     -0.051000
     15 C19        -0.6290    2.6860    0.5820 c2        1 PFA     -0.182000
     16 C1          0.8510    0.7970   -0.1570 c2        1 PFA      0.037000
     17 O20         0.1800    0.8050   -1.3950 os        1 PFA     -0.162000
     18 C21        -0.8890   -0.1130   -1.3570 c2        1 PFA      0.034000
     19 C31        -1.0950   -0.8910   -0.2280 c2        1 PFA     -0.149000
     20 C22        -1.7150   -0.2610   -2.4610 c1        1 PFA     -0.117000
     21 C24        -2.7480   -1.1880   -2.4360 c1        1 PFA     -0.060000
     22 C25        -3.6030   -1.4010   -3.6680 c3        1 PFA     -0.069000
     23 C8         -4.3120   -0.1100   -4.0200 c3        1 PFA     -0.205000
     24 C9         -2.7260   -1.8260   -4.8230 c3        1 PFA     -0.205000
     25 C26        -2.9530   -1.9660   -1.3070 c1        1 PFA      0.056000
     26 C29        -2.1270   -1.8170   -0.2020 c1        1 PFA     -0.184000
     27 O27        -3.9860   -2.9220   -1.2890 oh        1 PFA     -0.252000
     28 HN6         5.3950    2.4690    5.0600 hn        1 PFA      0.269000
     29 H17C        3.0420   -0.6230    6.4330 h4        1 PFA      0.208000
     30 HC5         3.3910   -0.6090    1.3770 ha        1 PFA      0.152000
     31 HC71        3.3150   -1.2540   -0.8910 hc        1 PFA      0.093667
     32 HC72        2.4030   -0.4370   -1.9220 hc        1 PFA      0.093667
     33 HC73        1.8080   -1.7160   -1.1670 hc        1 PFA      0.093667
     34 HC3         0.9130    2.3480    2.7360 ha        1 PFA      0.160000
     35 H191       -1.4940    2.2850    0.8060 ha        1 PFA      0.094333
     36 H192       -0.6230    2.9410   -0.3650 ha        1 PFA      0.094333
     37 H193       -0.4840    3.4820    1.1350 ha        1 PFA      0.094333
     38 H31C       -0.5140   -0.7860    0.5490 ha        1 PFA      0.149000
     39 H22C       -1.5860    0.3030   -3.2470 ha        1 PFA      0.155000
     40 H25C       -4.2640   -2.0960   -3.4880 hc        1 PFA      0.114000
     41 HC81       -3.6760    0.5080   -4.4400 hc        1 PFA      0.075500
     42 HC82       -4.6730    0.2980   -3.2040 hc        1 PFA      0.075500
     43 HC83       -5.0450   -0.2990   -4.6430 hc        1 PFA      0.075500
     44 HC91       -2.2940   -1.0370   -5.2120 hc        1 PFA      0.075500
     45 HC92       -3.2750   -2.2670   -5.5040 hc        1 PFA      0.075500
     46 HC93       -2.0410   -2.4480   -4.5020 hc        1 PFA      0.075500
     47 H29C       -2.2720   -2.3650    0.5920 ha        1 PFA      0.136000
     48 H27O       -4.5440   -2.7440   -0.6200 ho        1 PFA      0.217000
@<TRIPOS>BOND
     1    1    2 1   
     2    2    6 1   
     3    3    4 1   
     4    3   28 1   
     5    4    5 1   
     6    4    8 1   
     7    6    7 1   
     8    6    9 1   
     9    7    8 1   
    10    8   29 1   
    11    9   10 1   
    12    9   13 1   
    13   10   30 1   
    14   11   12 1   
    15   11   16 1   
    16   12   31 1   
    17   12   32 1   
    18   12   33 1   
    19   13   14 1   
    20   13   34 1   
    21   14   16 1   
    22   15   35 1   
    23   15   36 1   
    24   15   37 1   
    25   16   17 1   
    26   17   18 1   
    27   18   19 1   
    28   18   20 1   
    29   19   26 1   
    30   19   38 1   
    31   20   39 1   
    32   21   22 1   
    33   21   25 1   
    34   22   23 1   
    35   22   24 1   
    36   22   40 1   
    37   23   41 1   
    38   23   42 1   
    39   23   43 1   
    40   24   44 1   
    41   24   45 1   
    42   24   46 1   
    43   25   27 1   
    44   26   47 1   
    45   27   48 1   
@<TRIPOS>SUBSTRUCTURE
     1 PFA         1 TEMP              0 ****  ****    0 ROOT
