@<TRIPOS>MOLECULE
PFA
   48    50     1     0     0
SMALL
bcc


@<TRIPOS>ATOM
      1 O9         -1.8920   -0.5050   -3.8740 o         1 PFA     -0.604500
      2 C14        -0.8790   -0.1520   -4.5020 c         1 PFA      0.793500
      3 N6         -0.9520    0.1110   -5.8840 n         1 PFA     -0.587500
      4 C10         0.1740    0.5060   -6.6200 c         1 PFA      0.598200
      5 O8          0.0930    0.7360   -7.8330 o         1 PFA     -0.577500
      6 N5          0.4090   -0.0010   -3.8670 n         1 PFA     -0.142000
      7 N3          1.5010    0.3780   -4.5330 nc        1 PFA     -0.363300
      8 C17         1.4250    0.6170   -5.8160 cd        1 PFA      0.267200
      9 C4          0.5090   -0.2200   -2.4460 ca        1 PFA      0.067600
     10 C5          1.1970    0.7030   -1.6380 ca        1 PFA     -0.118500
     11 C6          1.3070    0.4860   -0.2620 ca        1 PFA     -0.062800
     12 C7          2.0570    1.4490    0.5770 c3        1 PFA     -0.055800
     13 C3         -0.0720   -1.3670   -1.8750 ca        1 PFA     -0.118500
     14 C2          0.0210   -1.5880   -0.4990 ca        1 PFA     -0.062800
     15 C19        -0.5860   -2.7960    0.1050 c3        1 PFA     -0.055800
     16 C1          0.7140   -0.6580    0.2960 ca        1 PFA      0.083100
     17 O20         0.9240   -0.9550    1.6440 os        1 PFA     -0.253200
     18 C21         0.0250   -0.3750    2.5410 ca        1 PFA      0.078100
     19 C31        -1.2540    0.0600    2.1860 ca        1 PFA     -0.148000
     20 C22         0.4770   -0.3080    3.8680 ca        1 PFA     -0.117000
     21 C24        -0.3570    0.1950    4.8660 ca        1 PFA     -0.068300
     22 C25         0.1100    0.2650    6.2860 c3        1 PFA     -0.021400
     23 C8          0.4240   -1.1200    6.8220 c3        1 PFA     -0.087100
     24 C9          1.3210    1.1710    6.4150 c3        1 PFA     -0.087100
     25 C26        -1.6470    0.6370    4.5020 ca        1 PFA      0.101100
     26 C29        -2.0910    0.5710    3.1740 ca        1 PFA     -0.184000
     27 O27        -2.4490    1.1370    5.5070 oh        1 PFA     -0.499100
     28 HN6        -1.8410    0.0100   -6.3250 hn        1 PFA      0.355500
     29 H17C        2.3450    0.9190   -6.3450 h4        1 PFA      0.079800
     30 HC5         1.6640    1.6000   -2.0730 ha        1 PFA      0.155500
     31 HC71        3.1360    1.1540    0.6180 hc        1 PFA      0.054700
     32 HC72        1.9880    2.4840    0.1600 hc        1 PFA      0.054700
     33 HC73        1.6580    1.4540    1.6230 hc        1 PFA      0.054700
     34 HC3        -0.6280   -2.0850   -2.4990 ha        1 PFA      0.155500
     35 H191        0.2030   -3.5740    0.2690 hc        1 PFA      0.054700
     36 H192       -1.0350   -2.5450    1.0990 hc        1 PFA      0.054700
     37 H193       -1.3790   -3.2250   -0.5540 hc        1 PFA      0.054700
     38 H31C       -1.5940    0.0010    1.1420 ha        1 PFA      0.151000
     39 H22C        1.4900   -0.6640    4.1140 ha        1 PFA      0.154000
     40 H25C       -0.7200    0.7010    6.9160 hc        1 PFA      0.074700
     41 HC81        0.7380   -1.0510    7.8910 hc        1 PFA      0.036367
     42 HC82       -0.4760   -1.7760    6.7550 hc        1 PFA      0.036367
     43 HC83        1.2520   -1.5920    6.2390 hc        1 PFA      0.036367
     44 HC91        2.1770    0.7740    5.8180 hc        1 PFA      0.036367
     45 HC92        1.0790    2.1970    6.0490 hc        1 PFA      0.036367
     46 HC93        1.6330    1.2370    7.4840 hc        1 PFA      0.036367
     47 H29C       -3.1000    0.9190    2.9110 ha        1 PFA      0.137000
     48 H27O       -3.2970    1.3860    5.1120 ho        1 PFA      0.418000
@<TRIPOS>BOND
     1    1    2 2   
     2    2    3 1   
     3    2    6 1   
     4    3    4 1   
     5    3   28 1   
     6    4    5 2   
     7    4    8 1   
     8    6    7 1   
     9    6    9 1   
    10    7    8 2   
    11    8   29 1   
    12    9   10 ar  
    13    9   13 ar  
    14   10   11 ar  
    15   10   30 1   
    16   11   12 1   
    17   11   16 ar  
    18   12   31 1   
    19   12   32 1   
    20   12   33 1   
    21   13   14 ar  
    22   13   34 1   
    23   14   15 1   
    24   14   16 ar  
    25   15   35 1   
    26   15   36 1   
    27   15   37 1   
    28   16   17 1   
    29   17   18 1   
    30   18   19 ar  
    31   18   20 ar  
    32   19   26 ar  
    33   19   38 1   
    34   20   21 ar  
    35   20   39 1   
    36   21   22 1   
    37   21   25 ar  
    38   22   23 1   
    39   22   24 1   
    40   22   40 1   
    41   23   41 1   
    42   23   42 1   
    43   23   43 1   
    44   24   44 1   
    45   24   45 1   
    46   24   46 1   
    47   25   26 ar  
    48   25   27 1   
    49   26   47 1   
    50   27   48 1   
@<TRIPOS>SUBSTRUCTURE
     1 PFA         1 TEMP              0 ****  ****    0 ROOT
