@<TRIPOS>MOLECULE
PFB
   16    16     1     0     0
SMALL
bcc


@<TRIPOS>ATOM
      1 C1          0.0000    0.2380    1.1600 ca        1 PFB     -0.127300
      2 C2         -1.2140    0.1580    0.4540 ca        1 PFB      0.150900
      3 C3         -1.2240    0.0040   -0.9570 ca        1 PFB      0.062900
      4 C4         -0.0000   -0.0750   -1.6630 ca        1 PFB      0.112900
      5 C5          1.2240    0.0040   -0.9570 ca        1 PFB      0.062900
      6 C6          1.2140    0.1580    0.4540 ca        1 PFB      0.150900
      7 C7          0.0000    0.4020    2.6480 c3        1 PFB      0.179700
      8 F2         -2.3930    0.2360    1.1070 f         1 PFB     -0.105900
      9 F3         -2.3960   -0.0680   -1.6230 f         1 PFB     -0.100900
     10 F4         -0.0010   -0.2240   -3.0030 f         1 PFB     -0.096900
     11 F5          2.3950   -0.0680   -1.6240 f         1 PFB     -0.100900
     12 F6          2.3940    0.2360    1.1070 f         1 PFB     -0.105900
     13 O1          0.0000   -0.8960    3.2240 oh        1 PFB     -0.587800
     14 H71        -0.9180    0.9650    2.9720 h1        1 PFB      0.047700
     15 H72         0.9190    0.9650    2.9720 h1        1 PFB      0.047700
     16 HO1         0.0010   -0.7680    4.1800 ho        1 PFB      0.410000
@<TRIPOS>BOND
     1    1    2 ar  
     2    1    6 ar  
     3    1    7 1   
     4    2    3 ar  
     5    2    8 1   
     6    3    4 ar  
     7    3    9 1   
     8    4    5 ar  
     9    4   10 1   
    10    5    6 ar  
    11    5   11 1   
    12    6   12 1   
    13    7   13 1   
    14    7   14 1   
    15    7   15 1   
    16   13   16 1   
@<TRIPOS>SUBSTRUCTURE
     1 PFB         1 TEMP              0 ****  ****    0 ROOT
