@<TRIPOS>MOLECULE
PFD
   48    50     1     0     0
SMALL
bcc


@<TRIPOS>ATOM
      1 F29         0.2660    1.7960   -1.1160 f         1 PFD     -0.137900
      2 C28         1.3220    1.0590   -0.6960 ca        1 PFD      0.113900
      3 C26         1.4080    0.6670    0.6530 ca        1 PFD     -0.147500
      4 C24         2.4920   -0.0910    1.0820 ca        1 PFD     -0.124000
      5 C27         2.3250    0.6920   -1.6130 ca        1 PFD     -0.147500
      6 C25         3.4130   -0.0590   -1.1820 ca        1 PFD     -0.124000
      7 C23         3.4860   -0.4490    0.1640 ca        1 PFD      0.079100
      8 O22         4.5350   -1.3050    0.4950 os        1 PFD     -0.244200
      9 C20         5.1990   -1.0500    1.6890 ca        1 PFD      0.119100
     10 C16         5.2980    0.2240    2.2630 ca        1 PFD     -0.161500
     11 C12         6.0550    0.3930    3.4190 ca        1 PFD     -0.098500
     12 C17         5.8450   -2.1620    2.2570 ca        1 PFD     -0.161500
     13 C13         6.6040   -1.9890    3.4080 ca        1 PFD     -0.098500
     14 C6          6.7080   -0.7120    3.9790 ca        1 PFD      0.017100
     15 O2          7.3330   -0.5770    5.2200 os        1 PFD     -0.288900
     16 C1          8.7200   -0.2410    5.1970 c3        1 PFD      0.042800
     17 C5          9.1740   -0.2240    6.6680 c3        1 PFD     -0.073400
     18 C11         8.2330    0.5830    7.5470 c3        1 PFD      0.128400
     19 O15         8.8670    0.6620    8.8220 os        1 PFD     -0.431600
     20 C19         8.0660    1.3630    9.7740 c3        1 PFD      0.132400
     21 C21         8.8450    1.3810   11.0690 c3        1 PFD     -0.097100
     22 C4          9.5280   -1.3490    4.4970 c         1 PFD      0.684500
     23 O10         9.3210   -2.5500    4.7250 o         1 PFD     -0.575500
     24 N9         10.5510   -0.9910    3.6240 n         1 PFD     -0.591500
     25 C14        10.8160    0.3300    3.2260 c         1 PFD      0.818500
     26 O18        11.7500    0.5830    2.4410 o         1 PFD     -0.609500
     27 N7         10.0020    1.3610    3.7280 n         1 PFD     -0.591500
     28 C3          8.9250    1.1540    4.5850 c         1 PFD      0.684500
     29 O8          8.1860    2.1110    4.8580 o         1 PFD     -0.575500
     30 H26         0.6150    0.9590    1.3570 ha        1 PFD      0.155000
     31 H24         2.5730   -0.4070    2.1330 ha        1 PFD      0.156000
     32 H27         2.2430    1.0040   -2.6640 ha        1 PFD      0.155000
     33 H25         4.2050   -0.3610   -1.8830 ha        1 PFD      0.156000
     34 H16         4.7800    1.0800    1.8060 ha        1 PFD      0.157000
     35 H12         6.1430    1.3830    3.8960 ha        1 PFD      0.169500
     36 H17         5.7460   -3.1510    1.7850 ha        1 PFD      0.157000
     37 H13         7.1180   -2.8440    3.8800 ha        1 PFD      0.169500
     38 H51         9.2050   -1.2830    7.0410 hc        1 PFD      0.083200
     39 H52        10.2090    0.2010    6.7230 hc        1 PFD      0.083200
     40 H111        8.0760    1.6150    7.1340 h1        1 PFD      0.051700
     41 H112        7.2400    0.0670    7.6390 h1        1 PFD      0.051700
     42 H191        7.0850    0.8320    9.9000 h1        1 PFD      0.028200
     43 H192        7.8710    2.4050    9.4030 h1        1 PFD      0.028200
     44 H211        9.0480    0.3400   11.4160 hc        1 PFD      0.046033
     45 H212        8.2540    1.9190   11.8470 hc        1 PFD      0.046033
     46 H213        9.8230    1.9010   10.9280 hc        1 PFD      0.046033
     47 HN9        11.1150   -1.7060    3.2120 hn        1 PFD      0.360000
     48 HN7        10.1790    2.2810    3.3800 hn        1 PFD      0.360000
@<TRIPOS>BOND
     1    1    2 1   
     2    2    3 ar  
     3    2    5 ar  
     4    3    4 ar  
     5    3   30 1   
     6    4    7 ar  
     7    4   31 1   
     8    5    6 ar  
     9    5   32 1   
    10    6    7 ar  
    11    6   33 1   
    12    7    8 1   
    13    8    9 1   
    14    9   10 ar  
    15    9   12 ar  
    16   10   11 ar  
    17   10   34 1   
    18   11   14 ar  
    19   11   35 1   
    20   12   13 ar  
    21   12   36 1   
    22   13   14 ar  
    23   13   37 1   
    24   14   15 1   
    25   15   16 1   
    26   16   17 1   
    27   16   22 1   
    28   16   28 1   
    29   17   18 1   
    30   17   38 1   
    31   17   39 1   
    32   18   19 1   
    33   18   40 1   
    34   18   41 1   
    35   19   20 1   
    36   20   21 1   
    37   20   42 1   
    38   20   43 1   
    39   21   44 1   
    40   21   45 1   
    41   21   46 1   
    42   22   23 2   
    43   22   24 1   
    44   24   25 1   
    45   24   47 1   
    46   25   26 2   
    47   25   27 1   
    48   27   28 1   
    49   27   48 1   
    50   28   29 2   
@<TRIPOS>SUBSTRUCTURE
     1 PFD         1 TEMP              0 ****  ****    0 ROOT
