@<TRIPOS>MOLECULE
PFD
   48    50     1     0     0
SMALL
bcc


@<TRIPOS>ATOM
      1 F29         0.2480    1.7970   -1.0950 f         1 PFD     -0.137900
      2 C28         1.3080    1.0620   -0.6800 ca        1 PFD      0.113900
      3 C26         1.3970    0.6640    0.6670 ca        1 PFD     -0.147500
      4 C24         2.4850   -0.0920    1.0910 ca        1 PFD     -0.124000
      5 C27         2.3110    0.7020   -1.6000 ca        1 PFD     -0.147500
      6 C25         3.4010   -0.0480   -1.1740 ca        1 PFD     -0.124000
      7 C23         3.4780   -0.4430    0.1690 ca        1 PFD      0.079100
      8 O22         4.5310   -1.2970    0.4950 os        1 PFD     -0.244200
      9 C20         5.1960   -1.0450    1.6880 ca        1 PFD      0.119100
     10 C16         5.2920    0.2270    2.2680 ca        1 PFD     -0.161500
     11 C12         6.0520    0.3940    3.4220 ca        1 PFD     -0.098500
     12 C17         5.8470   -2.1570    2.2500 ca        1 PFD     -0.161500
     13 C13         6.6090   -1.9870    3.4000 ca        1 PFD     -0.098500
     14 C6          6.7100   -0.7120    3.9770 ca        1 PFD      0.017100
     15 O2          7.3370   -0.5790    5.2160 os        1 PFD     -0.288900
     16 C1          8.7230   -0.2390    5.1910 c3        1 PFD      0.042800
     17 C5          9.1810   -0.2270    6.6600 c3        1 PFD     -0.073400
     18 C11         8.2400    0.5730    7.5450 c3        1 PFD      0.128400
     19 O15         8.8780    0.6480    8.8190 os        1 PFD     -0.431600
     20 C19         8.0780    1.3410    9.7780 c3        1 PFD      0.132400
     21 C21         8.8610    1.3570   11.0700 c3        1 PFD     -0.097100
     22 C4          9.5330   -1.3410    4.4830 c         1 PFD      0.684500
     23 O10         9.3320   -2.5430    4.7070 o         1 PFD     -0.575500
     24 N9         10.5520   -0.9750    3.6090 ns        1 PFD     -0.591500
     25 C14        10.8100    0.3490    3.2150 c         1 PFD      0.818500
     26 O18        11.7410    0.6090    2.4280 o         1 PFD     -0.609500
     27 N7          9.9950    1.3740    3.7250 ns        1 PFD     -0.591500
     28 C3          8.9210    1.1600    4.5850 c         1 PFD      0.684500
     29 O8          8.1800    2.1130    4.8640 o         1 PFD     -0.575500
     30 H26         0.6050    0.9500    1.3740 ha        1 PFD      0.155000
     31 H24         2.5680   -0.4120    2.1400 ha        1 PFD      0.156000
     32 H27         2.2260    1.0180   -2.6500 ha        1 PFD      0.155000
     33 H25         4.1930   -0.3440   -1.8780 ha        1 PFD      0.156000
     34 H16         4.7690    1.0830    1.8170 ha        1 PFD      0.157000
     35 H12         6.1370    1.3820    3.9040 ha        1 PFD      0.169500
     36 H17         5.7510   -3.1440    1.7740 ha        1 PFD      0.157000
     37 H13         7.1270   -2.8410    3.8670 ha        1 PFD      0.169500
     38 H51        10.2150    0.2020    6.7140 hc        1 PFD      0.083200
     39 H52         9.2180   -1.2870    7.0280 hc        1 PFD      0.083200
     40 H111        8.0790    1.6070    7.1380 h1        1 PFD      0.051700
     41 H112        7.2500    0.0530    7.6380 h1        1 PFD      0.051700
     42 H191        7.8770    2.3840    9.4120 h1        1 PFD      0.028200
     43 H192        7.0990    0.8050    9.9040 h1        1 PFD      0.028200
     44 H211        8.2700    1.8890   11.8520 hc        1 PFD      0.046033
     45 H212        9.8360    1.8800   10.9280 hc        1 PFD      0.046033
     46 H213        9.0690    0.3150   11.4120 hc        1 PFD      0.046033
     47 HN9        11.1170   -1.6860    3.1910 hn        1 PFD      0.360000
     48 HN7        10.1680    2.2970    3.3800 hn        1 PFD      0.360000
@<TRIPOS>BOND
     1    1    2 1   
     2    2    3 ar  
     3    2    5 ar  
     4    3    4 ar  
     5    3   30 1   
     6    4    7 ar  
     7    4   31 1   
     8    5    6 ar  
     9    5   32 1   
    10    6    7 ar  
    11    6   33 1   
    12    7    8 1   
    13    8    9 1   
    14    9   10 ar  
    15    9   12 ar  
    16   10   11 ar  
    17   10   34 1   
    18   11   14 ar  
    19   11   35 1   
    20   12   13 ar  
    21   12   36 1   
    22   13   14 ar  
    23   13   37 1   
    24   14   15 1   
    25   15   16 1   
    26   16   17 1   
    27   16   22 1   
    28   16   28 1   
    29   17   18 1   
    30   17   38 1   
    31   17   39 1   
    32   18   19 1   
    33   18   40 1   
    34   18   41 1   
    35   19   20 1   
    36   20   21 1   
    37   20   42 1   
    38   20   43 1   
    39   21   44 1   
    40   21   45 1   
    41   21   46 1   
    42   22   23 2   
    43   22   24 1   
    44   24   25 1   
    45   24   47 1   
    46   25   26 2   
    47   25   27 1   
    48   27   28 1   
    49   27   48 1   
    50   28   29 2   
@<TRIPOS>SUBSTRUCTURE
     1 PFD         1 TEMP              0 ****  ****    0 ROOT
