@<TRIPOS>MOLECULE
PFD
   48    50     1     0     0
SMALL
bcc


@<TRIPOS>ATOM
      1 F29         2.2050   -1.6960   -7.6550 f         1 PFD     -0.137900
      2 C28         1.5190   -1.0520   -6.6800 ca        1 PFD      0.113900
      3 C26         2.2180   -0.4350   -5.6250 ca        1 PFD     -0.147500
      4 C24         1.5130    0.2260   -4.6260 ca        1 PFD     -0.124000
      5 C27         0.1130   -1.0060   -6.7290 ca        1 PFD     -0.147500
      6 C25        -0.5920   -0.3510   -5.7250 ca        1 PFD     -0.124000
      7 C23         0.1140    0.2650   -4.6820 ca        1 PFD      0.079100
      8 O22        -0.6490    1.0080   -3.7840 os        1 PFD     -0.244200
      9 C20        -0.3290    0.8860   -2.4370 ca        1 PFD      0.119100
     10 C16         0.2500   -0.2610   -1.8800 ca        1 PFD     -0.161500
     11 C12         0.4580   -0.3210   -0.5050 ca        1 PFD     -0.098500
     12 C17        -0.7020    1.9800   -1.6370 ca        1 PFD     -0.161500
     13 C13        -0.4990    1.9160   -0.2640 ca        1 PFD     -0.098500
     14 C6          0.0760    0.7640    0.2940 ca        1 PFD      0.017100
     15 O2          0.4270    0.7710    1.6450 os        1 PFD     -0.288900
     16 C1         -0.5400    0.2440    2.5530 c3        1 PFD      0.042800
     17 C5          0.0560    0.4330    3.9600 c3        1 PFD     -0.073400
     18 C11         1.4920   -0.0570    4.0430 c3        1 PFD      0.128400
     19 O15         1.8450    0.0110    5.4230 os        1 PFD     -0.431600
     20 C19         3.1990   -0.3820    5.6490 c3        1 PFD      0.132400
     21 C21         3.4420   -0.2720    7.1360 c3        1 PFD     -0.097100
     22 C4         -1.8330    1.0780    2.5030 c         1 PFD      0.684500
     23 O10        -1.8100    2.3160    2.4840 o         1 PFD     -0.575500
     24 N9         -3.0610    0.4230    2.5330 n         1 PFD     -0.591500
     25 C14        -3.2080   -0.9730    2.4670 c         1 PFD      0.818500
     26 O18        -4.3380   -1.4960    2.5000 o         1 PFD     -0.609500
     27 N7         -2.0530   -1.7670    2.3610 n         1 PFD     -0.591500
     28 C3         -0.7600   -1.2550    2.2910 c         1 PFD      0.684500
     29 O8          0.1780   -2.0310    2.0570 o         1 PFD     -0.575500
     30 H26         3.3170   -0.4770   -5.6010 ha        1 PFD      0.155000
     31 H24         2.0440    0.7150   -3.7950 ha        1 PFD      0.156000
     32 H27        -0.4190   -1.4910   -7.5600 ha        1 PFD      0.155000
     33 H25        -1.6900   -0.2990   -5.7480 ha        1 PFD      0.156000
     34 H16         0.5420   -1.1040   -2.5250 ha        1 PFD      0.157000
     35 H12         0.9200   -1.2090   -0.0420 ha        1 PFD      0.169500
     36 H17        -1.1520    2.8690   -2.1030 ha        1 PFD      0.157000
     37 H13        -0.7760    2.7600    0.3890 ha        1 PFD      0.169500
     38 H51        -0.5810   -0.1170    4.7000 hc        1 PFD      0.083200
     39 H52         0.0270    1.5270    4.2120 hc        1 PFD      0.083200
     40 H111        2.1690    0.6030    3.4370 h1        1 PFD      0.051700
     41 H112        1.5830   -1.1150    3.6770 h1        1 PFD      0.051700
     42 H191        3.8850    0.2980    5.0750 h1        1 PFD      0.028200
     43 H192        3.3460   -1.4350    5.2900 h1        1 PFD      0.028200
     44 H211        4.4940   -0.5680    7.3600 hc        1 PFD      0.046033
     45 H212        3.2740    0.7760    7.4820 hc        1 PFD      0.046033
     46 H213        2.7460   -0.9410    7.6950 hc        1 PFD      0.046033
     47 HN9        -3.9030    0.9630    2.5590 hn        1 PFD      0.360000
     48 HN7        -2.1950   -2.7510    2.2570 hn        1 PFD      0.360000
@<TRIPOS>BOND
     1    1    2 1   
     2    2    3 ar  
     3    2    5 ar  
     4    3    4 ar  
     5    3   30 1   
     6    4    7 ar  
     7    4   31 1   
     8    5    6 ar  
     9    5   32 1   
    10    6    7 ar  
    11    6   33 1   
    12    7    8 1   
    13    8    9 1   
    14    9   10 ar  
    15    9   12 ar  
    16   10   11 ar  
    17   10   34 1   
    18   11   14 ar  
    19   11   35 1   
    20   12   13 ar  
    21   12   36 1   
    22   13   14 ar  
    23   13   37 1   
    24   14   15 1   
    25   15   16 1   
    26   16   17 1   
    27   16   22 1   
    28   16   28 1   
    29   17   18 1   
    30   17   38 1   
    31   17   39 1   
    32   18   19 1   
    33   18   40 1   
    34   18   41 1   
    35   19   20 1   
    36   20   21 1   
    37   20   42 1   
    38   20   43 1   
    39   21   44 1   
    40   21   45 1   
    41   21   46 1   
    42   22   23 2   
    43   22   24 1   
    44   24   25 1   
    45   24   47 1   
    46   25   26 2   
    47   25   27 1   
    48   27   28 1   
    49   27   48 1   
    50   28   29 2   
@<TRIPOS>SUBSTRUCTURE
     1 PFD         1 TEMP              0 ****  ****    0 ROOT
