@<TRIPOS>MOLECULE
PFD
   48    50     1     0     0
SMALL
bcc


@<TRIPOS>ATOM
      1 F29         0.2770    1.8090   -1.1270 f         1 PFD     -0.137900
      2 C28         1.3330    1.0710   -0.7070 ca        1 PFD      0.113900
      3 C26         1.4160    0.6750    0.6410 ca        1 PFD     -0.147500
      4 C24         2.4990   -0.0830    1.0710 ca        1 PFD     -0.124000
      5 C27         2.3400    0.7080   -1.6220 ca        1 PFD     -0.147500
      6 C25         3.4260   -0.0440   -1.1900 ca        1 PFD     -0.124000
      7 C23         3.4960   -0.4380    0.1540 ca        1 PFD      0.079100
      8 O22         4.5450   -1.2940    0.4850 os        1 PFD     -0.244200
      9 C20         5.2050   -1.0430    1.6820 ca        1 PFD      0.119100
     10 C16         5.3020    0.2290    2.2600 ca        1 PFD     -0.161500
     11 C12         6.0560    0.3950    3.4190 ca        1 PFD     -0.098500
     12 C17         5.8500   -2.1560    2.2480 ca        1 PFD     -0.161500
     13 C13         6.6070   -1.9870    3.4010 ca        1 PFD     -0.098500
     14 C6          6.7080   -0.7120    3.9770 ca        1 PFD      0.017100
     15 O2          7.3300   -0.5800    5.2190 os        1 PFD     -0.288900
     16 C1          8.7170   -0.2430    5.2010 c3        1 PFD      0.042800
     17 C5          9.1680   -0.2310    6.6720 c3        1 PFD     -0.073400
     18 C11         8.2250    0.5730    7.5520 c3        1 PFD      0.128400
     19 O15         8.8560    0.6470    8.8290 os        1 PFD     -0.431600
     20 C19         8.0540    1.3450    9.7820 c3        1 PFD      0.132400
     21 C21         8.8300    1.3590   11.0780 c3        1 PFD     -0.097100
     22 C4          9.5270   -1.3480    4.4980 c         1 PFD      0.684500
     23 O10         9.3220   -2.5490    4.7220 o         1 PFD     -0.575500
     24 N9         10.5520   -0.9860    3.6290 n         1 PFD     -0.591500
     25 C14        10.8160    0.3360    3.2350 c         1 PFD      0.818500
     26 O18        11.7520    0.5930    2.4520 o         1 PFD     -0.609500
     27 N7         10.0010    1.3650    3.7390 n         1 PFD     -0.591500
     28 C3          8.9220    1.1540    4.5940 c         1 PFD      0.684500
     29 O8          8.1820    2.1100    4.8690 o         1 PFD     -0.575500
     30 H26         0.6210    0.9640    1.3440 ha        1 PFD      0.155000
     31 H24         2.5780   -0.4030    2.1210 ha        1 PFD      0.156000
     32 H27         2.2600    1.0230   -2.6730 ha        1 PFD      0.155000
     33 H25         4.2200   -0.3430   -1.8900 ha        1 PFD      0.156000
     34 H16         4.7840    1.0860    1.8060 ha        1 PFD      0.157000
     35 H12         6.1420    1.3830    3.9000 ha        1 PFD      0.169500
     36 H17         5.7540   -3.1430    1.7720 ha        1 PFD      0.157000
     37 H13         7.1200   -2.8420    3.8720 ha        1 PFD      0.169500
     38 H51         9.1990   -1.2910    7.0420 hc        1 PFD      0.083200
     39 H52        10.2030    0.1950    6.7310 hc        1 PFD      0.083200
     40 H111        8.0690    1.6070    7.1430 h1        1 PFD      0.051700
     41 H112        7.2320    0.0570    7.6400 h1        1 PFD      0.051700
     42 H191        7.8590    2.3880    9.4150 h1        1 PFD      0.028200
     43 H192        7.0720    0.8120    9.9040 h1        1 PFD      0.028200
     44 H211        9.0320    0.3170   11.4230 hc        1 PFD      0.046033
     45 H212        8.2370    1.8940   11.8570 hc        1 PFD      0.046033
     46 H213        9.8080    1.8780   10.9410 hc        1 PFD      0.046033
     47 HN9        11.1170   -1.7000    3.2150 hn        1 PFD      0.360000
     48 HN7        10.1780    2.2860    3.3940 hn        1 PFD      0.360000
@<TRIPOS>BOND
     1    1    2 1   
     2    2    3 ar  
     3    2    5 ar  
     4    3    4 ar  
     5    3   30 1   
     6    4    7 ar  
     7    4   31 1   
     8    5    6 ar  
     9    5   32 1   
    10    6    7 ar  
    11    6   33 1   
    12    7    8 1   
    13    8    9 1   
    14    9   10 ar  
    15    9   12 ar  
    16   10   11 ar  
    17   10   34 1   
    18   11   14 ar  
    19   11   35 1   
    20   12   13 ar  
    21   12   36 1   
    22   13   14 ar  
    23   13   37 1   
    24   14   15 1   
    25   15   16 1   
    26   16   17 1   
    27   16   22 1   
    28   16   28 1   
    29   17   18 1   
    30   17   38 1   
    31   17   39 1   
    32   18   19 1   
    33   18   40 1   
    34   18   41 1   
    35   19   20 1   
    36   20   21 1   
    37   20   42 1   
    38   20   43 1   
    39   21   44 1   
    40   21   45 1   
    41   21   46 1   
    42   22   23 2   
    43   22   24 1   
    44   24   25 1   
    45   24   47 1   
    46   25   26 2   
    47   25   27 1   
    48   27   28 1   
    49   27   48 1   
    50   28   29 2   
@<TRIPOS>SUBSTRUCTURE
     1 PFD         1 TEMP              0 ****  ****    0 ROOT
