@<TRIPOS>MOLECULE
PFE
   53    56     1     0     0
SMALL
bcc


@<TRIPOS>ATOM
      1 O51         7.4290   -1.6550    0.9850 oh        1 PFE     -0.574800
      2 C47         7.1890   -0.7620    2.0490 c3        1 PFE      0.102100
      3 C48         5.7800   -0.8280    2.5500 cc        1 PFE      0.329700
      4 S45         4.7970    0.5690    2.6440 ss        1 PFE      0.057700
      5 C43         3.5340   -0.3130    3.2450 cc        1 PFE     -0.249400
      6 N44         5.1830   -1.9540    2.9570 nd        1 PFE     -0.649000
      7 C40         3.8780   -1.6660    3.3550 cd        1 PFE      0.354800
      8 C36         2.9780   -2.7120    3.8240 ca        1 PFE     -0.069500
      9 C35         3.4940   -3.9120    4.3310 ca        1 PFE     -0.093000
     10 C33         1.5860   -2.5340    3.7580 ca        1 PFE     -0.075000
     11 C37         0.7230   -3.5350    4.1970 ca        1 PFE     -0.104000
     12 C34         1.2190   -4.7390    4.6940 ca        1 PFE     -0.092000
     13 C32         2.6110   -4.9180    4.7540 ca        1 PFE     -0.049400
     14 N3          3.1600   -6.1770    5.2790 n4        1 PFE     -0.618100
     15 C4          2.8640   -7.3380    4.3980 ca        1 PFE      0.510200
     16 N2          1.7830   -8.0690    4.7220 nb        1 PFE     -0.693000
     17 C7          1.5310   -9.1540    3.9180 ca        1 PFE      0.651900
     18 C6          3.7160   -7.6300    3.2850 ca        1 PFE     -0.211600
     19 C9          4.8500   -6.8710    2.9010 ca        1 PFE     -0.246000
     20 C13         5.6050   -7.2460    1.8120 ca        1 PFE      0.191100
     21 O15         6.7050   -6.5970    1.3380 os        1 PFE     -0.280900
     22 C20         7.1320   -5.4230    2.0580 c3        1 PFE      0.118400
     23 C21         8.3510   -4.9210    1.3190 c3        1 PFE     -0.110100
     24 C8          3.3450   -8.8010    2.5260 ca        1 PFE      0.455600
     25 N5          2.2450   -9.5520    2.8580 nb        1 PFE     -0.627000
     26 C18         4.1490   -9.1770    1.4020 ca        1 PFE     -0.261300
     27 C16         5.2480   -8.4320    1.0490 ca        1 PFE      0.176100
     28 O17         6.0860   -8.6910    0.0070 os        1 PFE     -0.289900
     29 C19         5.7760   -9.8500   -0.7980 c3        1 PFE      0.122400
     30 C26         6.8430   -9.8950   -1.8650 c3        1 PFE     -0.104100
     31 H51         7.2900   -2.5540    1.3120 ho        1 PFE      0.408000
     32 H471        7.8960   -0.9630    2.9020 h1        1 PFE      0.071700
     33 H472        7.3990    0.2560    1.6160 h1        1 PFE      0.071700
     34 H431        2.5690    0.1110    3.5240 h4        1 PFE      0.192000
     35 H351        4.5870   -4.0480    4.3910 ha        1 PFE      0.161000
     36 H331        1.1720   -1.5980    3.3480 ha        1 PFE      0.165000
     37 H371       -0.3680   -3.3820    4.1440 ha        1 PFE      0.170000
     38 H341        0.5220   -5.5270    5.0240 ha        1 PFE      0.171000
     39 H31         2.7540   -6.3390    6.2140 hn        1 PFE      0.467800
     40 H71         0.6350   -9.7550    4.1950 h5        1 PFE      0.089100
     41 H91         5.1170   -5.9570    3.4490 ha        1 PFE      0.136000
     42 H201        7.3810   -5.7150    3.1120 h1        1 PFE      0.045200
     43 H202        6.3050   -4.6640    2.0530 h1        1 PFE      0.045200
     44 H211        9.0980   -5.7420    1.1930 hc        1 PFE      0.064367
     45 H212        8.0690   -4.5440    0.3060 hc        1 PFE      0.064367
     46 H213        8.8150   -4.0920    1.9050 hc        1 PFE      0.064367
     47 H181        3.8600  -10.0760    0.8320 ha        1 PFE      0.185000
     48 H191        5.8040  -10.7620   -0.1470 h1        1 PFE      0.051700
     49 H192        4.7530   -9.7230   -1.2400 h1        1 PFE      0.051700
     50 H261        6.6550  -10.7760   -2.5240 hc        1 PFE      0.061700
     51 H262        6.8220   -8.9640   -2.4810 hc        1 PFE      0.061700
     52 H263        7.8560   -9.9890   -1.4050 hc        1 PFE      0.061700
     53 H32         4.1820   -6.1010    5.3660 hn        1 PFE      0.467800
@<TRIPOS>BOND
     1    1    2 1   
     2    1   31 1   
     3    2    3 1   
     4    2   32 1   
     5    2   33 1   
     6    3    4 1   
     7    3    6 2   
     8    4    5 1   
     9    5    7 2   
    10    5   34 1   
    11    6    7 1   
    12    7    8 1   
    13    8    9 ar  
    14    8   10 ar  
    15    9   13 ar  
    16    9   35 1   
    17   10   11 ar  
    18   10   36 1   
    19   11   12 ar  
    20   11   37 1   
    21   12   13 ar  
    22   12   38 1   
    23   13   14 1   
    24   14   15 1   
    25   14   39 1   
    26   14   53 1   
    27   15   16 ar  
    28   15   18 ar  
    29   16   17 ar  
    30   17   25 ar  
    31   17   40 1   
    32   18   19 ar  
    33   18   24 ar  
    34   19   20 ar  
    35   19   41 1   
    36   20   21 1   
    37   20   27 ar  
    38   21   22 1   
    39   22   23 1   
    40   22   42 1   
    41   22   43 1   
    42   23   44 1   
    43   23   45 1   
    44   23   46 1   
    45   24   25 ar  
    46   24   26 ar  
    47   26   27 ar  
    48   26   47 1   
    49   27   28 1   
    50   28   29 1   
    51   29   30 1   
    52   29   48 1   
    53   29   49 1   
    54   30   50 1   
    55   30   51 1   
    56   30   52 1   
@<TRIPOS>SUBSTRUCTURE
     1 PFE         1 TEMP              0 ****  ****    0 ROOT
