@<TRIPOS>MOLECULE
PFE
   52    55     1     0     0
SMALL
bcc


@<TRIPOS>ATOM
      1 O51         3.3990    0.1270   -6.0670 oh        1 PFE     -0.587800
      2 C47         2.5560    1.2560   -6.1350 c3        1 PFE      0.108100
      3 C48         1.1280    0.9300   -5.8340 cc        1 PFE      0.337700
      4 S45        -0.1200    1.2210   -6.9780 ss        1 PFE     -0.058300
      5 C43        -1.2640    0.6370   -5.9210 cc        1 PFE     -0.255400
      6 N44         0.7110    0.4010   -4.6830 nd        1 PFE     -0.618000
      7 C40        -0.6730    0.2230   -4.7240 cd        1 PFE      0.400800
      8 C36        -1.4150   -0.3450   -3.6020 ca        1 PFE     -0.106500
      9 C35        -0.9660   -0.1680   -2.2880 ca        1 PFE     -0.077000
     10 C33        -2.5950   -1.0600   -3.8510 ca        1 PFE     -0.129000
     11 C37        -3.3250   -1.5860   -2.7890 ca        1 PFE     -0.117000
     12 C34        -2.8930   -1.4160   -1.4780 ca        1 PFE     -0.163000
     13 C32        -1.7040   -0.7000   -1.2120 ca        1 PFE      0.125600
     14 N3         -1.3220   -0.4480    0.1290 nh        1 PFE     -0.720300
     15 C4         -0.0530   -0.7850    0.6270 ca        1 PFE      0.685200
     16 N2          0.8970   -1.2940   -0.1890 nb        1 PFE     -0.755000
     17 C7          2.1220   -1.5500    0.3770 ca        1 PFE      0.663900
     18 C6          0.2300   -0.5280    2.0390 ca        1 PFE     -0.279600
     19 C9         -0.7060    0.0350    2.9420 ca        1 PFE     -0.167000
     20 C13        -0.3700    0.2380    4.2620 ca        1 PFE      0.110100
     21 O15        -1.1960    0.7670    5.2290 os        1 PFE     -0.304900
     22 C20        -2.4650    1.2550    4.7710 c3        1 PFE      0.124400
     23 C21        -3.1350    1.8580    5.9840 c3        1 PFE     -0.099100
     24 C8          1.5400   -0.8640    2.4980 ca        1 PFE      0.446600
     25 N5          2.4980   -1.3820    1.6450 nb        1 PFE     -0.714000
     26 C18         1.8710   -0.6550    3.8740 ca        1 PFE     -0.257300
     27 C16         0.9420   -0.1220    4.7380 ca        1 PFE      0.148100
     28 O17         1.1460    0.1200    6.0750 os        1 PFE     -0.304900
     29 C19         2.4450   -0.2230    6.5830 c3        1 PFE      0.122400
     30 C26         2.4180    0.1290    8.0520 c3        1 PFE     -0.099100
     31 H51         3.3290   -0.2420   -5.1770 ho        1 PFE      0.420000
     32 H471        2.6560    1.6210   -7.1940 h1        1 PFE      0.061200
     33 H472        2.9140    2.0530   -5.4250 h1        1 PFE      0.061200
     34 H431       -2.3300    0.5940   -6.1360 h4        1 PFE      0.184000
     35 H351       -0.0320    0.3860   -2.1000 ha        1 PFE      0.168000
     36 H331       -2.9390   -1.2140   -4.8840 ha        1 PFE      0.135000
     37 H371       -4.2490   -2.1490   -2.9860 ha        1 PFE      0.134000
     38 H341       -3.4850   -1.8440   -0.6550 ha        1 PFE      0.130000
     39 H31        -2.0590   -0.5930    0.7890 hn        1 PFE      0.422800
     40 H71         2.8780   -1.9600   -0.3260 h5        1 PFE      0.054100
     41 H91        -1.7020    0.3360    2.5890 ha        1 PFE      0.140000
     42 H201       -2.3060    2.0230    3.9700 h1        1 PFE      0.037200
     43 H202       -3.0630    0.4000    4.3600 h1        1 PFE      0.037200
     44 H211       -4.1380    2.2480    5.6900 hc        1 PFE      0.051033
     45 H212       -3.2600    1.0890    6.7840 hc        1 PFE      0.051033
     46 H213       -2.5200    2.6940    6.3940 hc        1 PFE      0.051033
     47 H181        2.8810   -0.9280    4.2150 ha        1 PFE      0.163000
     48 H191        3.2260    0.3680    6.0360 h1        1 PFE      0.042700
     49 H192        2.6260   -1.3200    6.4290 h1        1 PFE      0.042700
     50 H261        3.4080   -0.1170    8.5040 hc        1 PFE      0.050700
     51 H262        2.2110    1.2170    8.1890 hc        1 PFE      0.050700
     52 H263        1.6200   -0.4480    8.5770 hc        1 PFE      0.050700
@<TRIPOS>BOND
     1    1    2 1   
     2    1   31 1   
     3    2    3 1   
     4    2   32 1   
     5    2   33 1   
     6    3    4 1   
     7    3    6 2   
     8    4    5 1   
     9    5    7 2   
    10    5   34 1   
    11    6    7 1   
    12    7    8 1   
    13    8    9 ar  
    14    8   10 ar  
    15    9   13 ar  
    16    9   35 1   
    17   10   11 ar  
    18   10   36 1   
    19   11   12 ar  
    20   11   37 1   
    21   12   13 ar  
    22   12   38 1   
    23   13   14 1   
    24   14   15 1   
    25   14   39 1   
    26   15   16 ar  
    27   15   18 ar  
    28   16   17 ar  
    29   17   25 ar  
    30   17   40 1   
    31   18   19 ar  
    32   18   24 ar  
    33   19   20 ar  
    34   19   41 1   
    35   20   21 1   
    36   20   27 ar  
    37   21   22 1   
    38   22   23 1   
    39   22   42 1   
    40   22   43 1   
    41   23   44 1   
    42   23   45 1   
    43   23   46 1   
    44   24   25 ar  
    45   24   26 ar  
    46   26   27 ar  
    47   26   47 1   
    48   27   28 1   
    49   28   29 1   
    50   29   30 1   
    51   29   48 1   
    52   29   49 1   
    53   30   50 1   
    54   30   51 1   
    55   30   52 1   
@<TRIPOS>SUBSTRUCTURE
     1 PFE         1 TEMP              0 ****  ****    0 ROOT
