@<TRIPOS>MOLECULE
PFE
   52    55     1     0     0
SMALL
bcc


@<TRIPOS>ATOM
      1 O51         0.7800    0.5750   -0.2080 oh        1 PFE     -0.587800
      2 C47         1.9090    1.1670    0.3950 c3        1 PFE      0.108100
      3 C48         2.1060    0.7290    1.8110 cc        1 PFE      0.337700
      4 S45         2.1140    1.8560    3.1070 ss        1 PFE     -0.058300
      5 C43         2.3760    0.6340    4.2050 cc        1 PFE     -0.255400
      6 N44         2.2890   -0.5400    2.1790 nd        1 PFE     -0.618000
      7 C40         2.4420   -0.6070    3.5650 cd        1 PFE      0.400800
      8 C36         2.6540   -1.8740    4.2610 ca        1 PFE     -0.106500
      9 C35         3.3120   -2.9330    3.6260 ca        1 PFE     -0.077000
     10 C33         2.2050   -2.0150    5.5820 ca        1 PFE     -0.129000
     11 C37         2.4220   -3.2080    6.2640 ca        1 PFE     -0.117000
     12 C34         3.0760   -4.2690    5.6480 ca        1 PFE     -0.163000
     13 C32         3.5320   -4.1430    4.3170 ca        1 PFE      0.125600
     14 N3          4.2820   -5.1910    3.7300 nu        1 PFE     -0.720300
     15 C4          3.9300   -5.7740    2.5010 ca        1 PFE      0.685200
     16 N2          2.8920   -5.2910    1.7800 nb        1 PFE     -0.755000
     17 C7          2.6510   -5.8950    0.5700 ca        1 PFE      0.663900
     18 C6          4.7400   -6.8840    2.0000 ca        1 PFE     -0.279600
     19 C9          5.8590   -7.4150    2.6860 ca        1 PFE     -0.167000
     20 C13         6.5690   -8.4700    2.1550 ca        1 PFE      0.110100
     21 O15         7.6630   -9.0740    2.7330 os        1 PFE     -0.304900
     22 C20         8.1630   -8.4550    3.9280 c3        1 PFE      0.124400
     23 C21         9.3990   -9.2370    4.3100 c3        1 PFE     -0.099100
     24 C8          4.3600   -7.4300    0.7370 ca        1 PFE      0.446600
     25 N5          3.2960   -6.9200    0.0140 nb        1 PFE     -0.714000
     26 C18         5.1010   -8.5310    0.2040 ca        1 PFE     -0.257300
     27 C16         6.1760   -9.0430    0.8930 ca        1 PFE      0.148100
     28 O17         6.9570  -10.0970    0.4820 os        1 PFE     -0.304900
     29 C19         6.5970  -10.6900   -0.7770 c3        1 PFE      0.122400
     30 C26         7.5890  -11.8070   -1.0020 c3        1 PFE     -0.099100
     31 H51         0.8960   -0.3840   -0.1760 ho        1 PFE      0.420000
     32 H471        1.7040    2.2720    0.3560 h1        1 PFE      0.061200
     33 H472        2.8360    0.9340   -0.2010 h1        1 PFE      0.061200
     34 H431        2.4890    0.7870    5.2760 h4        1 PFE      0.184000
     35 H351        3.6540   -2.8200    2.5850 ha        1 PFE      0.168000
     36 H331        1.6730   -1.1880    6.0740 ha        1 PFE      0.135000
     37 H371        2.0670   -3.3180    7.3000 ha        1 PFE      0.134000
     38 H341        3.2330   -5.2040    6.2080 ha        1 PFE      0.130000
     39 H31         4.6390   -5.8480    4.3930 hn        1 PFE      0.422800
     40 H71         1.7960   -5.4670    0.0040 h5        1 PFE      0.054100
     41 H91         6.1850   -6.9740    3.6380 ha        1 PFE      0.140000
     42 H201        8.4090   -7.3800    3.7200 h1        1 PFE      0.037200
     43 H202        7.3810   -8.5140    4.7300 h1        1 PFE      0.037200
     44 H211       10.1600   -9.1850    3.4950 hc        1 PFE      0.051033
     45 H212        9.8290   -8.8050    5.2440 hc        1 PFE      0.051033
     46 H213        9.1430  -10.3090    4.4840 hc        1 PFE      0.051033
     47 H181        4.7910   -8.9490   -0.7670 ha        1 PFE      0.163000
     48 H191        5.5480  -11.0810   -0.7160 h1        1 PFE      0.042700
     49 H192        6.6650   -9.9140   -1.5850 h1        1 PFE      0.042700
     50 H261        7.5270  -12.5560   -0.1770 hc        1 PFE      0.050700
     51 H262        7.3570  -12.3080   -1.9720 hc        1 PFE      0.050700
     52 H263        8.6290  -11.4050   -1.0350 hc        1 PFE      0.050700
@<TRIPOS>BOND
     1    1    2 1   
     2    1   31 1   
     3    2    3 1   
     4    2   32 1   
     5    2   33 1   
     6    3    4 1   
     7    3    6 2   
     8    4    5 1   
     9    5    7 2   
    10    5   34 1   
    11    6    7 1   
    12    7    8 1   
    13    8    9 ar  
    14    8   10 ar  
    15    9   13 ar  
    16    9   35 1   
    17   10   11 ar  
    18   10   36 1   
    19   11   12 ar  
    20   11   37 1   
    21   12   13 ar  
    22   12   38 1   
    23   13   14 1   
    24   14   15 1   
    25   14   39 1   
    26   15   16 ar  
    27   15   18 ar  
    28   16   17 ar  
    29   17   25 ar  
    30   17   40 1   
    31   18   19 ar  
    32   18   24 ar  
    33   19   20 ar  
    34   19   41 1   
    35   20   21 1   
    36   20   27 ar  
    37   21   22 1   
    38   22   23 1   
    39   22   42 1   
    40   22   43 1   
    41   23   44 1   
    42   23   45 1   
    43   23   46 1   
    44   24   25 ar  
    45   24   26 ar  
    46   26   27 ar  
    47   26   47 1   
    48   27   28 1   
    49   28   29 1   
    50   29   30 1   
    51   29   48 1   
    52   29   49 1   
    53   30   50 1   
    54   30   51 1   
    55   30   52 1   
@<TRIPOS>SUBSTRUCTURE
     1 PFE         1 TEMP              0 ****  ****    0 ROOT
