@<TRIPOS>MOLECULE
PFE
   52    55     1     0     0
SMALL
bcc


@<TRIPOS>ATOM
      1 O51         0.7660    0.5730   -0.2030 oh        1 PFE     -0.587800
      2 C47         1.8970    1.1660    0.3970 c3        1 PFE      0.108100
      3 C48         2.0970    0.7280    1.8120 cc        1 PFE      0.338700
      4 S45         2.1070    1.8540    3.1090 ss        1 PFE     -0.058300
      5 C43         2.3720    0.6320    4.2060 cc        1 PFE     -0.255400
      6 N44         2.2820   -0.5410    2.1800 nd        1 PFE     -0.618000
      7 C40         2.4380   -0.6080    3.5660 cd        1 PFE      0.400800
      8 C36         2.6520   -1.8750    4.2610 ca        1 PFE     -0.106500
      9 C35         3.3110   -2.9330    3.6250 ca        1 PFE     -0.077000
     10 C33         2.2030   -2.0170    5.5820 ca        1 PFE     -0.129000
     11 C37         2.4220   -3.2100    6.2630 ca        1 PFE     -0.117000
     12 C34         3.0780   -4.2700    5.6460 ca        1 PFE     -0.163000
     13 C32         3.5330   -4.1430    4.3160 ca        1 PFE      0.125600
     14 N3          4.2850   -5.1890    3.7280 nh        1 PFE     -0.720300
     15 C4          3.9330   -5.7720    2.4990 ca        1 PFE      0.685200
     16 N2          2.8960   -5.2900    1.7770 nb        1 PFE     -0.755000
     17 C7          2.6550   -5.8930    0.5670 ca        1 PFE      0.663900
     18 C6          4.7440   -6.8820    1.9980 ca        1 PFE     -0.279600
     19 C9          5.8620   -7.4140    2.6850 ca        1 PFE     -0.167000
     20 C13         6.5720   -8.4690    2.1550 ca        1 PFE      0.110100
     21 O15         7.6660   -9.0730    2.7340 os        1 PFE     -0.304900
     22 C20         8.1650   -8.4550    3.9290 c3        1 PFE      0.124400
     23 C21         9.3990   -9.2380    4.3130 c3        1 PFE     -0.099100
     24 C8          4.3640   -7.4280    0.7340 ca        1 PFE      0.446600
     25 N5          3.3010   -6.9180    0.0110 nb        1 PFE     -0.714000
     26 C18         5.1060   -8.5290    0.2020 ca        1 PFE     -0.257300
     27 C16         6.1800   -9.0420    0.8920 ca        1 PFE      0.148100
     28 O17         6.9620  -10.0950    0.4810 os        1 PFE     -0.304900
     29 C19         6.6020  -10.6890   -0.7770 c3        1 PFE      0.122400
     30 C26         7.5930  -11.8070   -1.0020 c3        1 PFE     -0.099100
     31 H51         0.8830   -0.3850   -0.1720 ho        1 PFE      0.420000
     32 H471        2.8220    0.9330   -0.2010 h1        1 PFE      0.061200
     33 H472        1.6910    2.2710    0.3580 h1        1 PFE      0.061200
     34 H431        2.4870    0.7860    5.2770 h4        1 PFE      0.184000
     35 H351        3.6520   -2.8190    2.5840 ha        1 PFE      0.168000
     36 H331        1.6710   -1.1910    6.0750 ha        1 PFE      0.135000
     37 H371        2.0680   -3.3210    7.2990 ha        1 PFE      0.134000
     38 H341        3.2360   -5.2050    6.2060 ha        1 PFE      0.130000
     39 H31         4.6420   -5.8470    4.3900 hn        1 PFE      0.422800
     40 H71         1.8010   -5.4650   -0.0000 h5        1 PFE      0.054100
     41 H91         6.1880   -6.9730    3.6380 ha        1 PFE      0.140000
     42 H201        7.3810   -8.5150    4.7300 h1        1 PFE      0.037200
     43 H202        8.4110   -7.3800    3.7230 h1        1 PFE      0.037200
     44 H211       10.1620   -9.1860    3.4990 hc        1 PFE      0.051033
     45 H212        9.1430  -10.3100    4.4860 hc        1 PFE      0.051033
     46 H213        9.8280   -8.8060    5.2480 hc        1 PFE      0.051033
     47 H181        4.7970   -8.9470   -0.7690 ha        1 PFE      0.163000
     48 H191        5.5520  -11.0790   -0.7170 h1        1 PFE      0.042700
     49 H192        6.6700   -9.9140   -1.5860 h1        1 PFE      0.042700
     50 H261        8.6340  -11.4060   -1.0330 hc        1 PFE      0.050700
     51 H262        7.3620  -12.3080   -1.9710 hc        1 PFE      0.050700
     52 H263        7.5300  -12.5560   -0.1760 hc        1 PFE      0.050700
@<TRIPOS>BOND
     1    1    2 1   
     2    1   31 1   
     3    2    3 1   
     4    2   32 1   
     5    2   33 1   
     6    3    4 1   
     7    3    6 2   
     8    4    5 1   
     9    5    7 2   
    10    5   34 1   
    11    6    7 1   
    12    7    8 1   
    13    8    9 ar  
    14    8   10 ar  
    15    9   13 ar  
    16    9   35 1   
    17   10   11 ar  
    18   10   36 1   
    19   11   12 ar  
    20   11   37 1   
    21   12   13 ar  
    22   12   38 1   
    23   13   14 1   
    24   14   15 1   
    25   14   39 1   
    26   15   16 ar  
    27   15   18 ar  
    28   16   17 ar  
    29   17   25 ar  
    30   17   40 1   
    31   18   19 ar  
    32   18   24 ar  
    33   19   20 ar  
    34   19   41 1   
    35   20   21 1   
    36   20   27 ar  
    37   21   22 1   
    38   22   23 1   
    39   22   42 1   
    40   22   43 1   
    41   23   44 1   
    42   23   45 1   
    43   23   46 1   
    44   24   25 ar  
    45   24   26 ar  
    46   26   27 ar  
    47   26   47 1   
    48   27   28 1   
    49   28   29 1   
    50   29   30 1   
    51   29   48 1   
    52   29   49 1   
    53   30   50 1   
    54   30   51 1   
    55   30   52 1   
@<TRIPOS>SUBSTRUCTURE
     1 PFE         1 TEMP              0 ****  ****    0 ROOT
