@<TRIPOS>MOLECULE
PFF
   22    22     1     0     0
SMALL
bcc


@<TRIPOS>ATOM
      1 N           0.4580   -1.2240   -0.2980 n3        1 PFF     -0.887800
      2 CA          1.1910   -1.8910    0.7730 c3        1 PFF      0.021500
      3 C           0.4270   -3.1100    1.3910 c         1 PFF      0.885600
      4 O          -0.8200   -3.1850    1.2050 o         1 PFF     -0.841800
      5 OXT         1.1050   -3.9610    2.0330 o         1 PFF     -0.841800
      6 CB          1.5660   -0.9190    1.9070 c3        1 PFF     -0.019100
      7 CG          3.0120   -0.9840    2.2560 ca        1 PFF     -0.062300
      8 CD1         3.5980   -2.2160    2.5840 ca        1 PFF     -0.112000
      9 CD2         3.7940    0.1750    2.2840 ca        1 PFF     -0.112000
     10 CE1         4.9390   -2.2890    2.9400 ca        1 PFF     -0.177500
     11 CE2         5.1400    0.1220    2.6380 ca        1 PFF     -0.177500
     12 CZ          5.7160   -1.1150    2.9690 ca        1 PFF      0.086900
     13 F           7.0280   -1.1780    3.3180 f         1 PFF     -0.168900
     14 H           0.2190   -1.9240   -0.9780 hn        1 PFF      0.331800
     15 H2         -0.4140   -0.8940    0.0810 hn        1 PFF      0.331800
     16 HA          2.1390   -2.2960    0.3130 h1        1 PFF      0.048700
     17 HB2         1.2940    0.1370    1.6410 hc        1 PFF      0.046200
     18 HB3         0.9700   -1.1950    2.8210 hc        1 PFF      0.046200
     19 HD1         2.9620   -3.1290    2.5460 ha        1 PFF      0.171000
     20 HD2         3.3450    1.1440    2.0190 ha        1 PFF      0.171000
     21 HE1         5.3990   -3.2530    3.1980 ha        1 PFF      0.130000
     22 HE2         5.7530    1.0320    2.6580 ha        1 PFF      0.130000
@<TRIPOS>BOND
     1    1    2 1   
     2    1   14 1   
     3    1   15 1   
     4    2    3 1   
     5    2    6 1   
     6    2   16 1   
     7    3    4 1   
     8    3    5 1   
     9    6    7 1   
    10    6   17 1   
    11    6   18 1   
    12    7    8 ar  
    13    7    9 ar  
    14    8   10 ar  
    15    8   19 1   
    16    9   11 ar  
    17    9   20 1   
    18   10   12 ar  
    19   10   21 1   
    20   11   12 ar  
    21   11   22 1   
    22   12   13 1   
@<TRIPOS>SUBSTRUCTURE
     1 PFF         1 TEMP              0 ****  ****    0 ROOT
