@<TRIPOS>MOLECULE
PFH
   53    57     1     0     0
SMALL
bcc


@<TRIPOS>ATOM
      1 C4         -2.5460    0.9470   -7.3650 ca        1 PFH     -0.174300
      2 C7         -1.1300    1.0110   -3.8640 ca        1 PFH      0.651200
      3 C6         -1.8150    0.5060   -5.0550 ca        1 PFH     -0.236600
      4 C9         -0.7820    3.0180   -4.9820 ca        1 PFH      0.647900
      5 C21         1.5760   -3.1820   -1.6530 ca        1 PFH      0.096100
      6 C18         0.6400    0.2890   -0.9730 c3        1 PFH     -0.104400
      7 C16        -0.2060   -1.0080   -2.8820 c3        1 PFH      0.135800
      8 C19        -0.7510    0.7660   -1.4180 c3        1 PFH      0.164800
      9 C26         2.6910   -5.5430   -2.6690 ca        1 PFH     -0.048000
     10 C14        -3.5190   -3.3340   -5.3820 c3        1 PFH      0.109700
     11 C2         -3.0310   -1.1880   -6.2930 ca        1 PFH      0.095100
     12 C1         -3.0920   -0.3160   -7.4290 ca        1 PFH      0.112100
     13 O11        -3.5930   -0.7450   -8.6450 os        1 PFH     -0.329900
     14 C12        -4.9930   -1.0300   -8.6440 c3        1 PFH      0.115700
     15 C3         -2.4040   -0.7760   -5.1330 ca        1 PFH     -0.164000
     16 C5         -1.8940    1.3930   -6.1740 ca        1 PFH      0.407600
     17 N10        -1.3650    2.6710   -6.1270 nb        1 PFH     -0.689000
     18 N8         -0.6210    2.2560   -3.8460 nb        1 PFH     -0.753000
     19 N15        -1.0790    0.1610   -2.7150 nh        1 PFH     -0.711300
     20 C17         0.9770   -0.8960   -1.8860 c3        1 PFH      0.123100
     21 O20         1.0420   -2.0540   -1.0440 os        1 PFH     -0.335900
     22 C22         2.9170   -3.1840   -2.1280 ca        1 PFH     -0.154000
     23 C23         3.4550   -4.3430   -2.6260 ca        1 PFH     -0.098000
     24 C27         3.2330   -6.7520   -3.1820 ca        1 PFH     -0.112000
     25 C25         1.3570   -5.5340   -2.1850 ca        1 PFH     -0.023000
     26 C24         0.8040   -4.3270   -1.6810 ca        1 PFH     -0.136000
     27 C30         0.5990   -6.7370   -2.2220 ca        1 PFH     -0.122000
     28 C29         1.1490   -7.8910   -2.7220 ca        1 PFH     -0.121000
     29 C28         2.4790   -7.8990   -3.2080 ca        1 PFH     -0.129000
     30 H4         -2.5980    1.6130   -8.2420 ha        1 PFH      0.171000
     31 H9         -0.3550    4.0420   -4.9200 h5        1 PFH      0.053100
     32 H181        1.3990    1.0980   -1.0980 hc        1 PFH      0.070700
     33 H182        0.6260   -0.0270    0.0990 hc        1 PFH      0.070700
     34 H161        0.1650   -1.1100   -3.9360 h1        1 PFH      0.068200
     35 H162       -0.8150   -1.9190   -2.6240 h1        1 PFH      0.068200
     36 H191       -1.5310    0.3790   -0.7030 h1        1 PFH      0.071700
     37 H192       -0.8110    1.8850   -1.4180 h1        1 PFH      0.071700
     38 H141       -2.4460   -3.5510   -5.1660 h1        1 PFH      0.048367
     39 H142       -4.0390   -4.2500   -5.7650 h1        1 PFH      0.048367
     40 H143       -4.0330   -2.9410   -4.4710 h1        1 PFH      0.048367
     41 H121       -5.2250   -1.8690   -7.9450 h1        1 PFH      0.046700
     42 H122       -5.1960   -1.3260   -9.7040 h1        1 PFH      0.046700
     43 H123       -5.5740   -0.1170   -8.3690 h1        1 PFH      0.046700
     44 H3         -2.3680   -1.4420   -4.2580 ha        1 PFH      0.156000
     45 H17         1.9490   -0.7550   -2.4240 h1        1 PFH      0.060700
     46 H22         3.5090   -2.2590   -2.0740 ha        1 PFH      0.142000
     47 H23         4.4910   -4.3660   -2.9950 ha        1 PFH      0.137000
     48 H27         4.2680   -6.7490   -3.5550 ha        1 PFH      0.134000
     49 H24        -0.2270   -4.3150   -1.2990 ha        1 PFH      0.147000
     50 H30        -0.4330   -6.7220   -1.8390 ha        1 PFH      0.133000
     51 H29         0.5650   -8.8230   -2.7510 ha        1 PFH      0.134000
     52 H28         2.8970   -8.8370   -3.6030 ha        1 PFH      0.134000
     53 O13        -3.6410   -2.4140   -6.4620 os        1 PFH     -0.320900
@<TRIPOS>BOND
     1    1   12 ar  
     2    1   16 ar  
     3    1   30 1   
     4    2    3 ar  
     5    2   18 ar  
     6    2   19 1   
     7    3   15 ar  
     8    3   16 ar  
     9    4   17 ar  
    10    4   18 ar  
    11    4   31 1   
    12    5   21 1   
    13    5   22 ar  
    14    5   26 ar  
    15    6    8 1   
    16    6   20 1   
    17    6   32 1   
    18    6   33 1   
    19    7   19 1   
    20    7   20 1   
    21    7   34 1   
    22    7   35 1   
    23    8   19 1   
    24    8   36 1   
    25    8   37 1   
    26    9   23 ar  
    27    9   24 ar  
    28    9   25 ar  
    29   10   38 1   
    30   10   39 1   
    31   10   40 1   
    32   10   53 1   
    33   11   12 ar  
    34   11   15 ar  
    35   11   53 1   
    36   12   13 1   
    37   13   14 1   
    38   14   41 1   
    39   14   42 1   
    40   14   43 1   
    41   15   44 1   
    42   16   17 ar  
    43   20   21 1   
    44   20   45 1   
    45   22   23 ar  
    46   22   46 1   
    47   23   47 1   
    48   24   29 ar  
    49   24   48 1   
    50   25   26 ar  
    51   25   27 ar  
    52   26   49 1   
    53   27   28 ar  
    54   27   50 1   
    55   28   29 ar  
    56   28   51 1   
    57   29   52 1   
@<TRIPOS>SUBSTRUCTURE
     1 PFH         1 TEMP              0 ****  ****    0 ROOT
