@<TRIPOS>MOLECULE
PFI
   53    55     1     0     0
SMALL
bcc


@<TRIPOS>ATOM
      1 F26         0.4170    0.2990    0.0740 f         1 PFI     -0.128900
      2 C23         1.7540    0.0910    0.0810 ca        1 PFI      0.099900
      3 C22         2.4430   -0.0980    1.3110 ca        1 PFI      0.099100
      4 O24         1.6400   -0.0780    2.4280 os        1 PFI     -0.320900
      5 C25         2.2930    0.0580    3.7070 c3        1 PFI      0.140100
      6 C2          1.2860    0.7750    4.5900 c3        1 PFI     -0.111100
      7 C1          2.6320   -1.3130    4.2570 c3        1 PFI     -0.111100
      8 C21         3.8230   -0.3130    1.3010 ca        1 PFI     -0.182000
      9 C20         4.5170   -0.3380    0.0920 ca        1 PFI     -0.104000
     10 C19         3.8500   -0.1560   -1.1220 ca        1 PFI     -0.090300
     11 C18         2.4680    0.0570   -1.1240 ca        1 PFI     -0.142000
     12 C12         4.6010   -0.1750   -2.4080 c3        1 PFI     -0.033100
     13 C11         4.3440   -1.4580   -3.1750 c3        1 PFI     -0.069400
     14 C5          5.0370   -1.4930   -4.5460 c3        1 PFI      0.174800
     15 C6          4.1960   -0.7090   -5.5650 c3        1 PFI     -0.086200
     16 C17         5.2600   -2.9340   -5.0470 c3        1 PFI     -0.085700
     17 C13         6.2320   -3.7250   -4.1670 c3        1 PFI     -0.076900
     18 C16         3.9710   -3.7520   -5.1410 c3        1 PFI     -0.076900
     19 C15         4.2550   -5.1140   -4.5220 c3        1 PFI     -0.079900
     20 C14         5.4940   -4.9530   -3.6550 c3        1 PFI     -0.079900
     21 O4          6.3330   -0.8930   -4.3360 os        1 PFI     -0.423900
     22 C3          7.0290   -0.4180   -5.4280 c         1 PFI      0.739800
     23 O10         8.2060   -0.1700   -5.1590 o         1 PFI     -0.580500
     24 C8          6.3470   -0.2110   -6.7000 ce        1 PFI     -0.371200
     25 C7          5.0040   -0.3390   -6.7610 c2        1 PFI      0.161900
     26 O9          4.2480   -0.1390   -7.8800 oh        1 PFI     -0.485100
     27 H25         3.2210    0.6860    3.6000 h1        1 PFI      0.050700
     28 H21A        1.7090    0.8830    5.6160 hc        1 PFI      0.048867
     29 H22         0.3350    0.1940    4.6430 hc        1 PFI      0.048867
     30 H23         1.0600    1.7860    4.1740 hc        1 PFI      0.048867
     31 H11         3.3260   -1.8530    3.5690 hc        1 PFI      0.048867
     32 H12         3.1180   -1.2070    5.2560 hc        1 PFI      0.048867
     33 H13         1.7040   -1.9240    4.3680 hc        1 PFI      0.048867
     34 H21         4.3710   -0.4690    2.2410 ha        1 PFI      0.143000
     35 H20         5.6050   -0.5050    0.0980 ha        1 PFI      0.141000
     36 H18         1.9280    0.2060   -2.0710 ha        1 PFI      0.145000
     37 H121        4.2950    0.7080   -3.0310 hc        1 PFI      0.061700
     38 H122        5.7040   -0.0740   -2.2150 hc        1 PFI      0.061700
     39 H111        4.7020   -2.3310   -2.5680 hc        1 PFI      0.059200
     40 H112        3.2400   -1.5810   -3.3340 hc        1 PFI      0.059200
     41 H61         3.8100    0.2370   -5.0970 hc        1 PFI      0.089200
     42 H62         3.3110   -1.3270   -5.8700 hc        1 PFI      0.089200
     43 H17         5.7090   -2.8410   -6.0760 hc        1 PFI      0.053700
     44 H131        7.1210   -4.0320   -4.7750 hc        1 PFI      0.049950
     45 H132        6.6150   -3.0990   -3.3220 hc        1 PFI      0.049950
     46 H161        3.6530   -3.8580   -6.2080 hc        1 PFI      0.049950
     47 H162        3.1340   -3.2520   -4.5920 hc        1 PFI      0.049950
     48 H151        4.4400   -5.8720   -5.3260 hc        1 PFI      0.043700
     49 H152        3.3830   -5.4710   -3.9200 hc        1 PFI      0.043700
     50 H141        6.1430   -5.8620   -3.7060 hc        1 PFI      0.043700
     51 H142        5.2010   -4.8090   -2.5850 hc        1 PFI      0.043700
     52 H8          6.9770    0.0690   -7.5540 ha        1 PFI      0.167000
     53 HO9         4.8320    0.1270   -8.6080 ho        1 PFI      0.433000
@<TRIPOS>BOND
     1    1    2 1   
     2    2    3 ar  
     3    2   11 ar  
     4    3    4 1   
     5    3    8 ar  
     6    4    5 1   
     7    5    6 1   
     8    5    7 1   
     9    5   27 1   
    10    6   28 1   
    11    6   29 1   
    12    6   30 1   
    13    7   31 1   
    14    7   32 1   
    15    7   33 1   
    16    8    9 ar  
    17    8   34 1   
    18    9   10 ar  
    19    9   35 1   
    20   10   11 ar  
    21   10   12 1   
    22   11   36 1   
    23   12   13 1   
    24   12   37 1   
    25   12   38 1   
    26   13   14 1   
    27   13   39 1   
    28   13   40 1   
    29   14   15 1   
    30   14   16 1   
    31   14   21 1   
    32   15   25 1   
    33   15   41 1   
    34   15   42 1   
    35   16   17 1   
    36   16   18 1   
    37   16   43 1   
    38   17   20 1   
    39   17   44 1   
    40   17   45 1   
    41   18   19 1   
    42   18   46 1   
    43   18   47 1   
    44   19   20 1   
    45   19   48 1   
    46   19   49 1   
    47   20   50 1   
    48   20   51 1   
    49   21   22 1   
    50   22   23 2   
    51   22   24 1   
    52   24   25 2   
    53   24   52 1   
    54   25   26 1   
    55   26   53 1   
@<TRIPOS>SUBSTRUCTURE
     1 PFI         1 TEMP              0 ****  ****    0 ROOT
