@<TRIPOS>MOLECULE
PFI
   53    55     1     0     0
SMALL
bcc


@<TRIPOS>ATOM
      1 F26         0.4180    0.3040    0.0750 f         1 PFI     -0.128900
      2 C23         1.7550    0.0950    0.0820 ca        1 PFI      0.099900
      3 C22         2.4440   -0.0930    1.3120 ca        1 PFI      0.099100
      4 O24         1.6410   -0.0710    2.4290 os        1 PFI     -0.320900
      5 C25         2.2960    0.0690    3.7070 c3        1 PFI      0.140100
      6 C2          1.2890    0.7880    4.5880 c3        1 PFI     -0.111100
      7 C1          2.6350   -1.3010    4.2620 c3        1 PFI     -0.111100
      8 C21         3.8240   -0.3090    1.3010 ca        1 PFI     -0.182000
      9 C20         4.5180   -0.3350    0.0920 ca        1 PFI     -0.104000
     10 C19         3.8500   -0.1540   -1.1220 ca        1 PFI     -0.090300
     11 C18         2.4680    0.0590   -1.1240 ca        1 PFI     -0.142000
     12 C12         4.6010   -0.1750   -2.4080 c3        1 PFI     -0.033100
     13 C11         4.3410   -1.4580   -3.1750 c3        1 PFI     -0.069400
     14 C5          5.0340   -1.4950   -4.5460 c3        1 PFI      0.174800
     15 C6          4.1940   -0.7100   -5.5640 c3        1 PFI     -0.086200
     16 C17         5.2540   -2.9370   -5.0460 c3        1 PFI     -0.085700
     17 C13         6.2240   -3.7290   -4.1660 c3        1 PFI     -0.076900
     18 C16         3.9630   -3.7530   -5.1390 c3        1 PFI     -0.076900
     19 C15         4.2440   -5.1150   -4.5200 c3        1 PFI     -0.079900
     20 C14         5.4840   -4.9560   -3.6540 c3        1 PFI     -0.079900
     21 O4          6.3300   -0.8970   -4.3370 os        1 PFI     -0.423900
     22 C3          7.0270   -0.4240   -5.4290 c         1 PFI      0.739800
     23 O10         8.2040   -0.1790   -5.1600 o         1 PFI     -0.580500
     24 C8          6.3450   -0.2160   -6.7000 ce        1 PFI     -0.371200
     25 C7          5.0020   -0.3420   -6.7610 c2        1 PFI      0.161900
     26 O9          4.2450   -0.1410   -7.8800 oh        1 PFI     -0.485100
     27 H25         3.2230    0.6960    3.5980 h1        1 PFI      0.050700
     28 H21A        1.7120    0.8990    5.6140 hc        1 PFI      0.048867
     29 H22         1.0620    1.7980    4.1700 hc        1 PFI      0.048867
     30 H23         0.3370    0.2080    4.6440 hc        1 PFI      0.048867
     31 H11         3.1210   -1.1920    5.2600 hc        1 PFI      0.048867
     32 H12         3.3280   -1.8430    3.5750 hc        1 PFI      0.048867
     33 H13         1.7070   -1.9110    4.3740 hc        1 PFI      0.048867
     34 H21         4.3720   -0.4630    2.2420 ha        1 PFI      0.143000
     35 H20         5.6060   -0.5030    0.0980 ha        1 PFI      0.141000
     36 H18         1.9280    0.2060   -2.0710 ha        1 PFI      0.145000
     37 H121        4.2950    0.7070   -3.0310 hc        1 PFI      0.061700
     38 H122        5.7040   -0.0760   -2.2150 hc        1 PFI      0.061700
     39 H111        4.6980   -2.3320   -2.5670 hc        1 PFI      0.059200
     40 H112        3.2360   -1.5800   -3.3330 hc        1 PFI      0.059200
     41 H61         3.3070   -1.3270   -5.8690 hc        1 PFI      0.089200
     42 H62         3.8090    0.2370   -5.0960 hc        1 PFI      0.089200
     43 H17         5.7020   -2.8450   -6.0750 hc        1 PFI      0.053700
     44 H131        7.1120   -4.0380   -4.7750 hc        1 PFI      0.049950
     45 H132        6.6090   -3.1030   -3.3220 hc        1 PFI      0.049950
     46 H161        3.6440   -3.8590   -6.2060 hc        1 PFI      0.049950
     47 H162        3.1270   -3.2510   -4.5910 hc        1 PFI      0.049950
     48 H151        4.4280   -5.8730   -5.3240 hc        1 PFI      0.043700
     49 H152        3.3720   -5.4700   -3.9180 hc        1 PFI      0.043700
     50 H141        6.1310   -5.8660   -3.7050 hc        1 PFI      0.043700
     51 H142        5.1910   -4.8110   -2.5830 hc        1 PFI      0.043700
     52 H8          6.9750    0.0620   -7.5550 ha        1 PFI      0.167000
     53 HO9         4.8290    0.1240   -8.6080 ho        1 PFI      0.433000
@<TRIPOS>BOND
     1    1    2 1   
     2    2    3 ar  
     3    2   11 ar  
     4    3    4 1   
     5    3    8 ar  
     6    4    5 1   
     7    5    6 1   
     8    5    7 1   
     9    5   27 1   
    10    6   28 1   
    11    6   29 1   
    12    6   30 1   
    13    7   31 1   
    14    7   32 1   
    15    7   33 1   
    16    8    9 ar  
    17    8   34 1   
    18    9   10 ar  
    19    9   35 1   
    20   10   11 ar  
    21   10   12 1   
    22   11   36 1   
    23   12   13 1   
    24   12   37 1   
    25   12   38 1   
    26   13   14 1   
    27   13   39 1   
    28   13   40 1   
    29   14   15 1   
    30   14   16 1   
    31   14   21 1   
    32   15   25 1   
    33   15   41 1   
    34   15   42 1   
    35   16   17 1   
    36   16   18 1   
    37   16   43 1   
    38   17   20 1   
    39   17   44 1   
    40   17   45 1   
    41   18   19 1   
    42   18   46 1   
    43   18   47 1   
    44   19   20 1   
    45   19   48 1   
    46   19   49 1   
    47   20   50 1   
    48   20   51 1   
    49   21   22 1   
    50   22   23 2   
    51   22   24 1   
    52   24   25 2   
    53   24   52 1   
    54   25   26 1   
    55   26   53 1   
@<TRIPOS>SUBSTRUCTURE
     1 PFI         1 TEMP              0 ****  ****    0 ROOT
