@<TRIPOS>MOLECULE
PFI
   53    55     1     0     0
SMALL
bcc


@<TRIPOS>ATOM
      1 F26         3.8640   -1.3820   -1.9020 f         1 PFI     -0.128900
      2 C23         3.2560   -0.8690   -0.8080 ca        1 PFI      0.099900
      3 C22         4.0060   -0.1250    0.1450 ca        1 PFI      0.099100
      4 O24         5.3370    0.0330   -0.1680 os        1 PFI     -0.320900
      5 C25         6.2120    0.4830    0.8870 c3        1 PFI      0.140100
      6 C2          7.5660   -0.1230    0.5620 c3        1 PFI     -0.111100
      7 C1          6.2720    1.9980    0.8890 c3        1 PFI     -0.111100
      8 C21         3.3630    0.3990    1.2690 ca        1 PFI     -0.182000
      9 C20         1.9980    0.1900    1.4530 ca        1 PFI     -0.104000
     10 C19         1.2510   -0.5370    0.5230 ca        1 PFI     -0.090300
     11 C18         1.8830   -1.0640   -0.6080 ca        1 PFI     -0.142000
     12 C12        -0.2060   -0.7630    0.7330 c3        1 PFI     -0.033100
     13 C11        -1.0360    0.0910   -0.2070 c3        1 PFI     -0.069400
     14 C5         -2.5460   -0.1630   -0.0820 c3        1 PFI      0.174800
     15 C6         -2.9210   -1.4190   -0.8830 c3        1 PFI     -0.086200
     16 C17        -3.3790    1.0390   -0.5690 c3        1 PFI     -0.085700
     17 C13        -3.1830    2.2870    0.2980 c3        1 PFI     -0.076900
     18 C16        -3.0790    1.4430   -2.0130 c3        1 PFI     -0.076900
     19 C15        -2.9370    2.9590   -2.0380 c3        1 PFI     -0.079900
     20 C14        -2.6710    3.3980   -0.6070 c3        1 PFI     -0.079900
     21 O4         -2.7910   -0.3280    1.3310 os        1 PFI     -0.423900
     22 C3         -3.9530   -0.9550    1.7340 c         1 PFI      0.739800
     23 O10        -4.1680   -0.8070    2.9380 o         1 PFI     -0.580500
     24 C8         -4.7370   -1.7290    0.7810 ce        1 PFI     -0.371200
     25 C7         -4.2440   -1.9570   -0.4560 c2        1 PFI      0.161900
     26 O9         -4.8630   -2.6930   -1.4240 oh        1 PFI     -0.485100
     27 H25         5.8500    0.0970    1.8790 h1        1 PFI      0.050700
     28 H21A        8.3120    0.2160    1.3190 hc        1 PFI      0.048867
     29 H22         7.5030   -1.2370    0.5770 hc        1 PFI      0.048867
     30 H23         7.9010    0.1970   -0.4540 hc        1 PFI      0.048867
     31 H11         5.2600    2.4330    1.0690 hc        1 PFI      0.048867
     32 H12         6.9660    2.3450    1.6900 hc        1 PFI      0.048867
     33 H13         6.6410    2.3700   -0.0970 hc        1 PFI      0.048867
     34 H21         3.9250    0.9830    2.0120 ha        1 PFI      0.143000
     35 H20         1.5040    0.6060    2.3460 ha        1 PFI      0.141000
     36 H18         1.3100   -1.6410   -1.3490 ha        1 PFI      0.145000
     37 H121       -0.4420   -1.8490    0.5660 hc        1 PFI      0.061700
     38 H122       -0.4870   -0.5250    1.7950 hc        1 PFI      0.061700
     39 H111       -0.8350    1.1750    0.0030 hc        1 PFI      0.059200
     40 H112       -0.7290   -0.1160   -1.2660 hc        1 PFI      0.059200
     41 H61        -2.9390   -1.1700   -1.9770 hc        1 PFI      0.089200
     42 H62        -2.1490   -2.2200   -0.7250 hc        1 PFI      0.089200
     43 H17        -4.4570    0.7220   -0.4950 hc        1 PFI      0.053700
     44 H131       -4.1620    2.5800    0.7560 hc        1 PFI      0.049950
     45 H132       -2.4740    2.0880    1.1400 hc        1 PFI      0.049950
     46 H161       -2.1350    0.9660   -2.3790 hc        1 PFI      0.049950
     47 H162       -3.9040    1.1100   -2.6910 hc        1 PFI      0.049950
     48 H151       -3.8790    3.4280   -2.4180 hc        1 PFI      0.043700
     49 H152       -2.1080    3.2720   -2.7190 hc        1 PFI      0.043700
     50 H141       -3.1800    4.3670   -0.3810 hc        1 PFI      0.043700
     51 H142       -1.5730    3.5500   -0.4470 hc        1 PFI      0.043700
     52 H8         -5.7010   -2.1150    1.1380 ha        1 PFI      0.167000
     53 HO9        -5.6990   -3.0350   -1.0690 ho        1 PFI      0.433000
@<TRIPOS>BOND
     1    1    2 1   
     2    2    3 ar  
     3    2   11 ar  
     4    3    4 1   
     5    3    8 ar  
     6    4    5 1   
     7    5    6 1   
     8    5    7 1   
     9    5   27 1   
    10    6   28 1   
    11    6   29 1   
    12    6   30 1   
    13    7   31 1   
    14    7   32 1   
    15    7   33 1   
    16    8    9 ar  
    17    8   34 1   
    18    9   10 ar  
    19    9   35 1   
    20   10   11 ar  
    21   10   12 1   
    22   11   36 1   
    23   12   13 1   
    24   12   37 1   
    25   12   38 1   
    26   13   14 1   
    27   13   39 1   
    28   13   40 1   
    29   14   15 1   
    30   14   16 1   
    31   14   21 1   
    32   15   25 1   
    33   15   41 1   
    34   15   42 1   
    35   16   17 1   
    36   16   18 1   
    37   16   43 1   
    38   17   20 1   
    39   17   44 1   
    40   17   45 1   
    41   18   19 1   
    42   18   46 1   
    43   18   47 1   
    44   19   20 1   
    45   19   48 1   
    46   19   49 1   
    47   20   50 1   
    48   20   51 1   
    49   21   22 1   
    50   22   23 2   
    51   22   24 1   
    52   24   25 2   
    53   24   52 1   
    54   25   26 1   
    55   26   53 1   
@<TRIPOS>SUBSTRUCTURE
     1 PFI         1 TEMP              0 ****  ****    0 ROOT
