@<TRIPOS>MOLECULE
PFJ
   51    51     1     0     0
SMALL
bcc


@<TRIPOS>ATOM
      1 C4          0.3980   -1.3540    0.5650 c1        1 PFJ      0.129000
      2 C7          3.6950   -0.6620    1.5980 c2        1 PFJ      0.226000
      3 C6          2.4030   -0.2620    1.3220 c2        1 PFJ     -0.216000
      4 C9          4.9220   -2.2260   -0.0400 c1        1 PFJ      0.187000
      5 C21         2.5040   -1.0200    6.0070 c2        1 PFJ     -0.224000
      6 C18         5.6960    0.7220    5.2260 c3        1 PFJ     -0.312000
      7 C16         5.5800   -0.8570    3.2040 c3        1 PFJ     -0.110000
      8 C19         6.4580    1.0830    6.4120 c1        1 PFJ     -0.027000
      9 C26         2.5900   -3.8170    7.1460 c2        1 PFJ     -0.086000
     10 C14         0.0460    2.3420    3.7270 c3        1 PFJ     -0.087000
     11 C2          0.2810    0.5370    2.1950 c2        1 PFJ      0.016000
     12 C3          1.6310    0.6210    2.1740 c2        1 PFJ     -0.226000
     13 N8          4.3620   -1.5040    0.7150 n2        1 PFJ     -0.329000
     14 N10         1.9930   -0.6450   -1.1130 n2        1 PFJ     -0.187000
     15 C5          1.6490   -0.7260    0.1240 c2        1 PFJ     -0.036000
     16 C1         -0.4860   -0.4910    1.3850 c3        1 PFJ     -0.003000
     17 O11        -1.2360   -1.3340    2.2580 os        1 PFJ     -0.235000
     18 C12        -2.5630   -0.8800    2.4850 c3        1 PFJ     -0.084000
     19 N15         4.3850   -0.1850    2.7320 n3        1 PFJ     -0.312000
     20 C17         6.2030   -0.3800    4.4280 c1        1 PFJ     -0.076000
     21 O20         2.2640    0.0470    5.1310 oh        1 PFJ     -0.271000
     22 N24         3.2080   -2.0870    5.4130 n2        1 PFJ     -0.149000
     23 C25         3.2580   -3.2820    5.8930 c2        1 PFJ     -0.025000
     24 C30         4.0680   -4.3470    5.1780 c3        1 PFJ     -0.125000
     25 C29         3.4420   -5.6910    5.2340 c2        1 PFJ     -0.068000
     26 C28         2.4120   -5.9930    6.0580 c2        1 PFJ     -0.235000
     27 C27         1.7560   -4.9690    6.7980 c1        1 PFJ      0.100000
     28 N23         2.6930   -3.3420    8.3350 n2        1 PFJ     -0.158000
     29 C22         2.1490   -0.8230    7.3020 c1        1 PFJ      0.266000
     30 H4         -1.1730    0.0500    0.6600 h1        1 PFJ      0.148000
     31 H9          2.8890   -0.2400   -1.2860 hn        1 PFJ      0.147000
     32 H181        4.6290    0.5140    5.5730 hc        1 PFJ      0.179500
     33 H182        5.6010    1.6690    4.6030 hc        1 PFJ      0.179500
     34 H161        6.3870   -0.7720    2.4080 h1        1 PFJ      0.143500
     35 H162        5.4050   -1.9690    3.3720 h1        1 PFJ      0.143500
     36 H191        3.7570    0.0680    3.4740 hn        1 PFJ      0.220000
     37 H192        7.3670    0.4910    6.6060 ha        1 PFJ      0.054000
     38 H141        0.6160    3.0650    3.0940 h1        1 PFJ      0.091000
     39 H142       -0.8230    2.8450    4.2210 h1        1 PFJ      0.091000
     40 H143        0.7180    1.8710    4.4870 h1        1 PFJ      0.091000
     41 H3          2.1690    1.3890    2.7490 ha        1 PFJ      0.149000
     42 H121       -2.5600    0.1410    2.9390 h1        1 PFJ      0.083333
     43 H122       -2.9830   -1.6320    3.2000 h1        1 PFJ      0.083333
     44 H123       -3.1450   -0.8790    1.5300 h1        1 PFJ      0.083333
     45 H17         1.6590   -0.2750    4.4360 ho        1 PFJ      0.241000
     46 H30         5.0760   -4.4010    5.6820 hc        1 PFJ      0.131500
     47 H29         4.2500   -4.0600    4.1050 hc        1 PFJ      0.131500
     48 H28         3.8500   -6.4280    4.5220 ha        1 PFJ      0.149000
     49 H27         1.9730   -7.0040    6.0930 ha        1 PFJ      0.173000
     50 H22         3.2570   -2.5200    8.4400 hn        1 PFJ      0.149000
     51 O13        -0.5660    1.3430    2.9140 os        1 PFJ     -0.206000
@<TRIPOS>BOND
     1    1   15 1   
     2    1   16 1   
     3    2    3 1   
     4    2   13 1   
     5    2   19 1   
     6    3   12 1   
     7    3   15 1   
     8    4   13 1   
     9    5   21 1   
    10    5   22 1   
    11    5   29 1   
    12    6    8 1   
    13    6   20 1   
    14    6   32 1   
    15    6   33 1   
    16    7   19 1   
    17    7   20 1   
    18    7   34 1   
    19    7   35 1   
    20    8   37 1   
    21    9   23 1   
    22    9   27 1   
    23    9   28 1   
    24   10   38 1   
    25   10   39 1   
    26   10   40 1   
    27   10   51 1   
    28   11   12 1   
    29   11   16 1   
    30   11   51 1   
    31   12   41 1   
    32   14   15 1   
    33   14   31 1   
    34   16   17 1   
    35   16   30 1   
    36   17   18 1   
    37   18   42 1   
    38   18   43 1   
    39   18   44 1   
    40   19   36 1   
    41   21   45 1   
    42   22   23 1   
    43   23   24 1   
    44   24   25 1   
    45   24   46 1   
    46   24   47 1   
    47   25   26 1   
    48   25   48 1   
    49   26   27 1   
    50   26   49 1   
    51   28   50 1   
@<TRIPOS>SUBSTRUCTURE
     1 PFJ         1 TEMP              0 ****  ****    0 ROOT
