@<TRIPOS>MOLECULE
PFJ
   51    55     1     0     0
SMALL
bcc


@<TRIPOS>ATOM
      1 C4         -2.9670    0.3710   -7.0500 ca        1 PFJ     -0.192300
      2 C7         -1.2080    1.0270   -3.7750 ca        1 PFJ      0.654200
      3 C6         -1.9620    0.3110   -4.8040 ca        1 PFJ     -0.248600
      4 C9         -1.1630    2.8800   -5.1750 ca        1 PFJ      0.649900
      5 C21         2.0030   -2.6430   -1.2860 ca        1 PFJ      0.523300
      6 C18         0.9110    0.8490   -1.0380 c3        1 PFJ     -0.107400
      7 C16        -0.0070   -0.7610   -2.6530 c3        1 PFJ      0.143800
      8 C19        -0.5570    1.1530   -1.3780 c3        1 PFJ      0.164800
      9 C26         2.9600   -5.1390   -1.7780 ca        1 PFJ      0.252300
     10 C14        -3.3650   -3.6350   -4.3960 c3        1 PFJ      0.110700
     11 C2         -3.1360   -1.6300   -5.6670 ca        1 PFJ      0.077100
     12 C3         -2.4350   -1.0120   -4.6510 ca        1 PFJ     -0.151000
     13 N8         -0.8160    2.2990   -3.9750 nb        1 PFJ     -0.757000
     14 N10        -1.8260    2.3340   -6.1900 nb        1 PFJ     -0.690000
     15 C5         -2.2380    1.0240   -6.0120 ca        1 PFJ      0.419600
     16 C1         -3.3980   -0.9320   -6.8900 ca        1 PFJ      0.131100
     17 O11        -4.0020   -1.5020   -7.9920 os        1 PFJ     -0.326900
     18 C12        -5.0750   -2.4070   -7.7360 c3        1 PFJ      0.123700
     19 N15        -0.9600    0.3500   -2.5380 nh        1 PFJ     -0.714300
     20 C17         1.2590   -0.4180   -1.8290 c3        1 PFJ      0.129100
     21 O20         1.5310   -1.4310   -0.8450 os        1 PFJ     -0.437100
     22 N24         2.1310   -2.9590   -2.5720 nb        1 PFJ     -0.713000
     23 C25         2.6220   -4.2290   -2.8400 ca        1 PFJ      0.325300
     24 C30         2.7960   -4.6510   -4.1920 ca        1 PFJ     -0.174300
     25 C29         3.2810   -5.9080   -4.4640 ca        1 PFJ     -0.110000
     26 C28         3.6120   -6.8000   -3.4210 ca        1 PFJ     -0.136000
     27 C27         3.4590   -6.4330   -2.1060 ca        1 PFJ     -0.144300
     28 N23         2.8060   -4.7680   -0.4460 nb        1 PFJ     -0.604000
     29 C22         2.3450   -3.5650   -0.2010 ca        1 PFJ      0.308900
     30 H4         -3.1770    0.9040   -7.9910 ha        1 PFJ      0.173000
     31 H9         -0.8260    3.9320   -5.2950 h5        1 PFJ      0.053100
     32 H181        1.5770    1.6890   -1.3520 hc        1 PFJ      0.072200
     33 H182        1.0390    0.6850    0.0600 hc        1 PFJ      0.072200
     34 H161        0.2610   -0.9860   -3.7190 h1        1 PFJ      0.074200
     35 H162       -0.5020   -1.6690   -2.2080 h1        1 PFJ      0.074200
     36 H191       -1.2200    0.8110   -0.5330 h1        1 PFJ      0.072200
     37 H192       -0.7160    2.2530   -1.5160 h1        1 PFJ      0.072200
     38 H141       -2.2650   -3.7470   -4.2390 h1        1 PFJ      0.048367
     39 H142       -3.8420   -4.6310   -4.5800 h1        1 PFJ      0.048367
     40 H143       -3.8380   -3.1260   -3.5210 h1        1 PFJ      0.048367
     41 H3         -2.2460   -1.5450   -3.7070 ha        1 PFJ      0.156000
     42 H121       -4.6590   -3.4250   -7.5360 h1        1 PFJ      0.048367
     43 H122       -5.6600   -2.3980   -8.6900 h1        1 PFJ      0.048367
     44 H123       -5.7020   -2.0680   -6.8780 h1        1 PFJ      0.048367
     45 H17         2.1560   -0.2810   -2.4840 h1        1 PFJ      0.080700
     46 H30         2.5410   -3.9570   -5.0080 ha        1 PFJ      0.153000
     47 H29         3.4160   -6.2320   -5.5080 ha        1 PFJ      0.140000
     48 H28         3.9980   -7.7990   -3.6750 ha        1 PFJ      0.140000
     49 H27         3.7190   -7.1280   -1.2920 ha        1 PFJ      0.153000
     50 H22         2.2140   -3.2430    0.8460 h4        1 PFJ      0.049100
     51 O13        -3.6310   -2.9180   -5.5980 os        1 PFJ     -0.330900
@<TRIPOS>BOND
     1    1   15 ar  
     2    1   16 ar  
     3    1   30 1   
     4    2    3 ar  
     5    2   13 ar  
     6    2   19 1   
     7    3   12 ar  
     8    3   15 ar  
     9    4   13 ar  
    10    4   14 ar  
    11    4   31 1   
    12    5   21 1   
    13    5   22 ar  
    14    5   29 ar  
    15    6    8 1   
    16    6   20 1   
    17    6   32 1   
    18    6   33 1   
    19    7   19 1   
    20    7   20 1   
    21    7   34 1   
    22    7   35 1   
    23    8   19 1   
    24    8   36 1   
    25    8   37 1   
    26    9   23 ar  
    27    9   27 ar  
    28    9   28 ar  
    29   10   38 1   
    30   10   39 1   
    31   10   40 1   
    32   10   51 1   
    33   11   12 ar  
    34   11   16 ar  
    35   11   51 1   
    36   12   41 1   
    37   14   15 ar  
    38   16   17 1   
    39   17   18 1   
    40   18   42 1   
    41   18   43 1   
    42   18   44 1   
    43   20   21 1   
    44   20   45 1   
    45   22   23 ar  
    46   23   24 ar  
    47   24   25 ar  
    48   24   46 1   
    49   25   26 ar  
    50   25   47 1   
    51   26   27 ar  
    52   26   48 1   
    53   27   49 1   
    54   28   29 ar  
    55   29   50 1   
@<TRIPOS>SUBSTRUCTURE
     1 PFJ         1 TEMP              0 ****  ****    0 ROOT
