@<TRIPOS>MOLECULE
PFJ
   51    47     1     0     0
SMALL
bcc


@<TRIPOS>ATOM
      1 C4         -3.6860    1.3660   -3.8580 c1        1 PFJ     -0.174000
      2 C7         -0.4380    0.0090   -2.6430 c1        1 PFJ      0.131000
      3 C6         -1.7120    0.6090   -2.6510 c1        1 PFJ     -0.122000
      4 C9         -0.5830   -0.2580   -4.9910 c1        1 PFJ     -0.012000
      5 C21         2.4360   -1.4830    2.1790 c1        1 PFJ      0.092000
      6 C18         2.4350    0.1760   -0.4540 c3        1 PFJ     -0.200000
      7 C16         0.6590   -1.2360   -1.0770 c3        1 PFJ     -0.077000
      8 C19         1.2100    0.9830   -1.1150 c3        1 PFJ     -0.073000
      9 C26         3.8020   -1.6500    4.5460 c1        1 PFJ     -0.076000
     10 C14        -4.1300    2.8570    0.4470 c3        1 PFJ     -0.082500
     11 O13        -4.4310    1.7710   -0.4290 os        1 PFJ     -0.183500
     12 C2         -3.5750    1.6520   -1.4650 c2        1 PFJ      0.079500
     13 C3         -2.3040    1.0570   -1.4440 c1        1 PFJ     -0.174000
     14 N8          0.1080   -0.4130   -3.7940 n2        1 PFJ     -0.229000
     15 N10        -1.8300    0.3300   -4.9990 n1        1 PFJ     -0.170000
     16 C5         -2.3900    0.7590   -3.8420 c1        1 PFJ      0.039000
     17 C1         -4.2610    1.8030   -2.6790 c2        1 PFJ      0.079500
     18 O11        -5.6520    2.0960   -2.7250 os        1 PFJ     -0.183500
     19 C12        -5.9640    3.3020   -3.4440 c3        1 PFJ     -0.082500
     20 N15         0.0790   -0.0480   -1.2900 n2        1 PFJ     -0.204000
     21 C17         1.9270   -0.9580   -0.0830 c3        1 PFJ      0.018000
     22 O20         1.4660   -0.8730    1.3200 os        1 PFJ     -0.200000
     23 N24         2.8390   -2.6900    2.6220 n1        1 PFJ     -0.181000
     24 C25         3.5220   -2.7930    3.8030 c1        1 PFJ     -0.003000
     25 C30         3.9330   -4.0260    4.2570 c2        1 PFJ     -0.108000
     26 C29         4.6250   -4.1270    5.4540 c1        1 PFJ     -0.111000
     27 C28         4.9050   -2.9740    6.2020 c1        1 PFJ     -0.107500
     28 C27         4.4990   -1.7550    5.7530 c1        1 PFJ     -0.107500
     29 N23         3.3940   -0.4260    4.0970 n2        1 PFJ     -0.079000
     30 C22         2.7200   -0.3240    2.9350 c1        1 PFJ     -0.092000
     31 H4         -4.1910    1.4790   -4.7500 ha        1 PFJ      0.160000
     32 H9         -0.1990   -0.5540   -5.7940 ha        1 PFJ      0.190000
     33 H181        2.7770    0.6520    0.3090 hc        1 PFJ      0.111000
     34 H182        3.1250    0.0370   -1.0940 hc        1 PFJ      0.111000
     35 H161        0.9850   -1.6240   -1.9490 h1        1 PFJ      0.112000
     36 H162       -0.0140   -1.8840   -0.6270 h1        1 PFJ      0.112000
     37 H191        1.4710    1.3440   -1.9850 h1        1 PFJ      0.110500
     38 H192        0.9190    1.7120   -0.5170 h1        1 PFJ      0.110500
     39 H141       -4.9300    3.1100    0.9360 h1        1 PFJ      0.087500
     40 H142       -3.4170    2.5780    1.0940 h1        1 PFJ      0.087500
     41 H143       -3.8090    3.6340   -0.0880 h1        1 PFJ      0.087500
     42 H3         -1.8610    0.9210   -0.6230 ha        1 PFJ      0.160000
     43 H121       -6.5150    3.8870   -2.8800 h1        1 PFJ      0.087500
     44 H122       -5.1720    3.7430   -3.6650 h1        1 PFJ      0.087500
     45 H123       -6.4650    3.0750   -4.2810 h1        1 PFJ      0.087500
     46 H17         2.5420   -1.6190   -0.1700 h1        1 PFJ      0.121000
     47 H30         3.7410   -4.8130    3.7460 ha        1 PFJ      0.152000
     48 H29         4.9120   -4.9910    5.7740 ha        1 PFJ      0.139000
     49 H28         5.4090   -3.0470    7.0700 ha        1 PFJ      0.145500
     50 H27         4.6890   -0.9730    6.2630 ha        1 PFJ      0.145500
     51 H22         2.4000    0.5990    2.6030 ha        1 PFJ      0.185000
@<TRIPOS>BOND
     1    1   17 1   
     2    1   31 1   
     3    2    3 1   
     4    2   14 1   
     5    3   16 1   
     6    4   14 1   
     7    4   32 1   
     8    5   22 1   
     9    5   23 1   
    10    6    8 1   
    11    6   21 1   
    12    6   33 1   
    13    6   34 1   
    14    7   20 1   
    15    7   21 1   
    16    7   35 1   
    17    7   36 1   
    18    8   20 1   
    19    8   37 1   
    20    8   38 1   
    21    9   24 1   
    22    9   29 1   
    23   10   11 1   
    24   10   39 1   
    25   10   40 1   
    26   10   41 1   
    27   11   12 1   
    28   12   13 1   
    29   12   17 1   
    30   13   42 1   
    31   15   16 1   
    32   17   18 1   
    33   18   19 1   
    34   19   43 1   
    35   19   44 1   
    36   19   45 1   
    37   21   22 1   
    38   21   46 1   
    39   24   25 1   
    40   25   26 1   
    41   25   47 1   
    42   26   48 1   
    43   27   28 1   
    44   27   49 1   
    45   28   50 1   
    46   29   30 1   
    47   30   51 1   
@<TRIPOS>SUBSTRUCTURE
     1 PFJ         1 TEMP              0 ****  ****    0 ROOT
