@<TRIPOS>MOLECULE
PFK
   42    45     1     0     0
SMALL
bcc


@<TRIPOS>ATOM
      1 C1         -6.9650    1.3680    0.0480 ca        1 PFK     -0.127000
      2 C2         -5.9040    2.2980    0.1560 ca        1 PFK     -0.121000
      3 C3         -4.5960    1.8830    0.1340 ca        1 PFK     -0.166300
      4 C4         -4.2820    0.4910   -0.0000 ca        1 PFK      0.403600
      5 C5         -5.3610   -0.4390   -0.1080 ca        1 PFK     -0.150300
      6 C6         -6.6990    0.0270   -0.0810 ca        1 PFK     -0.110000
      7 N7         -2.9600    0.0900   -0.0210 nb        1 PFK     -0.668000
      8 C8         -2.6980   -1.2060   -0.1470 ca        1 PFK      0.430600
      9 C9         -3.7260   -2.2080   -0.2610 ca        1 PFK     -0.249300
     10 C10        -5.0390   -1.8200   -0.2410 ca        1 PFK     -0.076000
     11 C11        -1.2880   -1.7190   -0.1780 c3        1 PFK     -0.139700
     12 C12        -0.2360   -0.6310   -0.0540 c3        1 PFK      0.133400
     13 O13         1.0220   -1.3310   -0.1060 os        1 PFK     -0.314900
     14 C14         2.1460   -0.5460   -0.0110 ca        1 PFK      0.149100
     15 C15         2.1510    0.8240    0.1250 ca        1 PFK     -0.250300
     16 C16         3.3930    1.5270    0.2130 ca        1 PFK      0.426600
     17 C17         4.6100    0.7820    0.1570 ca        1 PFK     -0.265600
     18 C18         4.5880   -0.6250    0.0170 ca        1 PFK     -0.168000
     19 C19         3.3840   -1.2860   -0.0670 ca        1 PFK      0.114100
     20 O20         3.2280   -2.6480   -0.2050 os        1 PFK     -0.300900
     21 C21         4.4300   -3.4090   -0.2630 c3        1 PFK      0.107700
     22 N22         3.4120    2.9050    0.3510 nb        1 PFK     -0.679000
     23 C23         4.6140    3.4760    0.4250 ca        1 PFK      0.626900
     24 N24         5.8510    2.8520    0.3810 nb        1 PFK     -0.699000
     25 C25         5.8300    1.5340    0.2490 ca        1 PFK      0.452200
     26 H1         -8.0020    1.7350    0.0700 ha        1 PFK      0.136000
     27 H2         -6.1430    3.3670    0.2590 ha        1 PFK      0.137000
     28 H3         -3.7730    2.6100    0.2180 ha        1 PFK      0.151000
     29 H6         -7.5150   -0.7060   -0.1660 ha        1 PFK      0.134000
     30 H9         -3.4330   -3.2620   -0.3620 ha        1 PFK      0.145000
     31 H10        -5.8550   -2.5530   -0.3260 ha        1 PFK      0.140000
     32 H11        -1.1590   -2.4560    0.6610 hc        1 PFK      0.073700
     33 H11A       -1.1330   -2.2760   -1.1410 hc        1 PFK      0.073700
     34 H12        -0.2930    0.0950   -0.9060 h1        1 PFK      0.059700
     35 H12A       -0.3190   -0.0870    0.9220 h1        1 PFK      0.059700
     36 H15         1.2140    1.4010    0.1690 ha        1 PFK      0.168000
     37 H18         5.5440   -1.1660   -0.0240 ha        1 PFK      0.145000
     38 H21         4.0630   -4.4610   -0.3730 h1        1 PFK      0.047033
     39 H21A        5.0440   -3.1100   -1.1470 h1        1 PFK      0.047033
     40 H21B        5.0170   -3.2920    0.6800 h1        1 PFK      0.047033
     41 H23         4.6430    4.5800    0.5360 h5        1 PFK      0.053100
     42 H25         6.8030    1.0100    0.2110 h4        1 PFK      0.025100
@<TRIPOS>BOND
     1    1    2 ar  
     2    1    6 ar  
     3    1   26 1   
     4    2    3 ar  
     5    2   27 1   
     6    3    4 ar  
     7    3   28 1   
     8    4    5 ar  
     9    4    7 ar  
    10    5    6 ar  
    11    5   10 ar  
    12    6   29 1   
    13    7    8 ar  
    14    8    9 ar  
    15    8   11 1   
    16    9   10 ar  
    17    9   30 1   
    18   10   31 1   
    19   11   12 1   
    20   11   32 1   
    21   11   33 1   
    22   12   13 1   
    23   12   34 1   
    24   12   35 1   
    25   13   14 1   
    26   14   15 ar  
    27   14   19 ar  
    28   15   16 ar  
    29   15   36 1   
    30   16   17 ar  
    31   16   22 ar  
    32   17   18 ar  
    33   17   25 ar  
    34   18   19 ar  
    35   18   37 1   
    36   19   20 1   
    37   20   21 1   
    38   21   38 1   
    39   21   39 1   
    40   21   40 1   
    41   22   23 ar  
    42   23   24 ar  
    43   23   41 1   
    44   24   25 ar  
    45   25   42 1   
@<TRIPOS>SUBSTRUCTURE
     1 PFK         1 TEMP              0 ****  ****    0 ROOT
