@<TRIPOS>MOLECULE
PFK
   42    45     1     0     0
SMALL
bcc


@<TRIPOS>ATOM
      1 C1         -0.3980    0.1840    0.0390 ca        1 PFK     -0.127000
      2 C2          0.6410   -0.7770    0.0170 ca        1 PFK     -0.121000
      3 C3          1.3570   -1.0700    1.1500 ca        1 PFK     -0.166300
      4 C4          1.0620   -0.4020    2.3830 ca        1 PFK      0.403600
      5 C5          0.0120    0.5660    2.3950 ca        1 PFK     -0.150300
      6 C6         -0.7060    0.8420    1.2040 ca        1 PFK     -0.110000
      7 N7          1.7930   -0.7080    3.5150 nb        1 PFK     -0.668000
      8 C8          1.4980   -0.0740    4.6440 ca        1 PFK      0.430600
      9 C9          0.4560    0.9140    4.7420 ca        1 PFK     -0.249300
     10 C10        -0.2740    1.2250    3.6250 ca        1 PFK     -0.076000
     11 C11         2.2470   -0.3520    5.9150 c3        1 PFK     -0.139700
     12 C12         3.3380   -1.3980    5.7690 c3        1 PFK      0.133400
     13 O13         3.9180   -1.5080    7.0820 os        1 PFK     -0.314900
     14 C14         4.9470   -2.4100    7.2070 ca        1 PFK      0.149100
     15 C15         5.4460   -3.1930    6.1900 ca        1 PFK     -0.250300
     16 C16         6.5240   -4.0960    6.4500 ca        1 PFK      0.426600
     17 C17         7.0620   -4.1640    7.7720 ca        1 PFK     -0.265600
     18 C18         6.5380   -3.3520    8.8050 ca        1 PFK     -0.168000
     19 C19         5.5000   -2.4890    8.5380 ca        1 PFK      0.114100
     20 O20         4.9030   -1.6490    9.4530 os        1 PFK     -0.300900
     21 C21         5.4250   -1.7010   10.7770 c3        1 PFK      0.107700
     22 N22         7.0350   -4.8890    5.4370 nb        1 PFK     -0.679000
     23 C23         8.0400   -5.7010    5.7700 ca        1 PFK      0.626900
     24 N24         8.6330   -5.8450    7.0140 nb        1 PFK     -0.699000
     25 C25         8.1420   -5.0850    7.9820 ca        1 PFK      0.452200
     26 H1         -0.9520    0.3950   -0.8880 ha        1 PFK      0.136000
     27 H2          0.8690   -1.2900   -0.9300 ha        1 PFK      0.137000
     28 H3          2.1650   -1.8180    1.1280 ha        1 PFK      0.151000
     29 H6         -1.5110    1.5910    1.2350 ha        1 PFK      0.134000
     30 H9          0.2690    1.3970    5.7100 ha        1 PFK      0.145000
     31 H10        -1.0790    1.9740    3.6550 ha        1 PFK      0.140000
     32 H11         2.7020    0.6090    6.2780 hc        1 PFK      0.073700
     33 H11A        1.5110   -0.6910    6.6940 hc        1 PFK      0.073700
     34 H12         4.1250   -1.0730    5.0400 h1        1 PFK      0.059700
     35 H12A        2.9180   -2.3910    5.4630 h1        1 PFK      0.059700
     36 H15         5.0340   -3.1430    5.1710 ha        1 PFK      0.168000
     37 H18         6.9760   -3.4300    9.8100 ha        1 PFK      0.145000
     38 H21         6.5020   -1.4030   10.7890 h1        1 PFK      0.047033
     39 H21A        5.2950   -2.7220   11.2120 h1        1 PFK      0.047033
     40 H21B        4.8010   -0.9530   11.3290 h1        1 PFK      0.047033
     41 H23         8.4590   -6.3420    4.9660 h5        1 PFK      0.053100
     42 H25         8.5970   -5.1800    8.9850 h4        1 PFK      0.025100
@<TRIPOS>BOND
     1    1    2 ar  
     2    1    6 ar  
     3    1   26 1   
     4    2    3 ar  
     5    2   27 1   
     6    3    4 ar  
     7    3   28 1   
     8    4    5 ar  
     9    4    7 ar  
    10    5    6 ar  
    11    5   10 ar  
    12    6   29 1   
    13    7    8 ar  
    14    8    9 ar  
    15    8   11 1   
    16    9   10 ar  
    17    9   30 1   
    18   10   31 1   
    19   11   12 1   
    20   11   32 1   
    21   11   33 1   
    22   12   13 1   
    23   12   34 1   
    24   12   35 1   
    25   13   14 1   
    26   14   15 ar  
    27   14   19 ar  
    28   15   16 ar  
    29   15   36 1   
    30   16   17 ar  
    31   16   22 ar  
    32   17   18 ar  
    33   17   25 ar  
    34   18   19 ar  
    35   18   37 1   
    36   19   20 1   
    37   20   21 1   
    38   21   38 1   
    39   21   39 1   
    40   21   40 1   
    41   22   23 ar  
    42   23   24 ar  
    43   23   41 1   
    44   24   25 ar  
    45   25   42 1   
@<TRIPOS>SUBSTRUCTURE
     1 PFK         1 TEMP              0 ****  ****    0 ROOT
