@<TRIPOS>MOLECULE
PFK
   42    45     1     0     0
SMALL
bcc


@<TRIPOS>ATOM
      1 C1         -0.4030    0.1730    0.0390 ca        1 PFK     -0.127000
      2 C2          0.6570   -0.7630    0.0100 ca        1 PFK     -0.121000
      3 C3          1.3750   -1.0540    1.1430 ca        1 PFK     -0.166300
      4 C4          1.0600   -0.4070    2.3820 ca        1 PFK      0.403600
      5 C5         -0.0120    0.5370    2.4010 ca        1 PFK     -0.150300
      6 C6         -0.7310    0.8100    1.2110 ca        1 PFK     -0.110000
      7 N7          1.7920   -0.7100    3.5140 nb        1 PFK     -0.668000
      8 C8          1.4790   -0.0960    4.6500 ca        1 PFK      0.430600
      9 C9          0.4130    0.8670    4.7530 ca        1 PFK     -0.249300
     10 C10        -0.3180    1.1740    3.6380 ca        1 PFK     -0.076000
     11 C11         2.2280   -0.3720    5.9210 c3        1 PFK     -0.139700
     12 C12         3.3350   -1.4010    5.7700 c3        1 PFK      0.133400
     13 O13         3.9110   -1.5140    7.0850 os        1 PFK     -0.314900
     14 C14         4.9510   -2.4030    7.2060 ca        1 PFK      0.149100
     15 C15         5.4660   -3.1710    6.1850 ca        1 PFK     -0.250300
     16 C16         6.5540   -4.0610    6.4410 ca        1 PFK      0.426600
     17 C17         7.0870   -4.1340    7.7650 ca        1 PFK     -0.265600
     18 C18         6.5470   -3.3390    8.8030 ca        1 PFK     -0.168000
     19 C19         5.4990   -2.4870    8.5390 ca        1 PFK      0.114100
     20 O20         4.8870   -1.6630    9.4590 os        1 PFK     -0.300900
     21 C21         5.4030   -1.7200   10.7850 c3        1 PFK      0.107700
     22 N22         7.0810   -4.8380    5.4240 nb        1 PFK     -0.679000
     23 C23         8.0940   -5.6400    5.7540 ca        1 PFK      0.626900
     24 N24         8.6840   -5.7870    7.0000 nb        1 PFK     -0.699000
     25 C25         8.1780   -5.0430    7.9720 ca        1 PFK      0.452200
     26 H1         -0.9570    0.3820   -0.8880 ha        1 PFK      0.136000
     27 H2          0.9010   -1.2610   -0.9420 ha        1 PFK      0.137000
     28 H3          2.2000   -1.7840    1.1160 ha        1 PFK      0.151000
     29 H6         -1.5530    1.5410    1.2460 ha        1 PFK      0.134000
     30 H9          0.2120    1.3340    5.7270 ha        1 PFK      0.145000
     31 H10        -1.1400    1.9050    3.6730 ha        1 PFK      0.140000
     32 H11         2.6690    0.5940    6.2900 hc        1 PFK      0.073700
     33 H11A        1.4960   -0.7270    6.6960 hc        1 PFK      0.073700
     34 H12         4.1200   -1.0580    5.0480 h1        1 PFK      0.059700
     35 H12A        2.9300   -2.3970    5.4540 h1        1 PFK      0.059700
     36 H15         5.0580   -3.1170    5.1640 ha        1 PFK      0.168000
     37 H18         6.9810   -3.4200    9.8100 ha        1 PFK      0.145000
     38 H21         6.4760   -1.4090   10.8040 h1        1 PFK      0.047033
     39 H21A        5.2850   -2.7470   11.2100 h1        1 PFK      0.047033
     40 H21B        4.7670   -0.9860   11.3400 h1        1 PFK      0.047033
     41 H23         8.5250   -6.2680    4.9470 h5        1 PFK      0.053100
     42 H25         8.6300   -5.1400    8.9760 h4        1 PFK      0.025100
@<TRIPOS>BOND
     1    1    2 ar  
     2    1    6 ar  
     3    1   26 1   
     4    2    3 ar  
     5    2   27 1   
     6    3    4 ar  
     7    3   28 1   
     8    4    5 ar  
     9    4    7 ar  
    10    5    6 ar  
    11    5   10 ar  
    12    6   29 1   
    13    7    8 ar  
    14    8    9 ar  
    15    8   11 1   
    16    9   10 ar  
    17    9   30 1   
    18   10   31 1   
    19   11   12 1   
    20   11   32 1   
    21   11   33 1   
    22   12   13 1   
    23   12   34 1   
    24   12   35 1   
    25   13   14 1   
    26   14   15 ar  
    27   14   19 ar  
    28   15   16 ar  
    29   15   36 1   
    30   16   17 ar  
    31   16   22 ar  
    32   17   18 ar  
    33   17   25 ar  
    34   18   19 ar  
    35   18   37 1   
    36   19   20 1   
    37   20   21 1   
    38   21   38 1   
    39   21   39 1   
    40   21   40 1   
    41   22   23 ar  
    42   23   24 ar  
    43   23   41 1   
    44   24   25 ar  
    45   25   42 1   
@<TRIPOS>SUBSTRUCTURE
     1 PFK         1 TEMP              0 ****  ****    0 ROOT
