@<TRIPOS>MOLECULE
PFL
   31    31     1     0     0
SMALL
bcc


@<TRIPOS>ATOM
      1 O1          0.0580   -0.2040   -0.0640 oh        1 PFL     -0.506100
      2 C1          1.4220   -0.0120   -0.0050 ca        1 PFL      0.126100
      3 C2          2.1150    0.1660    1.2110 ca        1 PFL     -0.120300
      4 C6          2.0940    0.0240   -1.2460 ca        1 PFL     -0.120300
      5 C3          3.4990    0.3560    1.1630 ca        1 PFL     -0.098000
      6 C7          1.3820    0.1540    2.5160 c3        1 PFL     -0.021400
      7 C4          4.1750    0.3890   -0.0540 ca        1 PFL     -0.161000
      8 C5          3.4750    0.2300   -1.2480 ca        1 PFL     -0.098000
      9 C10         1.3470   -0.1510   -2.5310 c3        1 PFL     -0.021400
     10 C8          1.1390   -1.2710    2.9820 c3        1 PFL     -0.088350
     11 C9          2.0910    0.9390    3.6030 c3        1 PFL     -0.088350
     12 C11         1.4450    1.0980   -3.3870 c3        1 PFL     -0.088350
     13 C12         1.8570   -1.3590   -3.2960 c3        1 PFL     -0.088350
     14 HO1        -0.2580   -0.4510    0.8170 ho        1 PFL      0.421000
     15 HC3         4.0680    0.4840    2.0960 ha        1 PFL      0.134000
     16 HC7         0.3800    0.6550    2.3580 hc        1 PFL      0.059200
     17 HC4         5.2630    0.5420   -0.0720 ha        1 PFL      0.132000
     18 HC5         4.0130    0.2630   -2.2080 ha        1 PFL      0.134000
     19 H10         0.2570   -0.3260   -2.2970 hc        1 PFL      0.059200
     20 H81         2.1090   -1.7860    3.1830 hc        1 PFL      0.036450
     21 H82         0.5880   -1.8540    2.2050 hc        1 PFL      0.036450
     22 H83         0.5370   -1.2680    3.9230 hc        1 PFL      0.036450
     23 H91         1.4040    1.0800    4.4720 hc        1 PFL      0.036450
     24 H92         2.3990    1.9430    3.2230 hc        1 PFL      0.036450
     25 H93         2.9980    0.3970    3.9630 hc        1 PFL      0.036450
     26 H111        0.8590    0.9610   -4.3280 hc        1 PFL      0.036450
     27 H112        1.0370    1.9790   -2.8370 hc        1 PFL      0.036450
     28 H113        2.5070    1.3090   -3.6590 hc        1 PFL      0.036450
     29 H121        2.9300   -1.2280   -3.5770 hc        1 PFL      0.036450
     30 H122        1.7640   -2.2800   -2.6730 hc        1 PFL      0.036450
     31 H123        1.2610   -1.4970   -4.2290 hc        1 PFL      0.036450
@<TRIPOS>BOND
     1    1    2 1   
     2    1   14 1   
     3    2    3 ar  
     4    2    4 ar  
     5    3    5 ar  
     6    3    6 1   
     7    4    8 ar  
     8    4    9 1   
     9    5    7 ar  
    10    5   15 1   
    11    6   10 1   
    12    6   11 1   
    13    6   16 1   
    14    7    8 ar  
    15    7   17 1   
    16    8   18 1   
    17    9   12 1   
    18    9   13 1   
    19    9   19 1   
    20   10   20 1   
    21   10   21 1   
    22   10   22 1   
    23   11   23 1   
    24   11   24 1   
    25   11   25 1   
    26   12   26 1   
    27   12   27 1   
    28   12   28 1   
    29   13   29 1   
    30   13   30 1   
    31   13   31 1   
@<TRIPOS>SUBSTRUCTURE
     1 PFL         1 TEMP              0 ****  ****    0 ROOT
