@<TRIPOS>MOLECULE
PFL
   31    31     1     0     0
SMALL
bcc


@<TRIPOS>ATOM
      1 O1          0.0620   -0.2470   -0.0690 oh        1 PFL     -0.506100
      2 C1          1.4220   -0.0240   -0.0060 ca        1 PFL      0.126100
      3 C2          2.1070    0.1760    1.2110 ca        1 PFL     -0.120300
      4 C6          2.0960    0.0220   -1.2460 ca        1 PFL     -0.120300
      5 C3          3.4870    0.3960    1.1650 ca        1 PFL     -0.098000
      6 C7          1.3700    0.1530    2.5140 c3        1 PFL     -0.021400
      7 C4          4.1650    0.4390   -0.0500 ca        1 PFL     -0.161000
      8 C5          3.4730    0.2590   -1.2450 ca        1 PFL     -0.098000
      9 C10         1.3580   -0.1760   -2.5330 c3        1 PFL     -0.021400
     10 C8          1.1580   -1.2750    2.9860 c3        1 PFL     -0.088350
     11 C9          2.0580    0.9590    3.5980 c3        1 PFL     -0.088350
     12 C11         1.4310    1.0700   -3.3940 c3        1 PFL     -0.088350
     13 C12         1.8970   -1.3760   -3.2890 c3        1 PFL     -0.088350
     14 HO1        -0.2500   -0.4970    0.8120 ho        1 PFL      0.421000
     15 HC3         4.0490    0.5420    2.1000 ha        1 PFL      0.134000
     16 HC7         0.3580    0.6300    2.3500 hc        1 PFL      0.059200
     17 HC4         5.2500    0.6170   -0.0650 ha        1 PFL      0.132000
     18 HC5         4.0130    0.3000   -2.2030 ha        1 PFL      0.134000
     19 H10         0.2710   -0.3740   -2.3000 hc        1 PFL      0.059200
     20 H81         2.1390   -1.7670    3.1920 hc        1 PFL      0.036450
     21 H82         0.6230   -1.8740    2.2100 hc        1 PFL      0.036450
     22 H83         0.5540   -1.2820    3.9250 hc        1 PFL      0.036450
     23 H91         1.3650    1.0890    4.4650 hc        1 PFL      0.036450
     24 H92         2.3440    1.9680    3.2150 hc        1 PFL      0.036450
     25 H93         2.9770    0.4400    3.9640 hc        1 PFL      0.036450
     26 H111        0.8500    0.9160   -4.3360 hc        1 PFL      0.036450
     27 H112        1.0020    1.9450   -2.8490 hc        1 PFL      0.036450
     28 H113        2.4890    1.3040   -3.6640 hc        1 PFL      0.036450
     29 H121        2.9670   -1.2230   -3.5670 hc        1 PFL      0.036450
     30 H122        1.8220   -2.2970   -2.6620 hc        1 PFL      0.036450
     31 H123        1.3070   -1.5320   -4.2240 hc        1 PFL      0.036450
@<TRIPOS>BOND
     1    1    2 1   
     2    1   14 1   
     3    2    3 ar  
     4    2    4 ar  
     5    3    5 ar  
     6    3    6 1   
     7    4    8 ar  
     8    4    9 1   
     9    5    7 ar  
    10    5   15 1   
    11    6   10 1   
    12    6   11 1   
    13    6   16 1   
    14    7    8 ar  
    15    7   17 1   
    16    8   18 1   
    17    9   12 1   
    18    9   13 1   
    19    9   19 1   
    20   10   20 1   
    21   10   21 1   
    22   10   22 1   
    23   11   23 1   
    24   11   24 1   
    25   11   25 1   
    26   12   26 1   
    27   12   27 1   
    28   12   28 1   
    29   13   29 1   
    30   13   30 1   
    31   13   31 1   
@<TRIPOS>SUBSTRUCTURE
     1 PFL         1 TEMP              0 ****  ****    0 ROOT
