@<TRIPOS>MOLECULE
PFM
   42    42     1     0     0
SMALL
bcc


@<TRIPOS>ATOM
      1 N           2.1330    2.4520   -2.1180 nz        1 PFM     -0.833600
      2 CA          1.8840    1.7610   -0.8150 c3        1 PFM     -0.016500
      3 C           3.1290    1.9100    0.1230 c         1 PFM      0.912600
      4 OA          3.1450    1.2350    1.1790 o         1 PFM     -0.821300
      5 OB          4.0150    2.7430   -0.2350 o         1 PFM     -0.821300
      6 CB          1.4880    0.3010   -1.0630 c3        1 PFM      0.033800
      7 CG          0.3330    0.1720   -1.9650 c2        1 PFM     -0.542200
      8 CD          0.4080    0.2920   -3.3350 ce        1 PFM      0.503500
      9 OE          1.4650    0.6050   -4.0090 o         1 PFM     -0.880300
     10 C4B        -0.8340   -0.0010   -4.0970 ce        1 PFM     -0.161200
     11 C4A        -1.5640    0.8020   -4.8750 cf        1 PFM     -0.139200
     12 C4         -1.3820    2.2150   -5.1870 ca        1 PFM     -0.066800
     13 C3         -0.2560    2.7040   -5.8860 ca        1 PFM      0.026800
     14 O3          0.7670    1.9110   -6.3350 oh        1 PFM     -0.536100
     15 C2         -0.1690    4.0850   -6.2140 ca        1 PFM      0.334600
     16 C2A         1.0330    4.5600   -6.9610 c3        1 PFM     -0.122400
     17 N1         -1.1500    4.9600   -5.8890 nb        1 PFM     -0.675000
     18 C6         -2.2250    4.4870   -5.2420 ca        1 PFM      0.363200
     19 C5         -2.3950    3.1340   -4.8710 ca        1 PFM     -0.165600
     20 C5A        -3.6470    2.7330   -4.1390 c3        1 PFM      0.236700
     21 P          -5.9960    3.5300   -4.9130 p5        1 PFM      1.425800
     22 OP1        -5.4540    4.8800   -4.6590 o         1 PFM     -0.838000
     23 OP2        -6.9820    3.1310   -5.9380 o         1 PFM     -0.838000
     24 OP3        -6.6330    2.9330   -3.5280 oh        1 PFM     -0.784400
     25 OP4        -4.7100    2.4950   -5.0110 os        1 PFM     -0.572200
     26 HN1         2.8430    3.1770   -1.9690 hn        1 PFM      0.451133
     27 HN2         1.2680    2.8380   -2.4850 hn        1 PFM      0.451133
     28 HA          1.0280    2.2940   -0.3120 hx        1 PFM      0.065700
     29 HB1         2.3800   -0.2450   -1.4780 hc        1 PFM      0.042200
     30 HB2         1.2650   -0.1370   -0.0540 hc        1 PFM      0.042200
     31 HG         -0.6260   -0.0710   -1.4970 ha        1 PFM      0.099000
     32 HOE        -7.2730    2.2540   -3.7020 ho        1 PFM      0.421000
     33 H4B        -1.1730   -1.0460   -3.9640 ha        1 PFM      0.107000
     34 H4A        -2.4860    0.3990   -5.3410 ha        1 PFM      0.130000
     35 HO3         0.8080    1.1120   -5.7680 ho        1 PFM      0.472000
     36 H2A1        1.1850    5.6610   -6.8610 hc        1 PFM      0.035367
     37 H2A2        0.9150    4.3120   -8.0450 hc        1 PFM      0.035367
     38 H2A3        1.9400    4.0280   -6.5800 hc        1 PFM      0.035367
     39 H6         -3.0250    5.2220   -5.0100 h4        1 PFM      0.065100
     40 H5A1       -3.4490    1.7800   -3.5680 h1        1 PFM      0.037200
     41 H5A2       -3.9240    3.5500   -3.4120 h1        1 PFM      0.037200
     42 HN3         2.4710    1.7500   -2.8070 hn        1 PFM      0.451133
@<TRIPOS>BOND
     1    1    2 1   
     2    1   26 1   
     3    1   27 1   
     4    1   42 1   
     5    2    3 1   
     6    2    6 1   
     7    2   28 1   
     8    3    4 1   
     9    3    5 1   
    10    6    7 1   
    11    6   29 1   
    12    6   30 1   
    13    7    8 2   
    14    7   31 1   
    15    8    9 1   
    16    8   10 1   
    17   10   11 2   
    18   10   33 1   
    19   11   12 1   
    20   11   34 1   
    21   12   13 ar  
    22   12   19 ar  
    23   13   14 1   
    24   13   15 ar  
    25   14   35 1   
    26   15   16 1   
    27   15   17 ar  
    28   16   36 1   
    29   16   37 1   
    30   16   38 1   
    31   17   18 ar  
    32   18   19 ar  
    33   18   39 1   
    34   19   20 1   
    35   20   25 1   
    36   20   40 1   
    37   20   41 1   
    38   21   22 1   
    39   21   23 1   
    40   21   24 1   
    41   21   25 1   
    42   24   32 1   
@<TRIPOS>SUBSTRUCTURE
     1 PFM         1 TEMP              0 ****  ****    0 ROOT
