@<TRIPOS>MOLECULE
PFM
   42    42     1     0     0
SMALL
bcc


@<TRIPOS>ATOM
      1 N           2.0080    2.6340   -2.0370 n4        1 PFM     -0.832600
      2 CA          1.7990    1.8810   -0.7620 c3        1 PFM     -0.016500
      3 C           3.0250    2.0830    0.1930 c         1 PFM      0.912600
      4 OA          3.0830    1.3710    1.2220 o         1 PFM     -0.820300
      5 OB          3.8500    2.9920   -0.1260 o         1 PFM     -0.820300
      6 CB          1.5100    0.4070   -1.0650 c3        1 PFM      0.032800
      7 CG          0.3740    0.2290   -1.9830 c2        1 PFM     -0.539200
      8 CD          0.4520    0.4020   -3.3470 ce        1 PFM      0.502500
      9 OE          1.4910    0.8100   -3.9970 o         1 PFM     -0.879300
     10 C4B        -0.7630    0.0570   -4.1300 ce        1 PFM     -0.156200
     11 C4A        -1.4980    0.8250   -4.9390 cf        1 PFM     -0.145200
     12 C4         -1.3460    2.2350   -5.2720 ca        1 PFM     -0.085800
     13 C3         -0.2280    2.7370   -5.9740 ca        1 PFM      0.039800
     14 O3          0.8100    1.9560   -6.4050 oh        1 PFM     -0.536100
     15 C2         -0.1680    4.1160   -6.3220 ca        1 PFM      0.329600
     16 C2A         1.0260    4.6030   -7.0740 c3        1 PFM     -0.121400
     17 N1         -1.1660    4.9750   -6.0090 nb        1 PFM     -0.673000
     18 C6         -2.2320    4.4880   -5.3570 ca        1 PFM      0.367200
     19 C5         -2.3820    3.1380   -4.9730 ca        1 PFM     -0.151600
     20 C5A        -3.6160    2.6840   -4.2540 c3        1 PFM      0.220700
     21 P          -6.1360    3.2390   -4.6640 p5        1 PFM      1.430800
     22 OP1        -6.8730    4.4740   -4.9830 o         1 PFM     -0.838000
     23 OP2        -6.0560    2.0130   -5.4900 o         1 PFM     -0.838000
     24 OP3        -6.6140    2.6330   -3.2210 oh        1 PFM     -0.782400
     25 OP4        -4.5980    3.6720   -4.2360 os        1 PFM     -0.576200
     26 HN1         2.6600    3.4040   -1.8550 hn        1 PFM      0.450800
     27 HN2         1.1190    2.9680   -2.4010 hn        1 PFM      0.450800
     28 HA          0.9040    2.3340   -0.2480 hx        1 PFM      0.065700
     29 HB1         2.4410   -0.0600   -1.4900 hc        1 PFM      0.042200
     30 HB2         1.3110   -0.0820   -0.0750 hc        1 PFM      0.042200
     31 HG         -0.5700   -0.0960   -1.5340 ha        1 PFM      0.099000
     32 HOE        -6.5340    1.6860   -3.1980 ho        1 PFM      0.420000
     33 H4B        -1.0750   -0.9950   -3.9850 ha        1 PFM      0.107000
     34 H4A        -2.3920    0.3800   -5.4230 ha        1 PFM      0.124000
     35 HO3         0.8840    1.1850   -5.8040 ho        1 PFM      0.474000
     36 H2A1        1.9410    4.0860   -6.6900 hc        1 PFM      0.035367
     37 H2A2        0.9100    4.3480   -8.1570 hc        1 PFM      0.035367
     38 H2A3        1.1620    5.7070   -6.9790 hc        1 PFM      0.035367
     39 H6         -3.0390    5.2080   -5.1220 h4        1 PFM      0.046100
     40 H5A1       -4.0160    1.7470   -4.7430 h1        1 PFM      0.048700
     41 H5A2       -3.3170    2.4480   -3.1890 h1        1 PFM      0.048700
     42 HN3         2.4040    1.9840   -2.7450 hn        1 PFM      0.450800
@<TRIPOS>BOND
     1    1    2 1   
     2    1   26 1   
     3    1   27 1   
     4    1   42 1   
     5    2    3 1   
     6    2    6 1   
     7    2   28 1   
     8    3    4 1   
     9    3    5 1   
    10    6    7 1   
    11    6   29 1   
    12    6   30 1   
    13    7    8 2   
    14    7   31 1   
    15    8    9 1   
    16    8   10 1   
    17   10   11 2   
    18   10   33 1   
    19   11   12 1   
    20   11   34 1   
    21   12   13 ar  
    22   12   19 ar  
    23   13   14 1   
    24   13   15 ar  
    25   14   35 1   
    26   15   16 1   
    27   15   17 ar  
    28   16   36 1   
    29   16   37 1   
    30   16   38 1   
    31   17   18 ar  
    32   18   19 ar  
    33   18   39 1   
    34   19   20 1   
    35   20   25 1   
    36   20   40 1   
    37   20   41 1   
    38   21   22 1   
    39   21   23 1   
    40   21   24 1   
    41   21   25 1   
    42   24   32 1   
@<TRIPOS>SUBSTRUCTURE
     1 PFM         1 TEMP              0 ****  ****    0 ROOT
