@<TRIPOS>MOLECULE
PFM
   41    41     1     0     0
SMALL
bcc


@<TRIPOS>ATOM
      1 N           0.3970    1.9010   -5.8250 n3        1 PFM     -0.898800
      2 CA          0.7030    0.4760   -5.8380 c3        1 PFM      0.035500
      3 C           0.2980   -0.2560   -7.1590 c         1 PFM      0.887600
      4 OA         -0.2710    0.4120   -8.0740 o         1 PFM     -0.855300
      5 OB          0.5830   -1.4820   -7.2660 o         1 PFM     -0.855300
      6 CB          0.1090   -0.3000   -4.6580 c3        1 PFM     -0.033200
      7 CG          0.5880    0.1660   -3.3370 c2        1 PFM     -0.274200
      8 CD          0.2920   -0.4310   -2.1600 ce        1 PFM      0.101100
      9 OE         -0.5010   -1.5620   -2.0570 oh        1 PFM     -0.516100
     10 C4B         0.8080    0.0330   -0.8780 ce        1 PFM     -0.190000
     11 C4A         0.5540   -0.5360    0.3140 cf        1 PFM     -0.033200
     12 C4          1.1530   -0.1110    1.5720 ca        1 PFM     -0.149800
     13 C3          2.5190    0.2720    1.6470 ca        1 PFM     -0.019200
     14 O3          3.3730    0.2650    0.5580 oh        1 PFM     -0.536100
     15 C2          3.0800    0.6790    2.8750 ca        1 PFM      0.314600
     16 C2A         4.5090    1.1100    2.9020 c3        1 PFM     -0.110400
     17 N1          2.3470    0.6980    4.0250 nb        1 PFM     -0.674000
     18 C6          1.0760    0.3070    3.9650 ca        1 PFM      0.371200
     19 C5          0.4170   -0.0990    2.7640 ca        1 PFM     -0.123600
     20 C5A        -1.0300   -0.5230    2.8670 c3        1 PFM      0.237700
     21 P          -2.1020   -0.7270    5.2840 p5        1 PFM      1.315900
     22 OP1        -2.2050   -2.1400    4.7750 o         1 PFM     -0.920167
     23 OP2        -0.8590   -0.4300    6.0920 o         1 PFM     -0.920167
     24 OP3        -3.3730   -0.0820    5.7520 o         1 PFM     -0.920167
     25 OP4        -1.7200    0.1560    3.8340 os        1 PFM     -0.560200
     26 HN1        -0.4900    2.0460   -5.3780 hn        1 PFM      0.331800
     27 HN2         0.2940    2.2020   -6.7820 hn        1 PFM      0.331800
     28 HA          1.8280    0.4020   -5.7710 h1        1 PFM      0.043700
     29 HB1         0.3840   -1.3810   -4.8140 hc        1 PFM      0.045700
     30 HB2        -1.0140   -0.2380   -4.6970 hc        1 PFM      0.045700
     31 HG          1.2270    1.0610   -3.3360 ha        1 PFM      0.140000
     32 HOE        -0.8290   -1.7740   -2.9420 ho        1 PFM      0.410000
     33 H4B         1.4510    0.9270   -0.9560 ha        1 PFM      0.129000
     34 H4A        -0.1530   -1.3830    0.3920 ha        1 PFM      0.153000
     35 HO3         2.9970   -0.3390   -0.0990 ho        1 PFM      0.414000
     36 H2A1        5.1180    0.4270    2.2590 hc        1 PFM      0.022700
     37 H2A2        4.5950    2.1450    2.4860 hc        1 PFM      0.022700
     38 H2A3        4.9290    1.1060    3.9360 hc        1 PFM      0.022700
     39 H6          0.4530    0.2550    4.9270 h4        1 PFM      0.161100
     40 H5A1       -1.5150   -0.3320    1.8630 h1        1 PFM      0.027200
     41 H5A2       -1.0430   -1.6390    3.0750 h1        1 PFM      0.027200
@<TRIPOS>BOND
     1    1    2 1   
     2    1   26 1   
     3    1   27 1   
     4    2    3 1   
     5    2    6 1   
     6    2   28 1   
     7    3    4 1   
     8    3    5 1   
     9    6    7 1   
    10    6   29 1   
    11    6   30 1   
    12    7    8 2   
    13    7   31 1   
    14    8    9 1   
    15    8   10 1   
    16    9   32 1   
    17   10   11 2   
    18   10   33 1   
    19   11   12 1   
    20   11   34 1   
    21   12   13 ar  
    22   12   19 ar  
    23   13   14 1   
    24   13   15 ar  
    25   14   35 1   
    26   15   16 1   
    27   15   17 ar  
    28   16   36 1   
    29   16   37 1   
    30   16   38 1   
    31   17   18 ar  
    32   18   19 ar  
    33   18   39 1   
    34   19   20 1   
    35   20   25 1   
    36   20   40 1   
    37   20   41 1   
    38   21   22 1   
    39   21   23 1   
    40   21   24 1   
    41   21   25 1   
@<TRIPOS>SUBSTRUCTURE
     1 PFM         1 TEMP              0 ****  ****    0 ROOT
