@<TRIPOS>MOLECULE
PFM
   41    36     1     0     0
SMALL
bcc


@<TRIPOS>ATOM
      1 N          -1.3410   -2.0940    5.2910 n3        1 PFM     -0.341000
      2 CA         -0.2370   -1.6660    4.4850 c3        1 PFM     -0.113000
      3 C           0.5000   -0.5810    5.1900 c2        1 PFM      0.317000
      4 OA          1.7480   -0.6340    5.2870 o         1 PFM     -0.590000
      5 OB         -0.1340    0.4020    5.6820 o         1 PFM     -0.590000
      6 CB         -0.7580   -1.1420    3.1410 c3        1 PFM     -0.119000
      7 CG          0.1840   -1.6070    2.0050 c2        1 PFM     -0.195000
      8 CD         -0.0330   -1.1870    0.7220 c1        1 PFM      0.018000
      9 OE         -1.1150   -0.3290    0.4330 o         1 PFM     -0.273000
     10 C4B         0.8880   -1.6450   -0.3890 c2        1 PFM     -0.209000
     11 C4A         1.1500   -0.8270   -1.4260 c1        1 PFM     -0.070000
     12 C4          0.5210    0.5600   -1.4820 c1        1 PFM     -0.151000
     13 C3          1.0690    1.5940   -0.7420 c2        1 PFM      0.004000
     14 O3          2.1420    1.3360    0.1480 oh        1 PFM     -0.279000
     15 C2          0.6130    2.8980   -0.9240 c1        1 PFM     -0.101000
     16 C2A         1.2870    4.0800   -0.1440 c2        1 PFM     -0.137000
     17 N1         -0.3810    3.1580   -1.8390 n2        1 PFM     -0.145000
     18 C6         -0.9290    2.1320   -2.5770 c1        1 PFM     -0.101000
     19 C5         -0.4770    0.8250   -2.3990 c1        1 PFM     -0.056000
     20 C5A        -0.9770   -0.3080   -3.3600 c3        1 PFM      0.091000
     21 P          -0.7660   -0.9780   -5.8220 p3        1 PFM      2.509000
     22 OP1        -1.8310   -1.9990   -5.4510 o         1 PFM     -1.239500
     23 OP2        -1.3800    0.1020   -6.6900 os        1 PFM     -1.240000
     24 OP3         0.3440   -1.6640   -6.5840 o         1 PFM     -1.239500
     25 OP4        -0.1810   -0.3260   -4.5100 os        1 PFM     -0.719000
     26 HN1        -1.5490   -2.9630    5.0870 hn        1 PFM      0.128500
     27 HN2        -1.1140   -2.0320    6.1870 hn        1 PFM      0.128500
     28 HA          0.3770   -2.4360    4.3270 h1        1 PFM      0.076000
     29 HB1        -1.6500   -1.4900    2.9830 hc        1 PFM      0.099000
     30 HB2        -0.7890   -0.1580    3.1610 hc        1 PFM      0.099000
     31 HG          0.9360   -2.2020    2.2040 ha        1 PFM      0.121000
     32 HOE        -1.8640   -0.8000    0.3990 ho        1 PFM      0.228000
     33 H4B         1.2910   -2.5340   -0.3540 ha        1 PFM      0.117000
     34 H4A         1.7350   -1.1180   -2.1330 ha        1 PFM      0.140000
     35 HO3         2.9060    1.6240   -0.2160 ho        1 PFM      0.221000
     36 H2A1        0.7320    4.9020   -0.2430 ha        1 PFM      0.066000
     37 H2A2        2.1930    4.2470   -0.5140 ha        1 PFM      0.066000
     38 H2A3        1.3600    3.8460    0.8130 ha        1 PFM      0.066000
     39 H6         -1.6400    2.3220   -3.2310 ha        1 PFM      0.299000
     40 H5A1       -1.9110   -0.1360   -3.6110 h1        1 PFM      0.057500
     41 H5A2       -0.9160   -1.1740   -2.9060 h1        1 PFM      0.057500
@<TRIPOS>BOND
     1    1    2 1   
     2    1   26 1   
     3    1   27 1   
     4    2    3 1   
     5    2    6 1   
     6    2   28 1   
     7    3    4 1   
     8    3    5 1   
     9    6    7 1   
    10    6   29 1   
    11    6   30 1   
    12    7    8 1   
    13    7   31 1   
    14    8   10 1   
    15    9   32 1   
    16   10   11 1   
    17   10   33 1   
    18   11   34 1   
    19   12   13 1   
    20   12   19 1   
    21   13   14 1   
    22   13   15 1   
    23   14   35 1   
    24   15   17 1   
    25   16   36 1   
    26   16   37 1   
    27   16   38 1   
    28   17   18 1   
    29   18   39 1   
    30   19   20 1   
    31   20   25 1   
    32   20   40 1   
    33   20   41 1   
    34   21   22 1   
    35   21   24 1   
    36   21   25 1   
@<TRIPOS>SUBSTRUCTURE
     1 PFM         1 TEMP              0 ****  ****    0 ROOT
