@<TRIPOS>MOLECULE
PFN
   31    32     1     0     0
SMALL
bcc


@<TRIPOS>ATOM
      1 CAL        -0.6270   -0.4790    0.2330 ca        1 PFN     -0.178500
      2 CAJ         0.2690    0.4090   -0.3560 ca        1 PFN     -0.104500
      3 CAP         1.1190    1.1850    0.4310 ca        1 PFN     -0.180000
      4 CAI         1.0730    1.0760    1.8210 ca        1 PFN     -0.104500
      5 CAK         0.1870    0.1970    2.4330 ca        1 PFN     -0.178500
      6 CAR        -0.6660   -0.5840    1.6300 ca        1 PFN      0.141100
      7 OAN        -1.5050   -1.4340    2.3280 os        1 PFN     -0.256200
      8 CAO        -6.9310   -2.7550    0.0080 c         1 PFN      0.923600
      9 OAB        -7.0210   -3.9260   -0.4570 o         1 PFN     -0.833300
     10 OAA        -7.8200   -2.1850    0.6950 o         1 PFN     -0.833300
     11 CAM        -5.4770   -1.8530   -1.8150 c3        1 PFN     -0.062100
     12 CAH        -2.1060   -3.5980    1.4940 ca        1 PFN     -0.158000
     13 CAF        -3.0330   -4.4200    0.8510 ca        1 PFN     -0.139000
     14 C2         -2.3700   -2.2270    1.5590 ca        1 PFN      0.053100
     15 CAD        -4.1790   -3.8820    0.2740 ca        1 PFN     -0.116000
     16 C13        -5.6480   -1.9250   -0.3120 c3        1 PFN     -0.170400
     17 CAE        -4.4320   -2.5010    0.3300 ca        1 PFN     -0.004300
     18 CAG        -3.5190   -1.6690    0.9870 ca        1 PFN     -0.156000
     19 HAK         0.1370    0.1010    3.5260 ha        1 PFN      0.151000
     20 HAI         1.7420    1.6900    2.4420 ha        1 PFN      0.122500
     21 HAP         1.8230    1.8840   -0.0430 ha        1 PFN      0.120000
     22 HAJ         0.3010    0.4970   -1.4520 ha        1 PFN      0.122500
     23 HAL        -1.3060   -1.0880   -0.3830 ha        1 PFN      0.151000
     24 H13        -5.8180   -0.8880    0.0900 hc        1 PFN      0.048700
     25 HAM1       -5.4130   -2.8860   -2.2360 hc        1 PFN      0.021700
     26 HAM2       -6.3610   -1.3420   -2.2660 hc        1 PFN      0.021700
     27 HAM3       -4.5550   -1.2870   -2.0910 hc        1 PFN      0.021700
     28 HAG        -3.7010   -0.5880    1.0660 ha        1 PFN      0.138000
     29 HAD        -4.9360   -4.5270   -0.2160 ha        1 PFN      0.194000
     30 HAF        -2.8550   -5.5040    0.8060 ha        1 PFN      0.119000
     31 HAH        -1.2000   -4.0100    1.9550 ha        1 PFN      0.126000
@<TRIPOS>BOND
     1    1    2 ar  
     2    1    6 ar  
     3    1   23 1   
     4    2    3 ar  
     5    2   22 1   
     6    3    4 ar  
     7    3   21 1   
     8    4    5 ar  
     9    4   20 1   
    10    5    6 ar  
    11    5   19 1   
    12    6    7 1   
    13    7   14 1   
    14    8    9 1   
    15    8   10 1   
    16    8   16 1   
    17   11   16 1   
    18   11   25 1   
    19   11   26 1   
    20   11   27 1   
    21   12   13 ar  
    22   12   14 ar  
    23   12   31 1   
    24   13   15 ar  
    25   13   30 1   
    26   14   18 ar  
    27   15   17 ar  
    28   15   29 1   
    29   16   17 1   
    30   16   24 1   
    31   17   18 ar  
    32   18   28 1   
@<TRIPOS>SUBSTRUCTURE
     1 PFN         1 TEMP              0 ****  ****    0 ROOT
