@<TRIPOS>MOLECULE
PFN
   31    32     1     0     0
SMALL
bcc


@<TRIPOS>ATOM
      1 CAL        -0.6280   -0.4900    0.1850 ca        1 PFN     -0.178500
      2 CAJ         0.2550    0.4020   -0.4190 ca        1 PFN     -0.104500
      3 CAP         1.1340    1.1620    0.3520 ca        1 PFN     -0.180000
      4 CAI         1.1310    1.0330    1.7420 ca        1 PFN     -0.104500
      5 CAK         0.2580    0.1490    2.3680 ca        1 PFN     -0.178500
      6 CAR        -0.6240   -0.6150    1.5800 ca        1 PFN      0.141100
      7 OAN        -1.4460   -1.4700    2.2920 os        1 PFN     -0.256200
      8 CAO        -6.9490   -2.7180    0.1190 c         1 PFN      0.923600
      9 OAB        -7.0620   -3.8830   -0.3580 o         1 PFN     -0.833300
     10 OAA        -7.8130   -2.1510    0.8390 o         1 PFN     -0.833300
     11 CAM        -5.5430   -1.8040   -1.7350 c3        1 PFN     -0.062100
     12 CAH        -2.0890   -3.6180    1.4480 ca        1 PFN     -0.158000
     13 CAF        -3.0420   -4.4240    0.8230 ca        1 PFN     -0.139000
     14 C2         -2.3400   -2.2460    1.5390 ca        1 PFN      0.053100
     15 CAD        -4.2000   -3.8700    0.2870 ca        1 PFN     -0.116000
     16 C13        -5.6690   -1.8940   -0.2290 c3        1 PFN     -0.170400
     17 CAE        -4.4400   -2.4880    0.3680 ca        1 PFN     -0.004300
     18 CAG        -3.5000   -1.6710    1.0090 ca        1 PFN     -0.156000
     19 HAK         0.2420    0.0380    3.4600 ha        1 PFN      0.151000
     20 HAI         1.8210    1.6340    2.3500 ha        1 PFN      0.122500
     21 HAP         1.8270    1.8640   -0.1330 ha        1 PFN      0.120000
     22 HAJ         0.2540    0.5060   -1.5140 ha        1 PFN      0.122500
     23 HAL        -1.3290   -1.0860   -0.4190 ha        1 PFN      0.151000
     24 H13        -5.8190   -0.8610    0.1910 hc        1 PFN      0.048700
     25 HAM1       -4.6250   -1.2420   -2.0320 hc        1 PFN      0.021700
     26 HAM2       -6.4360   -1.2800   -2.1530 hc        1 PFN      0.021700
     27 HAM3       -5.5010   -2.8320   -2.1720 hc        1 PFN      0.021700
     28 HAG        -3.6710   -0.5900    1.1070 ha        1 PFN      0.138000
     29 HAD        -4.9770   -4.5020   -0.1880 ha        1 PFN      0.194000
     30 HAF        -2.8740   -5.5090    0.7590 ha        1 PFN      0.119000
     31 HAH        -1.1730   -4.0430    1.8760 ha        1 PFN      0.126000
@<TRIPOS>BOND
     1    1    2 ar  
     2    1    6 ar  
     3    1   23 1   
     4    2    3 ar  
     5    2   22 1   
     6    3    4 ar  
     7    3   21 1   
     8    4    5 ar  
     9    4   20 1   
    10    5    6 ar  
    11    5   19 1   
    12    6    7 1   
    13    7   14 1   
    14    8    9 1   
    15    8   10 1   
    16    8   16 1   
    17   11   16 1   
    18   11   25 1   
    19   11   26 1   
    20   11   27 1   
    21   12   13 ar  
    22   12   14 ar  
    23   12   31 1   
    24   13   15 ar  
    25   13   30 1   
    26   14   18 ar  
    27   15   17 ar  
    28   15   29 1   
    29   16   17 1   
    30   16   24 1   
    31   17   18 ar  
    32   18   28 1   
@<TRIPOS>SUBSTRUCTURE
     1 PFN         1 TEMP              0 ****  ****    0 ROOT
