@<TRIPOS>MOLECULE
PFN
   31    32     1     0     0
SMALL
bcc


@<TRIPOS>ATOM
      1 CAL         2.5840    0.7130    0.2830 ca        1 PFN     -0.178500
      2 CAJ         3.6730    1.3390    0.8860 ca        1 PFN     -0.104500
      3 CAP         4.8500    0.6330    1.1330 ca        1 PFN     -0.180000
      4 CAI         4.9410   -0.7140    0.7750 ca        1 PFN     -0.104500
      5 CAK         3.8680   -1.3600    0.1720 ca        1 PFN     -0.178500
      6 CAR         2.6850   -0.6380   -0.0750 ca        1 PFN      0.141100
      7 OAN         1.6780   -1.3630   -0.6850 os        1 PFN     -0.256200
      8 CAO        -4.0790    0.0310    0.5300 c         1 PFN      0.923600
      9 OAB        -4.6770    0.6210   -0.4140 o         1 PFN     -0.833300
     10 OAA        -4.5820   -0.8830    1.2370 o         1 PFN     -0.833300
     11 CAM        -2.6320    1.9620    1.1820 c3        1 PFN     -0.062100
     12 CAH         0.1810   -0.3790   -2.2760 ca        1 PFN     -0.158000
     13 CAF        -1.0660    0.1770   -2.5630 ca        1 PFN     -0.139000
     14 C2          0.4830   -0.6750   -0.9440 ca        1 PFN      0.053100
     15 CAD        -1.9750    0.4490   -1.5460 ca        1 PFN     -0.116000
     16 C13        -2.6260    0.4770    0.8840 c3        1 PFN     -0.170400
     17 CAE        -1.6610    0.1620   -0.2060 ca        1 PFN     -0.004300
     18 CAG        -0.4200   -0.4130    0.0930 ca        1 PFN     -0.156000
     19 HAK         3.9240   -2.4190   -0.1130 ha        1 PFN      0.151000
     20 HAI         5.8690   -1.2710    0.9720 ha        1 PFN      0.122500
     21 HAP         5.7030    1.1340    1.6090 ha        1 PFN      0.120000
     22 HAJ         3.5980    2.3980    1.1710 ha        1 PFN      0.122500
     23 HAL         1.6500    1.2640    0.0930 ha        1 PFN      0.151000
     24 H13        -2.3260   -0.0840    1.8130 hc        1 PFN      0.048700
     25 HAM1       -3.2960    2.1640    2.0560 hc        1 PFN      0.021700
     26 HAM2       -1.6050    2.3320    1.4180 hc        1 PFN      0.021700
     27 HAM3       -3.0300    2.5210    0.3000 hc        1 PFN      0.021700
     28 HAG        -0.1550   -0.6680    1.1290 ha        1 PFN      0.138000
     29 HAD        -2.9790    0.8660   -1.7630 ha        1 PFN      0.194000
     30 HAF        -1.3320    0.3990   -3.6070 ha        1 PFN      0.119000
     31 HAH         0.9060   -0.6000   -3.0700 ha        1 PFN      0.126000
@<TRIPOS>BOND
     1    1    2 ar  
     2    1    6 ar  
     3    1   23 1   
     4    2    3 ar  
     5    2   22 1   
     6    3    4 ar  
     7    3   21 1   
     8    4    5 ar  
     9    4   20 1   
    10    5    6 ar  
    11    5   19 1   
    12    6    7 1   
    13    7   14 1   
    14    8    9 1   
    15    8   10 1   
    16    8   16 1   
    17   11   16 1   
    18   11   25 1   
    19   11   26 1   
    20   11   27 1   
    21   12   13 ar  
    22   12   14 ar  
    23   12   31 1   
    24   13   15 ar  
    25   13   30 1   
    26   14   18 ar  
    27   15   17 ar  
    28   15   29 1   
    29   16   17 1   
    30   16   24 1   
    31   17   18 ar  
    32   18   28 1   
@<TRIPOS>SUBSTRUCTURE
     1 PFN         1 TEMP              0 ****  ****    0 ROOT
