@<TRIPOS>MOLECULE
PFO
   53    57     1     0     0
SMALL
bcc


@<TRIPOS>ATOM
      1 N3          0.1510   -0.1000   -0.0420 n3        1 PFO     -0.732600
      2 C4          4.0450   -4.5400    7.9860 ca        1 PFO     -0.170500
      3 N2          2.0860   -0.5850    5.9160 nc        1 PFO     -0.661000
      4 C7          2.6840   -1.8450    5.7440 cc        1 PFO      0.382800
      5 C6          3.4150   -2.5130    6.8060 ca        1 PFO     -0.116500
      6 C9          1.5320   -0.2690    4.7290 cd        1 PFO      0.404400
      7 C13         1.5970   -0.1990    0.1220 c3        1 PFO      0.166300
      8 C20         2.1480   -4.6900    3.8830 ca        1 PFO     -0.409600
      9 C21         2.6340   -5.8410    3.2360 ca        1 PFO      0.463200
     10 C8          2.4690   -2.2860    4.4130 cd        1 PFO     -0.263100
     11 N5          3.7510   -5.8600    2.4970 nb        1 PFO     -0.741000
     12 C18        -3.5350    1.5050   -1.6430 cc        1 PFO      0.241600
     13 C16        -1.6470    0.2950   -1.6680 cd        1 PFO      0.306600
     14 C19         2.9090   -3.5110    3.7340 ca        1 PFO      0.553800
     15 C1          4.2010   -1.7600    7.6930 ca        1 PFO     -0.088000
     16 C2          4.9100   -2.3800    8.7150 ca        1 PFO     -0.170500
     17 C3          4.8350   -3.7770    8.8640 ca        1 PFO      0.123900
     18 C5          3.3420   -3.9030    6.9690 ca        1 PFO     -0.088000
     19 N1          1.7380   -1.2730    3.7740 na        1 PFO     -0.183900
     20 C10         1.3220   -1.2410    2.3900 c3        1 PFO      0.049000
     21 C11        -0.1960   -1.0530    2.2320 c3        1 PFO     -0.090900
     22 C12        -0.5700   -1.0850    0.7530 c3        1 PFO      0.166300
     23 C14         2.0380   -0.1450    1.5820 c3        1 PFO     -0.090900
     24 C15        -0.2310   -0.1300   -1.4490 c3        1 PFO      0.138500
     25 C17        -2.2550    1.5180   -1.1370 cd        1 PFO     -0.338600
     26 O1         -3.6780    0.3410   -2.4290 os        1 PFO     -0.121100
     27 N4         -2.5580   -0.3520   -2.4240 nc        1 PFO     -0.357300
     28 C22         4.4250   -4.6450    2.3750 ca        1 PFO      0.862900
     29 N6          4.0360   -3.4580    2.9900 nb        1 PFO     -0.734000
     30 N7          5.5300   -4.5970    1.5220 nv        1 PFO     -0.923500
     31 F1          5.5250   -4.3900    9.8570 f         1 PFO     -0.143900
     32 H3          0.9770    0.6490    4.5070 h5        1 PFO      0.065100
     33 H4          2.0030   -1.1470   -0.3420 h1        1 PFO      0.041700
     34 H5          2.0630    0.6730   -0.4190 h1        1 PFO      0.041700
     35 H6          1.2280   -4.7080    4.4770 ha        1 PFO      0.163000
     36 H7          2.1020   -6.8070    3.3180 h4        1 PFO      0.030100
     37 H8         -4.4160    2.1350   -1.5940 h4        1 PFO      0.064100
     38 H9          4.2560   -0.6650    7.5820 ha        1 PFO      0.146500
     39 H10         5.5260   -1.7910    9.4090 ha        1 PFO      0.147000
     40 H11         2.7180   -4.5000    6.2860 ha        1 PFO      0.146500
     41 H12         1.6000   -2.2440    1.9410 h1        1 PFO      0.076700
     42 H13        -0.7490   -1.8750    2.7540 hc        1 PFO      0.062950
     43 H14        -0.5110   -0.0790    2.6880 hc        1 PFO      0.062950
     44 H15        -0.4030   -2.1340    0.3640 h1        1 PFO      0.041700
     45 H16        -1.6690   -0.8570    0.6550 h1        1 PFO      0.041700
     46 H17         3.1470   -0.2960    1.6210 hc        1 PFO      0.062950
     47 H18         1.8080    0.8610    2.0180 hc        1 PFO      0.062950
     48 H19         0.4240    0.6060   -2.0020 h1        1 PFO      0.058200
     49 H20        -0.0630   -1.1510   -1.9060 h1        1 PFO      0.058200
     50 H21        -1.7660    2.2370   -0.4870 ha        1 PFO      0.184000
     51 H22         6.1490   -3.8280    1.6390 hn        1 PFO      0.429800
     52 H23         5.9500   -5.4680    1.2910 hn        1 PFO      0.429800
     53 H2          3.9870   -5.6300    8.1120 ha        1 PFO      0.147000
@<TRIPOS>BOND
     1    1    7 1   
     2    1   22 1   
     3    1   24 1   
     4    2   17 ar  
     5    2   18 ar  
     6    2   53 1   
     7    3    4 1   
     8    3    6 2   
     9    4    5 1   
    10    4   10 2   
    11    5   15 ar  
    12    5   18 ar  
    13    6   19 1   
    14    6   32 1   
    15    7   23 1   
    16    7   33 1   
    17    7   34 1   
    18    8    9 ar  
    19    8   14 ar  
    20    8   35 1   
    21    9   11 ar  
    22    9   36 1   
    23   10   14 1   
    24   10   19 1   
    25   11   28 ar  
    26   12   25 2   
    27   12   26 1   
    28   12   37 1   
    29   13   24 1   
    30   13   25 1   
    31   13   27 2   
    32   14   29 ar  
    33   15   16 ar  
    34   15   38 1   
    35   16   17 ar  
    36   16   39 1   
    37   17   31 1   
    38   18   40 1   
    39   19   20 1   
    40   20   21 1   
    41   20   23 1   
    42   20   41 1   
    43   21   22 1   
    44   21   42 1   
    45   21   43 1   
    46   22   44 1   
    47   22   45 1   
    48   23   46 1   
    49   23   47 1   
    50   24   48 1   
    51   24   49 1   
    52   25   50 1   
    53   26   27 1   
    54   28   29 ar  
    55   28   30 1   
    56   30   51 1   
    57   30   52 1   
@<TRIPOS>SUBSTRUCTURE
     1 PFO         1 TEMP              0 ****  ****    0 ROOT
