@<TRIPOS>MOLECULE
PFP
   51    54     1     0     0
SMALL
bcc


@<TRIPOS>ATOM
      1 CAB        -0.6910   -0.3440   -0.1090 c3        1 PFP      0.106700
      2 OAS         0.5300    0.3340    0.1860 os        1 PFP     -0.313900
      3 CAV         1.0270    0.1850    1.4560 ca        1 PFP      0.154100
      4 CAG         2.2930    0.7710    1.6710 ca        1 PFP     -0.189500
      5 CAK         2.8770    0.6910    2.9270 ca        1 PFP     -0.093000
      6 CAF         0.3660   -0.4770    2.5010 ca        1 PFP     -0.189500
      7 CAJ         0.9660   -0.5470    3.7550 ca        1 PFP     -0.093000
      8 CAX         2.2170    0.0420    3.9850 ca        1 PFP     -0.128800
      9 CBA         2.8280   -0.0200    5.2960 cc        1 PFP     -0.131400
     10 CBC         2.7720    1.0470    6.2610 ca        1 PFP     -0.259400
     11 CAY         2.2460    2.3420    6.3670 ca        1 PFP      0.496200
     12 NAQ         1.4990    2.9120    5.2300 n4        1 PFP     -0.736700
     13 CAN         1.9630    4.2800    4.8470 c3        1 PFP      0.104800
     14 CAM         1.2380    4.7940    3.5960 c3        1 PFP      0.105400
     15 OAC        -0.1500    4.6420    3.8250 oh        1 PFP     -0.627800
     16 NAO         2.3920    3.0860    7.5050 nb        1 PFP     -0.683000
     17 CAL         3.0710    2.5120    8.5270 ca        1 PFP      0.659900
     18 NAP         3.6430    1.2670    8.5790 nb        1 PFP     -0.602000
     19 CBB         3.4790    0.5700    7.4440 ca        1 PFP      0.602600
     20 OAT         3.9490   -0.7180    7.2060 os        1 PFP     -0.282400
     21 CAZ         3.5440   -1.0600    5.8880 cd        1 PFP      0.240900
     22 CAW         3.9560   -2.3680    5.4630 ca        1 PFP     -0.152800
     23 CAH         4.5550   -3.2590    6.3820 ca        1 PFP     -0.034500
     24 CAD         4.9580   -4.5190    5.9810 ca        1 PFP     -0.195500
     25 CAU         4.7690   -4.9150    4.6380 ca        1 PFP      0.189100
     26 OAR         5.2030   -6.1800    4.3440 os        1 PFP     -0.306900
     27 CAA         5.0430   -6.6200    2.9950 c3        1 PFP      0.106700
     28 CAE         4.1780   -4.0380    3.7140 ca        1 PFP     -0.195500
     29 CAI         3.7760   -2.7750    4.1310 ca        1 PFP     -0.034500
     30 HAB1       -0.5810   -1.4430    0.0580 h1        1 PFP      0.058033
     31 HAB2       -0.8490   -0.1200   -1.1950 h1        1 PFP      0.058033
     32 HAB3       -1.5240    0.0710    0.5080 h1        1 PFP      0.058033
     33 HAG         2.8070    1.2630    0.8320 ha        1 PFP      0.163000
     34 HAK         3.8810    1.1140    3.0880 ha        1 PFP      0.150000
     35 HAF        -0.6140   -0.9510    2.3380 ha        1 PFP      0.163000
     36 HAJ         0.4540   -1.0830    4.5720 ha        1 PFP      0.150000
     37 HAQ         1.6030    2.2690    4.4260 hn        1 PFP      0.476300
     38 HAN1        3.0710    4.2450    4.6550 hx        1 PFP      0.119700
     39 HAN2        1.7580    4.9740    5.7140 hx        1 PFP      0.119700
     40 HAM1        1.5270    4.2000    2.6860 h1        1 PFP      0.072200
     41 HAM2        1.5260    5.8690    3.4480 h1        1 PFP      0.072200
     42 HAC        -0.6130    5.3110    3.3030 ho        1 PFP      0.449000
     43 HAL         3.1790    3.1300    9.4480 h5        1 PFP      0.096100
     44 HAH         4.7020   -2.9450    7.4290 ha        1 PFP      0.153500
     45 HAD         5.4240   -5.2220    6.6890 ha        1 PFP      0.162500
     46 HAA1        5.6220   -5.9670    2.2990 h1        1 PFP      0.057367
     47 HAA2        5.4680   -7.6570    3.0160 h1        1 PFP      0.057367
     48 HAA3        3.9620   -6.6410    2.7160 h1        1 PFP      0.057367
     49 HAE         4.0310   -4.3380    2.6670 ha        1 PFP      0.162500
     50 HAI         3.3130   -2.0860    3.4050 ha        1 PFP      0.153500
     51 HAQ2        0.4980    2.9700    5.4740 hn        1 PFP      0.476300
@<TRIPOS>BOND
     1    1    2 1   
     2    1   30 1   
     3    1   31 1   
     4    1   32 1   
     5    2    3 1   
     6    3    4 ar  
     7    3    6 ar  
     8    4    5 ar  
     9    4   33 1   
    10    5    8 ar  
    11    5   34 1   
    12    6    7 ar  
    13    6   35 1   
    14    7    8 ar  
    15    7   36 1   
    16    8    9 1   
    17    9   10 1   
    18    9   21 2   
    19   10   11 ar  
    20   10   19 ar  
    21   11   12 1   
    22   11   16 ar  
    23   12   13 1   
    24   12   37 1   
    25   12   51 1   
    26   13   14 1   
    27   13   38 1   
    28   13   39 1   
    29   14   15 1   
    30   14   40 1   
    31   14   41 1   
    32   15   42 1   
    33   16   17 ar  
    34   17   18 ar  
    35   17   43 1   
    36   18   19 ar  
    37   19   20 1   
    38   20   21 1   
    39   21   22 1   
    40   22   23 ar  
    41   22   29 ar  
    42   23   24 ar  
    43   23   44 1   
    44   24   25 ar  
    45   24   45 1   
    46   25   26 1   
    47   25   28 ar  
    48   26   27 1   
    49   27   46 1   
    50   27   47 1   
    51   27   48 1   
    52   28   29 ar  
    53   28   49 1   
    54   29   50 1   
@<TRIPOS>SUBSTRUCTURE
     1 PFP         1 TEMP              0 ****  ****    0 ROOT
