@<TRIPOS>MOLECULE
PFP
   50    53     1     0     0
SMALL
bcc


@<TRIPOS>ATOM
      1 CAB         5.5820   -0.8810   -0.9830 c3        1 PFP      0.112700
      2 OAS         4.8470    0.2980   -0.6770 os        1 PFP     -0.326900
      3 CAV         3.4760    0.1560   -0.5920 ca        1 PFP      0.127100
      4 CAG         2.7800    1.3320   -0.2500 ca        1 PFP     -0.183500
      5 CAK         1.3960    1.2950   -0.1410 ca        1 PFP     -0.083000
      6 CAF         2.7860   -1.0390   -0.8220 ca        1 PFP     -0.183500
      7 CAJ         1.3970   -1.0580   -0.7110 ca        1 PFP     -0.083000
      8 CAX         0.6910    0.1020   -0.3680 ca        1 PFP     -0.079800
      9 CBA        -0.7540    0.0740   -0.2610 cc        1 PFP     -0.035400
     10 CBC        -1.6690    0.1230   -1.3820 ca        1 PFP     -0.385400
     11 CAY        -1.5780    0.2080   -2.8070 ca        1 PFP      0.733200
     12 NAQ        -0.3420    0.3440   -3.4110 nh        1 PFP     -0.840900
     13 CAN        -0.1920    0.2210   -4.8400 c3        1 PFP      0.207800
     14 CAM         1.2390    0.5130   -5.3090 c3        1 PFP      0.114400
     15 OAC         2.0720   -0.5140   -4.7970 oh        1 PFP     -0.607800
     16 NAO        -2.7430    0.2180   -3.5470 nb        1 PFP     -0.781000
     17 CAL        -3.9160    0.1740   -2.8700 ca        1 PFP      0.679900
     18 NAP        -4.1470    0.1060   -1.5300 nb        1 PFP     -0.709000
     19 CBB        -2.9900    0.0820   -0.8220 ca        1 PFP      0.612600
     20 OAT        -2.9170    0.0100    0.5670 os        1 PFP     -0.301400
     21 CAZ        -1.5310    0.0050    0.8850 cd        1 PFP      0.103900
     22 CAW        -1.2460   -0.0710    2.2980 ca        1 PFP     -0.079800
     23 CAH        -2.2760    0.1110    3.2400 ca        1 PFP     -0.068500
     24 CAD        -2.0140    0.0420    4.6000 ca        1 PFP     -0.186500
     25 CAU        -0.6990   -0.2160    5.0370 ca        1 PFP      0.138100
     26 OAR        -0.5430   -0.2630    6.4070 os        1 PFP     -0.323900
     27 CAA         0.7740   -0.5220    6.8820 c3        1 PFP      0.112700
     28 CAE         0.3350   -0.4020    4.1120 ca        1 PFP     -0.186500
     29 CAI         0.0550   -0.3300    2.7500 ca        1 PFP     -0.068500
     30 HAB1        6.6460   -0.5320   -0.9790 h1        1 PFP      0.045700
     31 HAB2        5.4210   -1.6620   -0.2000 h1        1 PFP      0.045700
     32 HAB3        5.2990   -1.2720   -1.9900 h1        1 PFP      0.045700
     33 HAG         3.3400    2.2610   -0.0740 ha        1 PFP      0.147500
     34 HAK         0.8450    2.2100    0.1260 ha        1 PFP      0.146000
     35 HAF         3.3200   -1.9610   -1.0930 ha        1 PFP      0.147500
     36 HAJ         0.8510   -1.9970   -0.8910 ha        1 PFP      0.146000
     37 HAQ         0.4450    0.0690   -2.8600 hn        1 PFP      0.448800
     38 HAN1       -0.4760   -0.8170   -5.1810 h1        1 PFP      0.063700
     39 HAN2       -0.8780    0.9590   -5.3450 h1        1 PFP      0.063700
     40 HAM1        1.2550    0.4950   -6.4310 h1        1 PFP      0.037200
     41 HAM2        1.5910    1.5160   -4.9490 h1        1 PFP      0.037200
     42 HAC         2.9750   -0.2900   -5.0500 ho        1 PFP      0.405000
     43 HAL        -4.8280    0.1910   -3.5060 h5        1 PFP      0.055100
     44 HAH        -3.3030    0.3090    2.8900 ha        1 PFP      0.151500
     45 HAD        -2.8120    0.1830    5.3420 ha        1 PFP      0.147000
     46 HAA1        0.6540   -0.5120    7.9950 h1        1 PFP      0.046033
     47 HAA2        1.1300   -1.5210    6.5320 h1        1 PFP      0.046033
     48 HAA3        1.4760    0.2830    6.5540 h1        1 PFP      0.046033
     49 HAE         1.3630   -0.6040    4.4430 ha        1 PFP      0.147000
     50 HAI         0.8680   -0.4770    2.0200 ha        1 PFP      0.151500
@<TRIPOS>BOND
     1    1    2 1   
     2    1   30 1   
     3    1   31 1   
     4    1   32 1   
     5    2    3 1   
     6    3    4 ar  
     7    3    6 ar  
     8    4    5 ar  
     9    4   33 1   
    10    5    8 ar  
    11    5   34 1   
    12    6    7 ar  
    13    6   35 1   
    14    7    8 ar  
    15    7   36 1   
    16    8    9 1   
    17    9   10 1   
    18    9   21 2   
    19   10   11 ar  
    20   10   19 ar  
    21   11   12 1   
    22   11   16 ar  
    23   12   13 1   
    24   12   37 1   
    25   13   14 1   
    26   13   38 1   
    27   13   39 1   
    28   14   15 1   
    29   14   40 1   
    30   14   41 1   
    31   15   42 1   
    32   16   17 ar  
    33   17   18 ar  
    34   17   43 1   
    35   18   19 ar  
    36   19   20 1   
    37   20   21 1   
    38   21   22 1   
    39   22   23 ar  
    40   22   29 ar  
    41   23   24 ar  
    42   23   44 1   
    43   24   25 ar  
    44   24   45 1   
    45   25   26 1   
    46   25   28 ar  
    47   26   27 1   
    48   27   46 1   
    49   27   47 1   
    50   27   48 1   
    51   28   29 ar  
    52   28   49 1   
    53   29   50 1   
@<TRIPOS>SUBSTRUCTURE
     1 PFP         1 TEMP              0 ****  ****    0 ROOT
