@<TRIPOS>MOLECULE
PFP
   50    53     1     0     0
SMALL
bcc


@<TRIPOS>ATOM
      1 CAB        -0.4750    0.0750   -0.1860 c3        1 PFP      0.112700
      2 OAS         0.9150    0.2900    0.0330 os        1 PFP     -0.326900
      3 CAV         1.3460    0.2040    1.3420 ca        1 PFP      0.127100
      4 CAG         2.7320    0.3830    1.5210 ca        1 PFP     -0.183500
      5 CAK         3.2660    0.3180    2.8010 ca        1 PFP     -0.083000
      6 CAF         0.5100   -0.0350    2.4390 ca        1 PFP     -0.183500
      7 CAJ         1.0630   -0.0940    3.7170 ca        1 PFP     -0.083000
      8 CAX         2.4390    0.0770    3.9110 ca        1 PFP     -0.079800
      9 CBA         3.0030    0.0190    5.2450 cc        1 PFP     -0.035400
     10 CBC         2.9640    1.1000    6.2080 ca        1 PFP     -0.385400
     11 CAY         2.4600    2.4370    6.2640 ca        1 PFP      0.733200
     12 NAQ         1.8770    3.0010    5.1440 nu        1 PFP     -0.840900
     13 CAN         1.1730    4.2570    5.2220 c3        1 PFP      0.207800
     14 CAM         0.7010    4.7520    3.8490 c3        1 PFP      0.114400
     15 OAC        -0.2860    3.8450    3.3860 oh        1 PFP     -0.607800
     16 NAO         2.6270    3.1620    7.4270 nb        1 PFP     -0.781000
     17 CAL         3.2910    2.5640    8.4470 ca        1 PFP      0.679900
     18 NAP         3.8310    1.3170    8.5240 nb        1 PFP     -0.709000
     19 CBB         3.6420    0.6170    7.3780 ca        1 PFP      0.612600
     20 OAT         4.0810   -0.6880    7.1690 os        1 PFP     -0.301400
     21 CAZ         3.6740   -1.0320    5.8500 cd        1 PFP      0.103900
     22 CAW         4.0380   -2.3680    5.4440 ca        1 PFP     -0.079800
     23 CAH         4.9410   -3.1220    6.2190 ca        1 PFP     -0.068500
     24 CAD         5.2990   -4.4060    5.8370 ca        1 PFP     -0.186500
     25 CAU         4.7500   -4.9570    4.6620 ca        1 PFP      0.138100
     26 OAR         5.1710   -6.2370    4.3700 os        1 PFP     -0.323900
     27 CAA         4.6350   -6.8220    3.1890 c3        1 PFP      0.112700
     28 CAE         3.8500   -4.2200    3.8840 ca        1 PFP     -0.186500
     29 CAI         3.4990   -2.9310    4.2810 ca        1 PFP     -0.068500
     30 HAB1       -0.7750   -0.9470    0.1510 h1        1 PFP      0.045700
     31 HAB2       -1.0810    0.8540    0.3380 h1        1 PFP      0.045700
     32 HAB3       -0.5810    0.1720   -1.2960 h1        1 PFP      0.045700
     33 HAG         3.3700    0.5710    0.6470 ha        1 PFP      0.147500
     34 HAK         4.3480    0.4560    2.9490 ha        1 PFP      0.146000
     35 HAF        -0.5720   -0.1710    2.3090 ha        1 PFP      0.147500
     36 HAJ         0.4080   -0.2830    4.5820 ha        1 PFP      0.146000
     37 HAQ         1.5570    2.3580    4.4490 hn        1 PFP      0.448800
     38 HAN1        1.8630    5.0380    5.6510 h1        1 PFP      0.063700
     39 HAN2        0.2750    4.1680    5.8990 h1        1 PFP      0.063700
     40 HAM1        1.5510    4.8080    3.1180 h1        1 PFP      0.037200
     41 HAM2        0.2530    5.7740    3.9750 h1        1 PFP      0.037200
     42 HAC        -0.5350    4.1340    2.5000 ho        1 PFP      0.405000
     43 HAL         3.4080    3.1870    9.3600 h5        1 PFP      0.055100
     44 HAH         5.3630   -2.6850    7.1380 ha        1 PFP      0.151500
     45 HAD         6.0030   -5.0020    6.4360 ha        1 PFP      0.147000
     46 HAA1        4.9230   -6.2280    2.2880 h1        1 PFP      0.046033
     47 HAA2        5.1110   -7.8350    3.1620 h1        1 PFP      0.046033
     48 HAA3        3.5240   -6.9110    3.2620 h1        1 PFP      0.046033
     49 HAE         3.4160   -4.6400    2.9670 ha        1 PFP      0.147000
     50 HAI         2.7890   -2.3500    3.6700 ha        1 PFP      0.151500
@<TRIPOS>BOND
     1    1    2 1   
     2    1   30 1   
     3    1   31 1   
     4    1   32 1   
     5    2    3 1   
     6    3    4 ar  
     7    3    6 ar  
     8    4    5 ar  
     9    4   33 1   
    10    5    8 ar  
    11    5   34 1   
    12    6    7 ar  
    13    6   35 1   
    14    7    8 ar  
    15    7   36 1   
    16    8    9 1   
    17    9   10 1   
    18    9   21 2   
    19   10   11 ar  
    20   10   19 ar  
    21   11   12 1   
    22   11   16 ar  
    23   12   13 1   
    24   12   37 1   
    25   13   14 1   
    26   13   38 1   
    27   13   39 1   
    28   14   15 1   
    29   14   40 1   
    30   14   41 1   
    31   15   42 1   
    32   16   17 ar  
    33   17   18 ar  
    34   17   43 1   
    35   18   19 ar  
    36   19   20 1   
    37   20   21 1   
    38   21   22 1   
    39   22   23 ar  
    40   22   29 ar  
    41   23   24 ar  
    42   23   44 1   
    43   24   25 ar  
    44   24   45 1   
    45   25   26 1   
    46   25   28 ar  
    47   26   27 1   
    48   27   46 1   
    49   27   47 1   
    50   27   48 1   
    51   28   29 ar  
    52   28   49 1   
    53   29   50 1   
@<TRIPOS>SUBSTRUCTURE
     1 PFP         1 TEMP              0 ****  ****    0 ROOT
