@<TRIPOS>MOLECULE
PFQ
   42    45     1     0     0
SMALL
bcc


@<TRIPOS>ATOM
      1 C2         -3.5340    0.1250    2.0980 ca        1 PFQ      0.680900
      2 C10        -0.9230    0.0340   -1.5060 cc        1 PFQ      0.094900
      3 C11        -0.5510    0.0310   -2.9020 ca        1 PFQ     -0.042800
      4 C12        -1.4810    0.4180   -3.8820 ca        1 PFQ     -0.101500
      5 C13        -1.1220    0.4130   -5.2270 ca        1 PFQ     -0.135000
      6 C14         0.1620    0.0230   -5.6110 ca        1 PFQ     -0.117000
      7 C15         1.0880   -0.3640   -4.6420 ca        1 PFQ     -0.135000
      8 C16         0.7370   -0.3630   -3.2940 ca        1 PFQ     -0.101500
      9 C19         1.8120   -1.2750    0.3460 ca        1 PFQ     -0.113500
     10 C20         3.1920   -1.3370    0.5310 ca        1 PFQ     -0.134000
     11 C21         3.9870   -0.2230    0.2600 ca        1 PFQ     -0.123000
     12 C22         3.3980    0.9560   -0.1970 ca        1 PFQ     -0.134000
     13 N1         -3.6800    0.1520    0.7450 nb        1 PFQ     -0.708000
     14 C6         -2.4830    0.0870    0.1100 ca        1 PFQ      0.614600
     15 O6         -2.3230    0.1080   -1.2740 os        1 PFQ     -0.299400
     16 C5         -1.2020   -0.0020    0.7510 ca        1 PFQ     -0.386400
     17 C4         -1.2020   -0.0320    2.1810 ca        1 PFQ      0.731200
     18 N3         -2.4080    0.0480    2.8480 nb        1 PFQ     -0.779000
     19 C17         2.0190    1.0230   -0.3890 ca        1 PFQ     -0.113500
     20 C1         -0.2200   -0.0290   -0.3130 cd        1 PFQ     -0.030400
     21 C18         1.2150   -0.0940   -0.1200 ca        1 PFQ     -0.046800
     22 C23         1.4530   -0.2410    4.8650 c3        1 PFQ      0.115400
     23 C8          0.0510    0.0060    4.2940 c3        1 PFQ      0.205800
     24 O24         2.3130    0.7460    4.3210 oh        1 PFQ     -0.605800
     25 H2         -4.4820    0.1810    2.6770 h5        1 PFQ      0.055100
     26 H12        -2.4960    0.7210   -3.5800 ha        1 PFQ      0.149000
     27 H13        -1.8550    0.7170   -5.9890 ha        1 PFQ      0.135500
     28 H14         0.4430    0.0210   -6.6740 ha        1 PFQ      0.133000
     29 H15         2.1000   -0.6740   -4.9410 ha        1 PFQ      0.135500
     30 H16         1.4700   -0.6710   -2.5320 ha        1 PFQ      0.149000
     31 H19         1.1850   -2.1530    0.5620 ha        1 PFQ      0.144500
     32 H20         3.6530   -2.2680    0.8900 ha        1 PFQ      0.135000
     33 H21         5.0760   -0.2740    0.4060 ha        1 PFQ      0.133000
     34 H22         4.0220    1.8370   -0.4080 ha        1 PFQ      0.135000
     35 H9          0.8170    0.0040    2.3560 hn        1 PFQ      0.447800
     36 H17         1.5570    1.9540   -0.7510 ha        1 PFQ      0.144500
     37 H231        1.8270   -1.2670    4.6050 h1        1 PFQ      0.035700
     38 H232        1.4050   -0.1370    5.9820 h1        1 PFQ      0.035700
     39 H8C1       -0.6610   -0.7040    4.8020 h1        1 PFQ      0.064200
     40 H8C2       -0.2580    1.0610    4.5520 h1        1 PFQ      0.064200
     41 H24         3.1940    0.5740    4.6730 ho        1 PFQ      0.406000
     42 N9         -0.0140   -0.2100    2.8690 nh        1 PFQ     -0.837900
@<TRIPOS>BOND
     1    1   13 ar  
     2    1   18 ar  
     3    1   25 1   
     4    2    3 1   
     5    2   15 1   
     6    2   20 2   
     7    3    4 ar  
     8    3    8 ar  
     9    4    5 ar  
    10    4   26 1   
    11    5    6 ar  
    12    5   27 1   
    13    6    7 ar  
    14    6   28 1   
    15    7    8 ar  
    16    7   29 1   
    17    8   30 1   
    18    9   10 ar  
    19    9   21 ar  
    20    9   31 1   
    21   10   11 ar  
    22   10   32 1   
    23   11   12 ar  
    24   11   33 1   
    25   12   19 ar  
    26   12   34 1   
    27   13   14 ar  
    28   14   15 1   
    29   14   16 ar  
    30   16   17 ar  
    31   16   20 1   
    32   17   18 ar  
    33   17   42 1   
    34   19   21 ar  
    35   19   36 1   
    36   20   21 1   
    37   22   23 1   
    38   22   24 1   
    39   22   37 1   
    40   22   38 1   
    41   23   39 1   
    42   23   40 1   
    43   23   42 1   
    44   24   41 1   
    45   35   42 1   
@<TRIPOS>SUBSTRUCTURE
     1 PFQ         1 TEMP              0 ****  ****    0 ROOT
