@<TRIPOS>MOLECULE
PFQ
   43    45     1     0     0
SMALL
bcc


@<TRIPOS>ATOM
      1 C2          0.2660    0.3710   -0.0530 c1        1 PFQ      0.062000
      2 C10         3.5030    0.1250    3.0710 c2        1 PFQ      0.181000
      3 C11         4.8230    0.1320    3.6100 c2        1 PFQ     -0.055000
      4 C12         6.0140    0.4810    2.7510 c3        1 PFQ     -0.119000
      5 C13         7.2010   -0.3550    3.1310 c2        1 PFQ     -0.096000
      6 C14         7.3370   -0.9730    4.3280 c2        1 PFQ     -0.170000
      7 C15         6.3640   -0.6150    5.3620 c2        1 PFQ     -0.004000
      8 C16         5.1830   -0.2780    4.8350 c1        1 PFQ     -0.182000
      9 C19         2.5010   -0.8430    5.9510 c3        1 PFQ     -0.181000
     10 C20         1.9650   -0.8420    7.3250 c2        1 PFQ     -0.055000
     11 C21         0.9200   -0.0540    7.6950 c2        1 PFQ     -0.194000
     12 C22         0.2780    0.8000    6.7610 c1        1 PFQ     -0.132000
     13 N1          1.6310    0.3630    0.0680 n2        1 PFQ     -0.138000
     14 C6          2.1010    0.2730    1.3040 c2        1 PFQ      0.163000
     15 O6          3.4490    0.2330    1.6590 os        1 PFQ     -0.084000
     16 C5          1.2800    0.1840    2.5320 c2        1 PFQ     -0.134000
     17 C4         -0.0950    0.1590    2.3430 c2        1 PFQ     -0.011000
     18 N3         -0.5760    0.2710    1.0330 n3        1 PFQ     -0.179000
     19 C17         0.8810    0.9600    5.4870 c2        1 PFQ     -0.265000
     20 C1          2.2280    0.1070    3.6320 c2        1 PFQ     -0.175000
     21 C18         1.8540    0.1140    5.0230 c2        1 PFQ      0.053000
     22 C23        -3.4170   -0.4340    3.6720 c2        1 PFQ     -0.095000
     23 C8         -2.2120   -0.7560    3.1910 c2        1 PFQ     -0.235000
     24 O24        -2.1210    1.7000    5.4880 oh        1 PFQ     -0.503000
     25 H2         -1.5610    0.2660    0.8570 hn        1 PFQ      0.280000
     26 H12         5.7420    0.2730    1.6770 hc        1 PFQ      0.147500
     27 H13         6.2950    1.5680    2.8200 hc        1 PFQ      0.147500
     28 H14         7.9960   -0.4050    2.3680 ha        1 PFQ      0.164000
     29 H15         8.1830   -1.6230    4.5850 ha        1 PFQ      0.169000
     30 H16         6.6550   -0.5660    6.4170 ha        1 PFQ      0.180000
     31 H19         3.6170   -0.5610    5.9940 hc        1 PFQ      0.177000
     32 H20         2.4800   -1.8890    5.5290 hc        1 PFQ      0.177000
     33 H21         2.4510   -1.5370    8.0300 ha        1 PFQ      0.152000
     34 H22         0.5280   -0.0750    8.7260 ha        1 PFQ      0.168000
     35 H9         -0.5050   -0.4270    4.2670 hn        1 PFQ      0.284500
     36 H17         0.5220    1.8030    4.8700 ha        1 PFQ      0.141000
     37 H231       -1.5400    1.4920    6.2520 ho        1 PFQ      0.248000
     38 H232       -3.6150    0.4470    4.3110 ha        1 PFQ      0.179500
     39 H8C1       -4.2890   -1.0730    3.4500 ha        1 PFQ      0.179500
     40 H8C2       -2.0030   -1.6530    2.5770 hx        1 PFQ      0.194000
     41 H24        -2.4300    2.5930    5.6600 ho        1 PFQ      0.248000
     42 N9         -1.0160    0.0290    3.4890 n4        1 PFQ      0.029000
     43 H92        -1.2830    0.9840    3.8260 hn        1 PFQ      0.284500
@<TRIPOS>BOND
     1    1   13 1   
     2    1   18 1   
     3    2    3 1   
     4    2   15 1   
     5    2   20 1   
     6    3    4 1   
     7    3    8 1   
     8    4    5 1   
     9    4   26 1   
    10    4   27 1   
    11    5    6 1   
    12    5   28 1   
    13    6    7 1   
    14    6   29 1   
    15    7    8 1   
    16    7   30 1   
    17    9   10 1   
    18    9   21 1   
    19    9   31 1   
    20    9   32 1   
    21   10   11 1   
    22   10   33 1   
    23   11   12 1   
    24   11   34 1   
    25   12   19 1   
    26   13   14 1   
    27   14   15 1   
    28   14   16 1   
    29   16   17 1   
    30   16   20 1   
    31   17   18 1   
    32   17   42 1   
    33   18   25 1   
    34   19   21 1   
    35   19   36 1   
    36   20   21 1   
    37   22   23 1   
    38   22   38 1   
    39   22   39 1   
    40   23   40 1   
    41   23   42 1   
    42   24   37 1   
    43   24   41 1   
    44   35   42 1   
    45   42   43 1   
@<TRIPOS>SUBSTRUCTURE
     1 PFQ         1 TEMP              0 ****  ****    0 ROOT
