@<TRIPOS>MOLECULE
PFR
   61    65     1     0     0
SMALL
bcc


@<TRIPOS>ATOM
      1 C1         -3.0350   -2.2280   -0.8770 ca        1 PFR      0.141100
      2 C2         -2.2460   -1.0800   -0.5120 ca        1 PFR      0.110100
      3 C3         -1.0850   -1.2420    0.2120 ca        1 PFR     -0.155000
      4 C4         -2.6480   -3.4910   -0.4900 ca        1 PFR     -0.256300
      5 C5         -1.4510   -3.6750    0.2710 ca        1 PFR      0.429600
      6 C6         -0.6540   -2.5350    0.5980 ca        1 PFR     -0.249600
      7 C7          0.5680   -2.7830    1.3540 ca        1 PFR      0.665200
      8 N8          0.8900   -4.0310    1.7510 nb        1 PFR     -0.754000
      9 C9          0.0250   -5.0400    1.3950 ca        1 PFR      0.648900
     10 N10        -1.0960   -4.9470    0.6810 nb        1 PFR     -0.698000
     11 O11        -4.1620   -1.9360   -1.6120 os        1 PFR     -0.301900
     12 O12        -2.7610    0.1220   -0.9420 os        1 PFR     -0.313900
     13 C13        -4.9690   -3.0480   -1.9880 c3        1 PFR      0.106700
     14 N14         1.3820   -1.6610    1.7060 nh        1 PFR     -0.738300
     15 C15         2.1870   -1.8080    2.9150 c3        1 PFR      0.180800
     16 C16         2.8490   -0.4880    3.3140 c3        1 PFR     -0.082400
     17 C17         3.6550    0.0930    2.1730 c3        1 PFR     -0.074400
     18 C18         2.7930    0.2260    0.9240 c3        1 PFR     -0.022400
     19 C19         2.1490   -1.1310    0.5810 c3        1 PFR      0.181800
     20 C20         3.5790    0.7200   -0.2470 ca        1 PFR     -0.082300
     21 C21         4.7100    0.0320   -0.7030 ca        1 PFR     -0.124000
     22 C22         5.4330    0.5080   -1.7950 ca        1 PFR     -0.129500
     23 C23         5.0320    1.6760   -2.4450 ca        1 PFR     -0.129000
     24 C24         3.9050    2.3640   -1.9980 ca        1 PFR     -0.129500
     25 C25         3.1810    1.8900   -0.9060 ca        1 PFR     -0.124000
     26 C26        -2.0060    1.2890   -0.5750 c3        1 PFR      0.133400
     27 C27        -2.7690    2.4570   -1.1770 c3        1 PFR     -0.135700
     28 C28        -2.2690    3.7840   -0.6910 ca        1 PFR      0.410600
     29 N29        -0.9480    3.9570   -0.4330 nb        1 PFR     -0.676000
     30 C30        -0.5450    5.1740   -0.0270 ca        1 PFR      0.399200
     31 C31        -1.4090    6.2710    0.1410 ca        1 PFR     -0.248300
     32 C32        -2.7660    6.0860   -0.1260 ca        1 PFR     -0.089000
     33 C33        -3.2080    4.8310   -0.5460 ca        1 PFR     -0.243300
     34 H3         -0.4930   -0.3640    0.5160 ha        1 PFR      0.163000
     35 H4         -3.2470   -4.3770   -0.7510 ha        1 PFR      0.161000
     36 H9          0.3210   -6.0510    1.7440 h5        1 PFR      0.051100
     37 H13        -4.3920   -3.7540   -2.6330 h1        1 PFR      0.048367
     38 H13A       -5.3620   -3.5740   -1.0840 h1        1 PFR      0.048367
     39 H13B       -5.8040   -2.5750   -2.5650 h1        1 PFR      0.048367
     40 H15         1.5050   -2.1450    3.7450 h1        1 PFR      0.049700
     41 H15A        2.9920   -2.5880    2.7870 h1        1 PFR      0.049700
     42 H16         2.0670    0.2470    3.6390 hc        1 PFR      0.050200
     43 H16A        3.5170   -0.6870    4.1920 hc        1 PFR      0.050200
     44 H17         4.0530    1.1000    2.4620 hc        1 PFR      0.046700
     45 H17A        4.5340   -0.5690    1.9560 hc        1 PFR      0.046700
     46 H18         1.9660    0.9610    1.1470 hc        1 PFR      0.066700
     47 H19         2.9660   -1.8480    0.2750 h1        1 PFR      0.049200
     48 H19A        1.4570   -0.9990   -0.2960 h1        1 PFR      0.049200
     49 H21         5.0320   -0.8910   -0.1970 ha        1 PFR      0.135500
     50 H22         6.3200   -0.0390   -2.1450 ha        1 PFR      0.131500
     51 H23         5.6030    2.0510   -3.3070 ha        1 PFR      0.131000
     52 H24         3.5830    3.2840   -2.5100 ha        1 PFR      0.131500
     53 H25         2.2890    2.4380   -0.5630 ha        1 PFR      0.135500
     54 H26        -1.9580    1.3650    0.5430 h1        1 PFR      0.053700
     55 H26A       -0.9710    1.2150   -0.9980 h1        1 PFR      0.053700
     56 H27        -2.6780    2.4230   -2.2960 hc        1 PFR      0.072700
     57 H27A       -3.8590    2.3530   -0.9250 hc        1 PFR      0.072700
     58 H30         0.5370    5.2720    0.1730 h4        1 PFR      0.021100
     59 H31        -1.0200    7.2410    0.4740 ha        1 PFR      0.145000
     60 H32        -3.4780    6.9150   -0.0070 ha        1 PFR      0.140000
     61 H33        -4.2690    4.6530   -0.7620 ha        1 PFR      0.146000
@<TRIPOS>BOND
     1    1    2 ar  
     2    1    4 ar  
     3    1   11 1   
     4    2    3 ar  
     5    2   12 1   
     6    3    6 ar  
     7    3   34 1   
     8    4    5 ar  
     9    4   35 1   
    10    5    6 ar  
    11    5   10 ar  
    12    6    7 ar  
    13    7    8 ar  
    14    7   14 1   
    15    8    9 ar  
    16    9   10 ar  
    17    9   36 1   
    18   11   13 1   
    19   12   26 1   
    20   13   37 1   
    21   13   38 1   
    22   13   39 1   
    23   14   15 1   
    24   14   19 1   
    25   15   16 1   
    26   15   40 1   
    27   15   41 1   
    28   16   17 1   
    29   16   42 1   
    30   16   43 1   
    31   17   18 1   
    32   17   44 1   
    33   17   45 1   
    34   18   19 1   
    35   18   20 1   
    36   18   46 1   
    37   19   47 1   
    38   19   48 1   
    39   20   21 ar  
    40   20   25 ar  
    41   21   22 ar  
    42   21   49 1   
    43   22   23 ar  
    44   22   50 1   
    45   23   24 ar  
    46   23   51 1   
    47   24   25 ar  
    48   24   52 1   
    49   25   53 1   
    50   26   27 1   
    51   26   54 1   
    52   26   55 1   
    53   27   28 1   
    54   27   56 1   
    55   27   57 1   
    56   28   29 ar  
    57   28   33 ar  
    58   29   30 ar  
    59   30   31 ar  
    60   30   58 1   
    61   31   32 ar  
    62   31   59 1   
    63   32   33 ar  
    64   32   60 1   
    65   33   61 1   
@<TRIPOS>SUBSTRUCTURE
     1 PFR         1 TEMP              0 ****  ****    0 ROOT
