@<TRIPOS>MOLECULE
PFR
   61    65     1     0     0
SMALL
bcc


@<TRIPOS>ATOM
      1 C1          0.1710   -0.3570    0.2290 ca        1 PFR      0.141100
      2 C2          1.6010   -0.3380    0.3940 ca        1 PFR      0.110100
      3 C3          2.1510    0.0020    1.6110 ca        1 PFR     -0.155000
      4 C4         -0.6560   -0.0180    1.2750 ca        1 PFR     -0.256300
      5 C5         -0.1010    0.3460    2.5420 ca        1 PFR      0.429600
      6 C6          1.3180    0.3280    2.7090 ca        1 PFR     -0.249600
      7 C7          1.8290    0.6840    4.0290 ca        1 PFR      0.665200
      8 N8          0.9870    1.0510    5.0160 nb        1 PFR     -0.754000
      9 C9         -0.3560    1.0540    4.7190 ca        1 PFR      0.648900
     10 N10        -0.9460    0.7180    3.5720 nb        1 PFR     -0.698000
     11 O11        -0.2530   -0.7270   -1.0280 os        1 PFR     -0.301900
     12 O12         2.3080   -0.6730   -0.7390 os        1 PFR     -0.313900
     13 C13        -1.6640   -0.7520   -1.2290 c3        1 PFR      0.106700
     14 N14         3.2460    0.6850    4.2240 nh        1 PFR     -0.738300
     15 C15         3.7490    1.5920    5.2510 c3        1 PFR      0.180800
     16 C16         5.2770    1.6720    5.2310 c3        1 PFR     -0.082400
     17 C17         5.9030    0.2980    5.3420 c3        1 PFR     -0.074400
     18 C18         5.3510   -0.6280    4.2650 c3        1 PFR     -0.022400
     19 C19         3.8130   -0.6570    4.3330 c3        1 PFR      0.181800
     20 C20         5.8870   -2.0170    4.3960 ca        1 PFR     -0.082300
     21 C21         5.7180   -2.7510    5.5770 ca        1 PFR     -0.124000
     22 C22         6.2260   -4.0450    5.6810 ca        1 PFR     -0.129500
     23 C23         6.9060   -4.6200    4.6080 ca        1 PFR     -0.129000
     24 C24         7.0750   -3.8960    3.4280 ca        1 PFR     -0.129500
     25 C25         6.5680   -2.6020    3.3210 ca        1 PFR     -0.124000
     26 C26         3.7390   -0.6520   -0.6070 c3        1 PFR      0.133400
     27 C27         4.2650   -1.0780   -1.9680 c3        1 PFR     -0.135700
     28 C28         5.7460   -0.8800   -2.1020 ca        1 PFR      0.410600
     29 N29         6.5530   -1.0560   -1.0240 nb        1 PFR     -0.676000
     30 C30         7.8750   -0.8960   -1.2030 ca        1 PFR      0.399200
     31 C31         8.4660   -0.5620   -2.4350 ca        1 PFR     -0.248300
     32 C32         7.6310   -0.3830   -3.5380 ca        1 PFR     -0.089000
     33 C33         6.2550   -0.5410   -3.3760 ca        1 PFR     -0.243300
     34 H3          3.2450    0.0430    1.7340 ha        1 PFR      0.163000
     35 H4         -1.7510   -0.0160    1.1610 ha        1 PFR      0.161000
     36 H9         -1.0170    1.3670    5.5550 h5        1 PFR      0.051100
     37 H13        -2.1470   -1.4910   -0.5450 h1        1 PFR      0.048367
     38 H13A       -2.1010    0.2650   -1.0810 h1        1 PFR      0.048367
     39 H13B       -1.7640   -1.0750   -2.2960 h1        1 PFR      0.048367
     40 H15         3.3240    2.6150    5.0480 h1        1 PFR      0.049700
     41 H15A        3.4200    1.2770    6.2840 h1        1 PFR      0.049700
     42 H16         5.6200    2.1700    4.2880 hc        1 PFR      0.050200
     43 H16A        5.6020    2.3100    6.0930 hc        1 PFR      0.050200
     44 H17         7.0150    0.3770    5.2340 hc        1 PFR      0.046700
     45 H17A        5.6910   -0.1330    6.3550 hc        1 PFR      0.046700
     46 H18         5.6520   -0.2130    3.2600 hc        1 PFR      0.066700
     47 H19         3.5060   -1.1500    5.3020 h1        1 PFR      0.049200
     48 H19A        3.4190   -1.2840    3.4860 h1        1 PFR      0.049200
     49 H21         5.1810   -2.3060    6.4280 ha        1 PFR      0.135500
     50 H22         6.0880   -4.6130    6.6130 ha        1 PFR      0.131500
     51 H23         7.3060   -5.6410    4.6910 ha        1 PFR      0.131000
     52 H24         7.6070   -4.3460    2.5770 ha        1 PFR      0.131500
     53 H25         6.7020   -2.0390    2.3840 ha        1 PFR      0.135500
     54 H26         4.0740    0.3860   -0.3470 h1        1 PFR      0.053700
     55 H26A        4.0530   -1.3690    0.1960 h1        1 PFR      0.053700
     56 H27         3.7360   -0.4910   -2.7660 hc        1 PFR      0.072700
     57 H27A        4.0280   -2.1630   -2.1360 hc        1 PFR      0.072700
     58 H30         8.4970   -1.0460   -0.3020 h4        1 PFR      0.021100
     59 H31         9.5540   -0.4460   -2.5180 ha        1 PFR      0.145000
     60 H32         8.0490   -0.1200   -4.5210 ha        1 PFR      0.140000
     61 H33         5.5700   -0.4060   -4.2240 ha        1 PFR      0.146000
@<TRIPOS>BOND
     1    1    2 ar  
     2    1    4 ar  
     3    1   11 1   
     4    2    3 ar  
     5    2   12 1   
     6    3    6 ar  
     7    3   34 1   
     8    4    5 ar  
     9    4   35 1   
    10    5    6 ar  
    11    5   10 ar  
    12    6    7 ar  
    13    7    8 ar  
    14    7   14 1   
    15    8    9 ar  
    16    9   10 ar  
    17    9   36 1   
    18   11   13 1   
    19   12   26 1   
    20   13   37 1   
    21   13   38 1   
    22   13   39 1   
    23   14   15 1   
    24   14   19 1   
    25   15   16 1   
    26   15   40 1   
    27   15   41 1   
    28   16   17 1   
    29   16   42 1   
    30   16   43 1   
    31   17   18 1   
    32   17   44 1   
    33   17   45 1   
    34   18   19 1   
    35   18   20 1   
    36   18   46 1   
    37   19   47 1   
    38   19   48 1   
    39   20   21 ar  
    40   20   25 ar  
    41   21   22 ar  
    42   21   49 1   
    43   22   23 ar  
    44   22   50 1   
    45   23   24 ar  
    46   23   51 1   
    47   24   25 ar  
    48   24   52 1   
    49   25   53 1   
    50   26   27 1   
    51   26   54 1   
    52   26   55 1   
    53   27   28 1   
    54   27   56 1   
    55   27   57 1   
    56   28   29 ar  
    57   28   33 ar  
    58   29   30 ar  
    59   30   31 ar  
    60   30   58 1   
    61   31   32 ar  
    62   31   59 1   
    63   32   33 ar  
    64   32   60 1   
    65   33   61 1   
@<TRIPOS>SUBSTRUCTURE
     1 PFR         1 TEMP              0 ****  ****    0 ROOT
