@<TRIPOS>MOLECULE
PFR
   61    65     1     0     0
SMALL
bcc


@<TRIPOS>ATOM
      1 C1          0.1790   -0.3590    0.2140 ca        1 PFR      0.141100
      2 C2          1.6080   -0.3390    0.3860 ca        1 PFR      0.110100
      3 C3          2.1530   -0.0030    1.6060 ca        1 PFR     -0.155000
      4 C4         -0.6530   -0.0240    1.2580 ca        1 PFR     -0.256300
      5 C5         -0.1030    0.3360    2.5290 ca        1 PFR      0.429600
      6 C6          1.3150    0.3180    2.7010 ca        1 PFR     -0.249600
      7 C7          1.8200    0.6700    4.0240 ca        1 PFR      0.665200
      8 N8          0.9740    1.0320    5.0090 nb        1 PFR     -0.754000
      9 C9         -0.3680    1.0360    4.7070 ca        1 PFR      0.648900
     10 N10        -0.9530    0.7030    3.5570 nb        1 PFR     -0.698000
     11 O11        -0.2400   -0.7230   -1.0460 os        1 PFR     -0.301900
     12 O12         2.3200   -0.6700   -0.7460 os        1 PFR     -0.313900
     13 C13        -1.6490   -0.7490   -1.2530 c3        1 PFR      0.106700
     14 N14         3.2360    0.6710    4.2260 nh        1 PFR     -0.738300
     15 C15         3.7340    1.5760    5.2570 c3        1 PFR      0.180800
     16 C16         5.2620    1.6560    5.2450 c3        1 PFR     -0.082400
     17 C17         5.8880    0.2830    5.3550 c3        1 PFR     -0.074400
     18 C18         5.3420   -0.6410    4.2740 c3        1 PFR     -0.022400
     19 C19         3.8040   -0.6710    4.3340 c3        1 PFR      0.181800
     20 C20         5.8780   -2.0300    4.4040 ca        1 PFR     -0.082300
     21 C21         5.7030   -2.7670    5.5820 ca        1 PFR     -0.124000
     22 C22         6.2110   -4.0610    5.6860 ca        1 PFR     -0.129500
     23 C23         6.8970   -4.6330    4.6150 ca        1 PFR     -0.129000
     24 C24         7.0720   -3.9060    3.4380 ca        1 PFR     -0.129500
     25 C25         6.5650   -2.6120    3.3320 ca        1 PFR     -0.124000
     26 C26         3.7510   -0.6420   -0.6100 c3        1 PFR      0.133400
     27 C27         4.2830   -1.0590   -1.9720 c3        1 PFR     -0.135700
     28 C28         5.7630   -0.8520   -2.1000 ca        1 PFR      0.410600
     29 N29         6.5670   -1.0310   -1.0220 nb        1 PFR     -0.676000
     30 C30         7.8900   -0.8630   -1.1970 ca        1 PFR      0.399200
     31 C31         8.4820   -0.5160   -2.4250 ca        1 PFR     -0.248300
     32 C32         7.6480   -0.3340   -3.5280 ca        1 PFR     -0.089000
     33 C33         6.2720   -0.5010   -3.3710 ca        1 PFR     -0.243300
     34 H3          3.2460    0.0380    1.7340 ha        1 PFR      0.163000
     35 H4         -1.7470   -0.0230    1.1400 ha        1 PFR      0.161000
     36 H9         -1.0330    1.3440    5.5420 h5        1 PFR      0.051100
     37 H13        -1.7450   -1.0690   -2.3220 h1        1 PFR      0.048367
     38 H13A       -2.0890    0.2670   -1.1030 h1        1 PFR      0.048367
     39 H13B       -2.1340   -1.4920   -0.5730 h1        1 PFR      0.048367
     40 H15         3.3100    2.5990    5.0550 h1        1 PFR      0.049700
     41 H15A        3.4010    1.2580    6.2880 h1        1 PFR      0.049700
     42 H16         5.6090    2.1570    4.3040 hc        1 PFR      0.050200
     43 H16A        5.5830    2.2930    6.1100 hc        1 PFR      0.050200
     44 H17         5.6710   -0.1510    6.3670 hc        1 PFR      0.046700
     45 H17A        7.0010    0.3620    5.2540 hc        1 PFR      0.046700
     46 H18         5.6480   -0.2230    3.2710 hc        1 PFR      0.066700
     47 H19         3.4920   -1.1670    5.2990 h1        1 PFR      0.049200
     48 H19A        3.4140   -1.2960    3.4820 h1        1 PFR      0.049200
     49 H21         5.1610   -2.3240    6.4310 ha        1 PFR      0.135500
     50 H22         6.0680   -4.6310    6.6160 ha        1 PFR      0.131500
     51 H23         7.2970   -5.6540    4.6980 ha        1 PFR      0.131000
     52 H24         7.6090   -4.3540    2.5900 ha        1 PFR      0.131500
     53 H25         6.7040   -2.0470    2.3970 ha        1 PFR      0.135500
     54 H26         4.0800    0.3960   -0.3440 h1        1 PFR      0.053700
     55 H26A        4.0660   -1.3620    0.1900 h1        1 PFR      0.053700
     56 H27         4.0520   -2.1440   -2.1450 hc        1 PFR      0.072700
     57 H27A        3.7520   -0.4710   -2.7680 hc        1 PFR      0.072700
     58 H30         8.5100   -1.0160   -0.2950 h4        1 PFR      0.021100
     59 H31         9.5690   -0.3940   -2.5040 ha        1 PFR      0.145000
     60 H32         8.0670   -0.0620   -4.5080 ha        1 PFR      0.140000
     61 H33         5.5890   -0.3630   -4.2200 ha        1 PFR      0.146000
@<TRIPOS>BOND
     1    1    2 ar  
     2    1    4 ar  
     3    1   11 1   
     4    2    3 ar  
     5    2   12 1   
     6    3    6 ar  
     7    3   34 1   
     8    4    5 ar  
     9    4   35 1   
    10    5    6 ar  
    11    5   10 ar  
    12    6    7 ar  
    13    7    8 ar  
    14    7   14 1   
    15    8    9 ar  
    16    9   10 ar  
    17    9   36 1   
    18   11   13 1   
    19   12   26 1   
    20   13   37 1   
    21   13   38 1   
    22   13   39 1   
    23   14   15 1   
    24   14   19 1   
    25   15   16 1   
    26   15   40 1   
    27   15   41 1   
    28   16   17 1   
    29   16   42 1   
    30   16   43 1   
    31   17   18 1   
    32   17   44 1   
    33   17   45 1   
    34   18   19 1   
    35   18   20 1   
    36   18   46 1   
    37   19   47 1   
    38   19   48 1   
    39   20   21 ar  
    40   20   25 ar  
    41   21   22 ar  
    42   21   49 1   
    43   22   23 ar  
    44   22   50 1   
    45   23   24 ar  
    46   23   51 1   
    47   24   25 ar  
    48   24   52 1   
    49   25   53 1   
    50   26   27 1   
    51   26   54 1   
    52   26   55 1   
    53   27   28 1   
    54   27   56 1   
    55   27   57 1   
    56   28   29 ar  
    57   28   33 ar  
    58   29   30 ar  
    59   30   31 ar  
    60   30   58 1   
    61   31   32 ar  
    62   31   59 1   
    63   32   33 ar  
    64   32   60 1   
    65   33   61 1   
@<TRIPOS>SUBSTRUCTURE
     1 PFR         1 TEMP              0 ****  ****    0 ROOT
