@<TRIPOS>MOLECULE
PFR
   61    65     1     0     0
SMALL
bcc


@<TRIPOS>ATOM
      1 C1          0.1810   -0.3480    0.2130 ca        1 PFR      0.141100
      2 C2          1.6110   -0.3280    0.3860 ca        1 PFR      0.110100
      3 C3          2.1530   -0.0030    1.6090 ca        1 PFR     -0.155000
      4 C4         -0.6520   -0.0210    1.2590 ca        1 PFR     -0.256300
      5 C5         -0.1040    0.3290    2.5330 ca        1 PFR      0.429600
      6 C6          1.3150    0.3090    2.7070 ca        1 PFR     -0.249600
      7 C7          1.8180    0.6510    4.0330 ca        1 PFR      0.665200
      8 N8          0.9710    1.0060    5.0200 nb        1 PFR     -0.754000
      9 C9         -0.3710    1.0110    4.7160 ca        1 PFR      0.648900
     10 N10        -0.9540    0.6870    3.5630 nb        1 PFR     -0.698000
     11 O11        -0.2360   -0.7030   -1.0500 os        1 PFR     -0.301900
     12 O12         2.3230   -0.6500   -0.7470 os        1 PFR     -0.313900
     13 C13        -1.6450   -0.7280   -1.2590 c3        1 PFR      0.106700
     14 N14         3.2330    0.6510    4.2360 nh        1 PFR     -0.738300
     15 C15         3.7310    1.5480    5.2750 c3        1 PFR      0.180800
     16 C16         5.2580    1.6280    5.2660 c3        1 PFR     -0.082400
     17 C17         5.8840    0.2540    5.3660 c3        1 PFR     -0.074400
     18 C18         5.3400   -0.6620    4.2760 c3        1 PFR     -0.022400
     19 C19         3.8010   -0.6920    4.3340 c3        1 PFR      0.181800
     20 C20         5.8750   -2.0520    4.3960 ca        1 PFR     -0.082300
     21 C21         5.6990   -2.7980    5.5680 ca        1 PFR     -0.124000
     22 C22         6.2070   -4.0930    5.6620 ca        1 PFR     -0.129500
     23 C23         6.8940   -4.6560    4.5880 ca        1 PFR     -0.129000
     24 C24         7.0710   -3.9200    3.4170 ca        1 PFR     -0.129500
     25 C25         6.5640   -2.6240    3.3200 ca        1 PFR     -0.124000
     26 C26         3.7540   -0.6220   -0.6100 c3        1 PFR      0.133400
     27 C27         4.2880   -1.0260   -1.9750 c3        1 PFR     -0.135700
     28 C28         5.7670   -0.8150   -2.1000 ca        1 PFR      0.410600
     29 N29         6.5720   -1.0030   -1.0240 nb        1 PFR     -0.676000
     30 C30         7.8940   -0.8300   -1.1960 ca        1 PFR      0.399200
     31 C31         8.4860   -0.4700   -2.4200 ca        1 PFR     -0.248300
     32 C32         7.6520   -0.2790   -3.5220 ca        1 PFR     -0.089000
     33 C33         6.2770   -0.4510   -3.3680 ca        1 PFR     -0.243300
     34 H3          3.2460    0.0380    1.7390 ha        1 PFR      0.163000
     35 H4         -1.7460   -0.0190    1.1390 ha        1 PFR      0.161000
     36 H9         -1.0370    1.3130    5.5520 h5        1 PFR      0.051100
     37 H13        -1.7400   -1.0390   -2.3300 h1        1 PFR      0.048367
     38 H13A       -2.0850    0.2870   -1.1010 h1        1 PFR      0.048367
     39 H13B       -2.1310   -1.4750   -0.5860 h1        1 PFR      0.048367
     40 H15         3.3060    2.5720    5.0810 h1        1 PFR      0.049700
     41 H15A        3.3960    1.2210    6.3030 h1        1 PFR      0.049700
     42 H16         5.6070    2.1360    4.3290 hc        1 PFR      0.050200
     43 H16A        5.5780    2.2570    6.1360 hc        1 PFR      0.050200
     44 H17         6.9970    0.3340    5.2660 hc        1 PFR      0.046700
     45 H17A        5.6660   -0.1880    6.3730 hc        1 PFR      0.046700
     46 H18         5.6460   -0.2360    3.2770 hc        1 PFR      0.066700
     47 H19         3.4880   -1.1950    5.2950 h1        1 PFR      0.049200
     48 H19A        3.4130   -1.3100    3.4770 h1        1 PFR      0.049200
     49 H21         5.1550   -2.3620    6.4200 ha        1 PFR      0.135500
     50 H22         6.0630   -4.6700    6.5870 ha        1 PFR      0.131500
     51 H23         7.2940   -5.6770    4.6630 ha        1 PFR      0.131000
     52 H24         7.6090   -4.3610    2.5650 ha        1 PFR      0.131500
     53 H25         6.7050   -2.0520    2.3900 ha        1 PFR      0.135500
     54 H26         4.0810    0.4140   -0.3350 h1        1 PFR      0.053700
     55 H26A        4.0700   -1.3470    0.1840 h1        1 PFR      0.053700
     56 H27         3.7560   -0.4330   -2.7670 hc        1 PFR      0.072700
     57 H27A        4.0590   -2.1110   -2.1560 hc        1 PFR      0.072700
     58 H30         8.5140   -0.9910   -0.2950 h4        1 PFR      0.021100
     59 H31         9.5730   -0.3440   -2.4980 ha        1 PFR      0.145000
     60 H32         8.0710    0.0040   -4.4990 ha        1 PFR      0.140000
     61 H33         5.5930   -0.3050   -4.2150 ha        1 PFR      0.146000
@<TRIPOS>BOND
     1    1    2 ar  
     2    1    4 ar  
     3    1   11 1   
     4    2    3 ar  
     5    2   12 1   
     6    3    6 ar  
     7    3   34 1   
     8    4    5 ar  
     9    4   35 1   
    10    5    6 ar  
    11    5   10 ar  
    12    6    7 ar  
    13    7    8 ar  
    14    7   14 1   
    15    8    9 ar  
    16    9   10 ar  
    17    9   36 1   
    18   11   13 1   
    19   12   26 1   
    20   13   37 1   
    21   13   38 1   
    22   13   39 1   
    23   14   15 1   
    24   14   19 1   
    25   15   16 1   
    26   15   40 1   
    27   15   41 1   
    28   16   17 1   
    29   16   42 1   
    30   16   43 1   
    31   17   18 1   
    32   17   44 1   
    33   17   45 1   
    34   18   19 1   
    35   18   20 1   
    36   18   46 1   
    37   19   47 1   
    38   19   48 1   
    39   20   21 ar  
    40   20   25 ar  
    41   21   22 ar  
    42   21   49 1   
    43   22   23 ar  
    44   22   50 1   
    45   23   24 ar  
    46   23   51 1   
    47   24   25 ar  
    48   24   52 1   
    49   25   53 1   
    50   26   27 1   
    51   26   54 1   
    52   26   55 1   
    53   27   28 1   
    54   27   56 1   
    55   27   57 1   
    56   28   29 ar  
    57   28   33 ar  
    58   29   30 ar  
    59   30   31 ar  
    60   30   58 1   
    61   31   32 ar  
    62   31   59 1   
    63   32   33 ar  
    64   32   60 1   
    65   33   61 1   
@<TRIPOS>SUBSTRUCTURE
     1 PFR         1 TEMP              0 ****  ****    0 ROOT
