@<TRIPOS>MOLECULE
PFS
   89    88     1     0     0
SMALL
bcc


@<TRIPOS>ATOM
      1 C1          3.5190   -4.1750    1.6260 c3        1 PFS      0.117400
      2 O1          3.0050   -2.8480    1.9040 os        1 PFS     -0.429600
      3 C2          4.9730   -4.0750    1.1820 c3        1 PFS      0.113100
      4 OXT         5.8030   -4.5620    2.1890 os        1 PFS     -0.422900
      5 C           6.7730   -3.6500    2.6090 c         1 PFS      0.665100
      6 O2          6.8390   -2.5310    2.0820 o         1 PFS     -0.609000
      7 CH3         7.6670   -3.9860    3.7750 c3        1 PFS     -0.154100
      8 C3          5.1740   -4.9030   -0.0960 c3        1 PFS      0.170400
      9 C11         1.6390   -2.8370    2.4180 c3        1 PFS      0.131400
     10 C12         1.2110   -1.3880    2.7200 c3        1 PFS     -0.082400
     11 O3          5.9490   -4.1640   -1.0210 os        1 PFS     -0.582200
     12 P           6.5030   -4.9130   -2.3100 p5        1 PFS      1.433800
     13 O31         7.7290   -5.7260   -1.9330 o         1 PFS     -0.810500
     14 O32         5.4340   -5.8340   -2.8560 o         1 PFS     -0.810500
     15 O33         6.8990   -3.8390   -3.4250 os        1 PFS     -0.570200
     16 C31         7.5810   -4.3030   -4.6070 c3        1 PFS      0.197400
     17 C32         7.5030   -3.2080   -5.7270 c3        1 PFS      0.074800
     18 N           8.3890   -3.5910   -6.8460 n4        1 PFS     -0.576800
     19 C1N         8.1040   -4.9550   -7.2420 c3        1 PFS      0.074767
     20 C2N         8.1660   -2.7210   -7.9540 c3        1 PFS      0.074767
     21 C3N         9.7460   -3.4900   -6.4310 c3        1 PFS      0.074767
     22 C13        -0.3510   -1.3400    2.9290 c3        1 PFS     -0.079400
     23 C14        -0.8150    0.1250    3.0790 c3        1 PFS     -0.077400
     24 C15        -2.3530    0.1760    3.0390 c3        1 PFS     -0.079400
     25 C16        -2.8360    1.6780    3.0710 c3        1 PFS     -0.078400
     26 C17        -4.3920    1.7300    2.9190 c3        1 PFS     -0.079400
     27 C18        -4.8370    3.1900    2.7270 c3        1 PFS     -0.078400
     28 C19        -6.3690    3.2450    2.5460 c3        1 PFS     -0.079400
     29 C20        -6.8040    4.7130    2.2310 c3        1 PFS     -0.078400
     30 C21        -8.3270    4.7540    1.9370 c3        1 PFS     -0.079400
     31 C22        -8.7410    6.1750    1.6070 c3        1 PFS     -0.078400
     32 C23       -10.2420    6.2260    1.3930 c3        1 PFS     -0.079400
     33 C24       -10.6630    7.6540    1.0490 c3        1 PFS     -0.079400
     34 C25       -12.1970    7.7020    0.8380 c3        1 PFS     -0.080400
     35 C26       -12.6060    9.0970    0.3820 c3        1 PFS     -0.092100
     36 H11         2.9950   -4.5830    0.9220 h1        1 PFS      0.047700
     37 H12         3.4620   -4.7180    2.4260 h1        1 PFS      0.047700
     38 H2          5.1950   -3.1400    1.0030 h1        1 PFS      0.104700
     39 HH31        8.5680   -4.1830    3.4490 hc        1 PFS      0.074367
     40 HH32        7.3090   -4.7730    4.2460 hc        1 PFS      0.074367
     41 HH33        7.7020   -3.2320    4.3830 hc        1 PFS      0.074367
     42 H31         5.6430   -5.7490    0.1280 h1        1 PFS      0.061700
     43 H32         4.2920   -5.1110   -0.4960 h1        1 PFS      0.061700
     44 H111        1.0320   -3.2250    1.7450 h1        1 PFS      0.027700
     45 H112        1.5950   -3.3600    3.2280 h1        1 PFS      0.027700
     46 H121        1.4610   -0.8080    1.9650 hc        1 PFS      0.052200
     47 H122        1.6630   -1.0750    3.5380 hc        1 PFS      0.052200
     48 H311        8.5120   -4.4810   -4.3940 h1        1 PFS      0.054700
     49 H312        7.1610   -5.1180   -4.9230 h1        1 PFS      0.054700
     50 H321        6.5710   -3.1350   -6.0530 hx        1 PFS      0.098700
     51 H322        7.7920   -2.3410   -5.3590 hx        1 PFS      0.098700
     52 H1N1        7.1240   -5.0800   -7.3120 hx        1 PFS      0.100144
     53 H1N2        8.5210   -5.1380   -8.1150 hx        1 PFS      0.100144
     54 H1N3        8.4680   -5.5780   -6.5650 hx        1 PFS      0.100144
     55 H2N1        7.2350   -2.7960   -8.2460 hx        1 PFS      0.100144
     56 H2N2        8.7650   -2.9730   -8.6960 hx        1 PFS      0.100144
     57 H2N3        8.3510   -1.7910   -7.6830 hx        1 PFS      0.100144
     58 H3N1        9.8500   -2.7100   -5.8340 hx        1 PFS      0.100144
     59 H3N2       10.3250   -3.3770   -7.2230 hx        1 PFS      0.100144
     60 H3N3       10.0030   -4.3070   -5.9500 hx        1 PFS      0.100144
     61 H131       -0.5890   -1.8440    3.7430 hc        1 PFS      0.040700
     62 H132       -0.7980   -1.7460    2.1480 hc        1 PFS      0.040700
     63 H141       -0.5050    0.4750    3.9170 hc        1 PFS      0.040200
     64 H142       -0.4560    0.6520    2.3580 hc        1 PFS      0.040200
     65 H151       -2.7120   -0.2950    3.8060 hc        1 PFS      0.040200
     66 H152       -2.6700   -0.2490    2.2200 hc        1 PFS      0.040200
     67 H161       -2.5770    2.0870    3.9280 hc        1 PFS      0.039200
     68 H162       -2.4190    2.1730    2.3320 hc        1 PFS      0.039200
     69 H171       -4.8100    1.3640    3.7230 hc        1 PFS      0.039700
     70 H172       -4.6590    1.2060    2.1480 hc        1 PFS      0.039700
     71 H181       -4.4030    3.5610    1.9340 hc        1 PFS      0.039200
     72 H182       -4.5840    3.7120    3.5080 hc        1 PFS      0.039200
     73 H191       -6.6320    2.6590    1.8040 hc        1 PFS      0.039700
     74 H192       -6.8070    2.9440    3.3710 hc        1 PFS      0.039700
     75 H201       -6.3120    5.0390    1.4470 hc        1 PFS      0.039200
     76 H202       -6.6030    5.2910    3.0100 hc        1 PFS      0.039200
     77 H211       -8.5280    4.1730    1.1800 hc        1 PFS      0.039700
     78 H212       -8.8180    4.4470    2.7220 hc        1 PFS      0.039700
     79 H221       -8.2870    6.4650    0.7970 hc        1 PFS      0.039700
     80 H222       -8.5000    6.7580    2.3380 hc        1 PFS      0.039700
     81 H231      -10.6990    5.9390    2.2140 hc        1 PFS      0.039700
     82 H232      -10.4860    5.6320    0.6630 hc        1 PFS      0.039700
     83 H241      -10.2110    7.9390    0.2290 hc        1 PFS      0.039700
     84 H242      -10.4150    8.2520    1.7830 hc        1 PFS      0.039700
     85 H251      -12.6500    7.4880    1.6820 hc        1 PFS      0.038700
     86 H252      -12.4540    7.0470    0.1560 hc        1 PFS      0.038700
     87 H261      -13.5780    9.1340    0.2740 hc        1 PFS      0.032700
     88 H262      -12.1740    9.3010   -0.4740 hc        1 PFS      0.032700
     89 H263      -12.3280    9.7540    1.0520 hc        1 PFS      0.032700
@<TRIPOS>BOND
     1    1    2 1   
     2    1    3 1   
     3    1   36 1   
     4    1   37 1   
     5    2    9 1   
     6    3    4 1   
     7    3    8 1   
     8    3   38 1   
     9    4    5 1   
    10    5    6 2   
    11    5    7 1   
    12    7   39 1   
    13    7   40 1   
    14    7   41 1   
    15    8   11 1   
    16    8   42 1   
    17    8   43 1   
    18    9   10 1   
    19    9   44 1   
    20    9   45 1   
    21   10   22 1   
    22   10   46 1   
    23   10   47 1   
    24   11   12 1   
    25   12   13 1   
    26   12   14 1   
    27   12   15 1   
    28   15   16 1   
    29   16   17 1   
    30   16   48 1   
    31   16   49 1   
    32   17   18 1   
    33   17   50 1   
    34   17   51 1   
    35   18   19 1   
    36   18   20 1   
    37   18   21 1   
    38   19   52 1   
    39   19   53 1   
    40   19   54 1   
    41   20   55 1   
    42   20   56 1   
    43   20   57 1   
    44   21   58 1   
    45   21   59 1   
    46   21   60 1   
    47   22   23 1   
    48   22   61 1   
    49   22   62 1   
    50   23   24 1   
    51   23   63 1   
    52   23   64 1   
    53   24   25 1   
    54   24   65 1   
    55   24   66 1   
    56   25   26 1   
    57   25   67 1   
    58   25   68 1   
    59   26   27 1   
    60   26   69 1   
    61   26   70 1   
    62   27   28 1   
    63   27   71 1   
    64   27   72 1   
    65   28   29 1   
    66   28   73 1   
    67   28   74 1   
    68   29   30 1   
    69   29   75 1   
    70   29   76 1   
    71   30   31 1   
    72   30   77 1   
    73   30   78 1   
    74   31   32 1   
    75   31   79 1   
    76   31   80 1   
    77   32   33 1   
    78   32   81 1   
    79   32   82 1   
    80   33   34 1   
    81   33   83 1   
    82   33   84 1   
    83   34   35 1   
    84   34   85 1   
    85   34   86 1   
    86   35   87 1   
    87   35   88 1   
    88   35   89 1   
@<TRIPOS>SUBSTRUCTURE
     1 PFS         1 TEMP              0 ****  ****    0 ROOT
