@<TRIPOS>MOLECULE
PFS
   89    88     1     0     0
SMALL
bcc


@<TRIPOS>ATOM
      1 C1          0.2970   -1.4130    0.6630 c3        1 PFS      0.117400
      2 O1         -0.1070   -0.1350    1.1480 os        1 PFS     -0.429600
      3 C2          1.8240   -1.4590    0.7520 c3        1 PFS      0.113100
      4 OXT         2.1480   -1.5620    2.1550 os        1 PFS     -0.422900
      5 C           2.9450   -0.6260    2.7280 c         1 PFS      0.665100
      6 O2          3.5040    0.2370    2.0370 o         1 PFS     -0.609000
      7 CH3         3.0500   -0.7950    4.2080 c3        1 PFS     -0.154100
      8 C3          2.3550   -2.7260    0.0550 c3        1 PFS      0.170400
      9 C11        -1.5180    0.0520    1.0490 c3        1 PFS      0.131400
     10 C12        -1.8120    1.4390    1.5910 c3        1 PFS     -0.082400
     11 O3          3.6590   -2.5420   -0.4030 os        1 PFS     -0.582200
     12 P           3.8660   -2.3370   -2.0260 p5        1 PFS      1.433800
     13 O31         5.3310   -2.2190   -2.2160 o         1 PFS     -0.810500
     14 O32         2.8700   -3.1200   -2.7580 o         1 PFS     -0.810500
     15 O33         3.3700   -0.7470   -1.9530 os        1 PFS     -0.570200
     16 C31         4.2770    0.2470   -2.2580 c3        1 PFS      0.197400
     17 C32         4.8150    0.9320   -0.9830 c3        1 PFS      0.074800
     18 N           6.1570    0.4890   -0.4520 n4        1 PFS     -0.576800
     19 C1N         7.1370    0.2720   -1.5530 c3        1 PFS      0.074767
     20 C2N         6.6570    1.5690    0.4510 c3        1 PFS      0.074767
     21 C3N         6.0460   -0.7660    0.3490 c3        1 PFS      0.074767
     22 C13        -3.2960    1.7280    1.5260 c3        1 PFS     -0.079400
     23 C14        -3.6070    3.1070    2.0680 c3        1 PFS     -0.077400
     24 C15        -5.0910    3.3980    2.0070 c3        1 PFS     -0.079400
     25 C16        -5.4030    4.7760    2.5500 c3        1 PFS     -0.078400
     26 C17        -6.8870    5.0650    2.4930 c3        1 PFS     -0.079400
     27 C18        -7.2000    6.4420    3.0380 c3        1 PFS     -0.078400
     28 C19        -8.6850    6.7310    2.9840 c3        1 PFS     -0.079400
     29 C20        -8.9980    8.1070    3.5310 c3        1 PFS     -0.078400
     30 C21       -10.4840    8.3940    3.4790 c3        1 PFS     -0.079400
     31 C22       -10.7970    9.7700    4.0270 c3        1 PFS     -0.078400
     32 C23       -12.2830   10.0560    3.9750 c3        1 PFS     -0.079400
     33 C24       -12.5970   11.4310    4.5230 c3        1 PFS     -0.079400
     34 C25       -14.0830   11.7190    4.4720 c3        1 PFS     -0.080400
     35 C26       -14.4010   13.0870    5.0170 c3        1 PFS     -0.092100
     36 H11        -0.0200   -1.5340   -0.4070 h1        1 PFS      0.047700
     37 H12        -0.1630   -2.2190    1.2930 h1        1 PFS      0.047700
     38 H2          2.2680   -0.5240    0.3140 h1        1 PFS      0.104700
     39 HH31        2.9810   -1.8750    4.4850 hc        1 PFS      0.074367
     40 HH32        2.2050   -0.2440    4.6890 hc        1 PFS      0.074367
     41 HH33        4.0190   -0.3720    4.5640 hc        1 PFS      0.074367
     42 H31         1.6810   -2.9920   -0.8090 h1        1 PFS      0.061700
     43 H32         2.3690   -3.5690    0.8020 h1        1 PFS      0.061700
     44 H111       -2.0450   -0.7360    1.6500 h1        1 PFS      0.027700
     45 H112       -1.8350   -0.0360   -0.0250 h1        1 PFS      0.027700
     46 H121       -1.4500    1.5080    2.6500 hc        1 PFS      0.052200
     47 H122       -1.2420    2.1980    0.9950 hc        1 PFS      0.052200
     48 H311        5.0990   -0.1470   -2.9160 h1        1 PFS      0.054700
     49 H312        3.7120    1.0540   -2.8130 h1        1 PFS      0.054700
     50 H321        4.0620    0.7790   -0.1510 hx        1 PFS      0.098700
     51 H322        4.9100    2.0320   -1.2060 hx        1 PFS      0.098700
     52 H1N1        7.0800    1.1280   -2.2730 hx        1 PFS      0.100144
     53 H1N2        8.1680    0.2070   -1.1180 hx        1 PFS      0.100144
     54 H1N3        6.8970   -0.7020   -2.0810 hx        1 PFS      0.100144
     55 H2N1        5.8860    1.7600    1.2460 hx        1 PFS      0.100144
     56 H2N2        7.6160    1.2410    0.9300 hx        1 PFS      0.100144
     57 H2N3        6.8360    2.5030   -0.1410 hx        1 PFS      0.100144
     58 H3N1        7.0510   -1.0130    0.7750 hx        1 PFS      0.100144
     59 H3N2        5.2920   -0.6220    1.1670 hx        1 PFS      0.100144
     60 H3N3        5.7000   -1.6090   -0.3280 hx        1 PFS      0.100144
     61 H131       -3.6490    1.6520    0.4640 hc        1 PFS      0.040700
     62 H132       -3.8570    0.9570    2.1180 hc        1 PFS      0.040700
     63 H141       -3.2510    3.1830    3.1290 hc        1 PFS      0.040200
     64 H142       -3.0470    3.8780    1.4750 hc        1 PFS      0.040200
     65 H151       -5.4460    3.3230    0.9460 hc        1 PFS      0.040200
     66 H152       -5.6500    2.6250    2.5980 hc        1 PFS      0.040200
     67 H161       -4.8460    5.5490    1.9580 hc        1 PFS      0.039200
     68 H162       -5.0450    4.8520    3.6110 hc        1 PFS      0.039200
     69 H171       -7.4440    4.2920    3.0850 hc        1 PFS      0.039700
     70 H172       -7.2450    4.9910    1.4330 hc        1 PFS      0.039700
     71 H181       -6.8410    6.5180    4.0990 hc        1 PFS      0.039200
     72 H182       -6.6450    7.2170    2.4460 hc        1 PFS      0.039200
     73 H191       -9.2400    5.9560    3.5750 hc        1 PFS      0.039700
     74 H192       -9.0440    6.6570    1.9240 hc        1 PFS      0.039700
     75 H201       -8.4440    8.8820    2.9390 hc        1 PFS      0.039200
     76 H202       -8.6380    8.1810    4.5910 hc        1 PFS      0.039200
     77 H211      -11.0370    7.6180    4.0710 hc        1 PFS      0.039700
     78 H212      -10.8440    8.3200    2.4190 hc        1 PFS      0.039700
     79 H221      -10.4370    9.8440    5.0860 hc        1 PFS      0.039700
     80 H222      -10.2440   10.5450    3.4340 hc        1 PFS      0.039700
     81 H231      -12.6430    9.9820    2.9150 hc        1 PFS      0.039700
     82 H232      -12.8360    9.2800    4.5660 hc        1 PFS      0.039700
     83 H241      -12.2370   11.5050    5.5830 hc        1 PFS      0.039700
     84 H242      -12.0440   12.2080    3.9320 hc        1 PFS      0.039700
     85 H251      -14.4410   11.6430    3.4110 hc        1 PFS      0.038700
     86 H252      -14.6340   10.9400    5.0620 hc        1 PFS      0.038700
     87 H261      -15.5000   13.2780    4.9700 hc        1 PFS      0.032700
     88 H262      -13.8800   13.8780    4.4250 hc        1 PFS      0.032700
     89 H263      -14.0730   13.1740    6.0810 hc        1 PFS      0.032700
@<TRIPOS>BOND
     1    1    2 1   
     2    1    3 1   
     3    1   36 1   
     4    1   37 1   
     5    2    9 1   
     6    3    4 1   
     7    3    8 1   
     8    3   38 1   
     9    4    5 1   
    10    5    6 2   
    11    5    7 1   
    12    7   39 1   
    13    7   40 1   
    14    7   41 1   
    15    8   11 1   
    16    8   42 1   
    17    8   43 1   
    18    9   10 1   
    19    9   44 1   
    20    9   45 1   
    21   10   22 1   
    22   10   46 1   
    23   10   47 1   
    24   11   12 1   
    25   12   13 1   
    26   12   14 1   
    27   12   15 1   
    28   15   16 1   
    29   16   17 1   
    30   16   48 1   
    31   16   49 1   
    32   17   18 1   
    33   17   50 1   
    34   17   51 1   
    35   18   19 1   
    36   18   20 1   
    37   18   21 1   
    38   19   52 1   
    39   19   53 1   
    40   19   54 1   
    41   20   55 1   
    42   20   56 1   
    43   20   57 1   
    44   21   58 1   
    45   21   59 1   
    46   21   60 1   
    47   22   23 1   
    48   22   61 1   
    49   22   62 1   
    50   23   24 1   
    51   23   63 1   
    52   23   64 1   
    53   24   25 1   
    54   24   65 1   
    55   24   66 1   
    56   25   26 1   
    57   25   67 1   
    58   25   68 1   
    59   26   27 1   
    60   26   69 1   
    61   26   70 1   
    62   27   28 1   
    63   27   71 1   
    64   27   72 1   
    65   28   29 1   
    66   28   73 1   
    67   28   74 1   
    68   29   30 1   
    69   29   75 1   
    70   29   76 1   
    71   30   31 1   
    72   30   77 1   
    73   30   78 1   
    74   31   32 1   
    75   31   79 1   
    76   31   80 1   
    77   32   33 1   
    78   32   81 1   
    79   32   82 1   
    80   33   34 1   
    81   33   83 1   
    82   33   84 1   
    83   34   35 1   
    84   34   85 1   
    85   34   86 1   
    86   35   87 1   
    87   35   88 1   
    88   35   89 1   
@<TRIPOS>SUBSTRUCTURE
     1 PFS         1 TEMP              0 ****  ****    0 ROOT
