@<TRIPOS>MOLECULE
PFS
   89    88     1     0     0
SMALL
bcc


@<TRIPOS>ATOM
      1 C1          3.4250   -1.7870    1.6350 c3        1 PFS      0.117400
      2 O1          2.3160   -0.9490    1.3210 os        1 PFS     -0.429600
      3 C2          4.6820   -0.9240    1.5060 c3        1 PFS      0.113100
      4 OXT         4.6740   -0.0200    2.6310 os        1 PFS     -0.422900
      5 C           4.7100    1.3180    2.4150 c         1 PFS      0.665100
      6 O2          4.8830    1.7680    1.2740 o         1 PFS     -0.609000
      7 CH3         4.5390    2.1040    3.6720 c3        1 PFS     -0.154100
      8 C3          5.9410   -1.8060    1.6240 c3        1 PFS      0.170400
      9 C11         1.0830   -1.6670    1.3360 c3        1 PFS      0.131400
     10 C12        -0.0060   -0.6690    0.9840 c3        1 PFS     -0.082400
     11 O3          7.0240   -1.2330    0.9590 os        1 PFS     -0.582200
     12 P           7.4660   -1.9070   -0.4810 p5        1 PFS      1.433800
     13 O31         8.6530   -1.1350   -0.9180 o         1 PFS     -0.810500
     14 O32         7.2250   -3.3490   -0.4500 o         1 PFS     -0.810500
     15 O33         6.2150   -1.1570   -1.2880 os        1 PFS     -0.570200
     16 C31         6.5150   -0.2180   -2.2530 c3        1 PFS      0.197400
     17 C32         6.3030    1.2190   -1.7280 c3        1 PFS      0.074800
     18 N           7.5130    1.9830   -1.2440 n4        1 PFS     -0.576800
     19 C1N         8.6880    1.7680   -2.1350 c3        1 PFS      0.074767
     20 C2N         7.1510    3.4330   -1.2420 c3        1 PFS      0.074767
     21 C3N         7.8870    1.5990    0.1500 c3        1 PFS      0.074767
     22 C13        -1.3590   -1.3470    0.9690 c3        1 PFS     -0.079400
     23 C14        -2.4560   -0.3640    0.6220 c3        1 PFS     -0.077400
     24 C15        -3.8110   -1.0390    0.6050 c3        1 PFS     -0.079400
     25 C16        -4.9100   -0.0570    0.2580 c3        1 PFS     -0.078400
     26 C17        -6.2650   -0.7310    0.2410 c3        1 PFS     -0.079400
     27 C18        -7.3630    0.2510   -0.1050 c3        1 PFS     -0.078400
     28 C19        -8.7180   -0.4240   -0.1220 c3        1 PFS     -0.079400
     29 C20        -9.8160    0.5580   -0.4690 c3        1 PFS     -0.078400
     30 C21       -11.1710   -0.1160   -0.4860 c3        1 PFS     -0.079400
     31 C22       -12.2700    0.8660   -0.8320 c3        1 PFS     -0.078400
     32 C23       -13.6250    0.1910   -0.8500 c3        1 PFS     -0.079400
     33 C24       -14.7230    1.1730   -1.1960 c3        1 PFS     -0.079400
     34 C25       -16.0790    0.5000   -1.2140 c3        1 PFS     -0.080400
     35 C26       -17.1760    1.4740   -1.5580 c3        1 PFS     -0.092100
     36 H11         3.3170   -2.1810    2.6800 h1        1 PFS      0.047700
     37 H12         3.4790   -2.6390    0.9070 h1        1 PFS      0.047700
     38 H2          4.6640   -0.3500    0.5400 h1        1 PFS      0.104700
     39 HH31        5.0320    3.0980    3.5610 hc        1 PFS      0.074367
     40 HH32        3.4450    2.2510    3.8530 hc        1 PFS      0.074367
     41 HH33        4.9780    1.5560    4.5400 hc        1 PFS      0.074367
     42 H31         6.2150   -1.8980    2.7120 h1        1 PFS      0.061700
     43 H32         5.7270   -2.8270    1.1960 h1        1 PFS      0.061700
     44 H111        1.1230   -2.5000    0.5840 h1        1 PFS      0.027700
     45 H112        0.9140   -2.1050    2.3560 h1        1 PFS      0.027700
     46 H121        0.0010    0.1660    1.7320 hc        1 PFS      0.052200
     47 H122        0.2140   -0.2190   -0.0180 hc        1 PFS      0.052200
     48 H311        7.5480   -0.3780   -2.6640 h1        1 PFS      0.054700
     49 H312        5.7610   -0.3420   -3.0860 h1        1 PFS      0.054700
     50 H321        5.8610    1.8250   -2.5680 hx        1 PFS      0.098700
     51 H322        5.5700    1.1790   -0.8660 hx        1 PFS      0.098700
     52 H1N1        8.3650    1.8590   -3.2030 hx        1 PFS      0.100144
     53 H1N2        9.4670    2.5400   -1.9050 hx        1 PFS      0.100144
     54 H1N3        9.1200    0.7380   -1.9410 hx        1 PFS      0.100144
     55 H2N1        6.2330    3.5750   -0.6100 hx        1 PFS      0.100144
     56 H2N2        7.9980    4.0270   -0.8110 hx        1 PFS      0.100144
     57 H2N3        6.9520    3.7740   -2.2900 hx        1 PFS      0.100144
     58 H3N1        8.1980    0.5080    0.1630 hx        1 PFS      0.100144
     59 H3N2        8.7420    2.2390    0.4840 hx        1 PFS      0.100144
     60 H3N3        7.0010    1.7350    0.8250 hx        1 PFS      0.100144
     61 H131       -1.3530   -2.1840    0.2220 hc        1 PFS      0.040700
     62 H132       -1.5650   -1.8020    1.9740 hc        1 PFS      0.040700
     63 H141       -2.4620    0.4730    1.3690 hc        1 PFS      0.040200
     64 H142       -2.2500    0.0900   -0.3830 hc        1 PFS      0.040200
     65 H151       -3.8060   -1.8760   -0.1420 hc        1 PFS      0.040200
     66 H152       -4.0170   -1.4940    1.6100 hc        1 PFS      0.040200
     67 H161       -4.9150    0.7800    1.0060 hc        1 PFS      0.039200
     68 H162       -4.7040    0.3990   -0.7460 hc        1 PFS      0.039200
     69 H171       -6.2590   -1.5680   -0.5060 hc        1 PFS      0.039700
     70 H172       -6.4710   -1.1870    1.2460 hc        1 PFS      0.039700
     71 H181       -7.3690    1.0880    0.6420 hc        1 PFS      0.039200
     72 H182       -7.1570    0.7070   -1.1090 hc        1 PFS      0.039200
     73 H191       -8.7120   -1.2600   -0.8700 hc        1 PFS      0.039700
     74 H192       -8.9240   -0.8790    0.8820 hc        1 PFS      0.039700
     75 H201       -9.8220    1.3950    0.2790 hc        1 PFS      0.039200
     76 H202       -9.6100    1.0140   -1.4730 hc        1 PFS      0.039200
     77 H211      -11.1650   -0.9530   -1.2340 hc        1 PFS      0.039700
     78 H212      -11.3770   -0.5720    0.5180 hc        1 PFS      0.039700
     79 H221      -12.2760    1.7020   -0.0850 hc        1 PFS      0.039700
     80 H222      -12.0640    1.3220   -1.8360 hc        1 PFS      0.039700
     81 H231      -13.6190   -0.6450   -1.5970 hc        1 PFS      0.039700
     82 H232      -13.8310   -0.2650    0.1540 hc        1 PFS      0.039700
     83 H241      -14.7300    2.0100   -0.4480 hc        1 PFS      0.039700
     84 H242      -14.5180    1.6290   -2.2000 hc        1 PFS      0.039700
     85 H251      -16.0700   -0.3380   -1.9610 hc        1 PFS      0.038700
     86 H252      -16.2820    0.0430   -0.2090 hc        1 PFS      0.038700
     87 H261      -18.1660    0.9570   -1.5650 hc        1 PFS      0.032700
     88 H262      -17.2170    2.3020   -0.8100 hc        1 PFS      0.032700
     89 H263      -17.0040    1.9210   -2.5660 hc        1 PFS      0.032700
@<TRIPOS>BOND
     1    1    2 1   
     2    1    3 1   
     3    1   36 1   
     4    1   37 1   
     5    2    9 1   
     6    3    4 1   
     7    3    8 1   
     8    3   38 1   
     9    4    5 1   
    10    5    6 2   
    11    5    7 1   
    12    7   39 1   
    13    7   40 1   
    14    7   41 1   
    15    8   11 1   
    16    8   42 1   
    17    8   43 1   
    18    9   10 1   
    19    9   44 1   
    20    9   45 1   
    21   10   22 1   
    22   10   46 1   
    23   10   47 1   
    24   11   12 1   
    25   12   13 1   
    26   12   14 1   
    27   12   15 1   
    28   15   16 1   
    29   16   17 1   
    30   16   48 1   
    31   16   49 1   
    32   17   18 1   
    33   17   50 1   
    34   17   51 1   
    35   18   19 1   
    36   18   20 1   
    37   18   21 1   
    38   19   52 1   
    39   19   53 1   
    40   19   54 1   
    41   20   55 1   
    42   20   56 1   
    43   20   57 1   
    44   21   58 1   
    45   21   59 1   
    46   21   60 1   
    47   22   23 1   
    48   22   61 1   
    49   22   62 1   
    50   23   24 1   
    51   23   63 1   
    52   23   64 1   
    53   24   25 1   
    54   24   65 1   
    55   24   66 1   
    56   25   26 1   
    57   25   67 1   
    58   25   68 1   
    59   26   27 1   
    60   26   69 1   
    61   26   70 1   
    62   27   28 1   
    63   27   71 1   
    64   27   72 1   
    65   28   29 1   
    66   28   73 1   
    67   28   74 1   
    68   29   30 1   
    69   29   75 1   
    70   29   76 1   
    71   30   31 1   
    72   30   77 1   
    73   30   78 1   
    74   31   32 1   
    75   31   79 1   
    76   31   80 1   
    77   32   33 1   
    78   32   81 1   
    79   32   82 1   
    80   33   34 1   
    81   33   83 1   
    82   33   84 1   
    83   34   35 1   
    84   34   85 1   
    85   34   86 1   
    86   35   87 1   
    87   35   88 1   
    88   35   89 1   
@<TRIPOS>SUBSTRUCTURE
     1 PFS         1 TEMP              0 ****  ****    0 ROOT
