@<TRIPOS>MOLECULE
PFS
   89    88     1     0     0
SMALL
bcc


@<TRIPOS>ATOM
      1 C1          0.2900   -1.4230    0.6600 c3        1 PFS      0.117400
      2 O1         -0.1130   -0.1480    1.1550 os        1 PFS     -0.429600
      3 C2          1.8170   -1.4680    0.7470 c3        1 PFS      0.113100
      4 OXT         2.1430   -1.5840    2.1480 os        1 PFS     -0.422900
      5 C           2.9420   -0.6540    2.7280 c         1 PFS      0.665100
      6 O2          3.5000    0.2150    2.0430 o         1 PFS     -0.609000
      7 CH3         3.0490   -0.8370    4.2050 c3        1 PFS     -0.154100
      8 C3          2.3480   -2.7300    0.0370 c3        1 PFS      0.170400
      9 C11        -1.5240    0.0410    1.0550 c3        1 PFS      0.131400
     10 C12        -1.8170    1.4250    1.6080 c3        1 PFS     -0.082400
     11 O3          3.6510   -2.5410   -0.4210 os        1 PFS     -0.582200
     12 P           3.8550   -2.3210   -2.0430 p5        1 PFS      1.433800
     13 O31         5.3190   -2.2020   -2.2340 o         1 PFS     -0.810500
     14 O32         2.8570   -3.0980   -2.7800 o         1 PFS     -0.810500
     15 O33         3.3590   -0.7330   -1.9540 os        1 PFS     -0.570200
     16 C31         4.2650    0.2650   -2.2530 c3        1 PFS      0.197400
     17 C32         4.8050    0.9390   -0.9730 c3        1 PFS      0.074800
     18 N           6.1480    0.4910   -0.4490 n4        1 PFS     -0.576800
     19 C1N         7.1270    0.2840   -1.5540 c3        1 PFS      0.074767
     20 C2N         6.6500    1.5630    0.4630 c3        1 PFS      0.074767
     21 C3N         6.0390   -0.7710    0.3420 c3        1 PFS      0.074767
     22 C13        -3.3000    1.7180    1.5380 c3        1 PFS     -0.079400
     23 C14        -3.6100    3.0940    2.0880 c3        1 PFS     -0.077400
     24 C15        -5.0930    3.3900    2.0210 c3        1 PFS     -0.079400
     25 C16        -5.4030    4.7660    2.5710 c3        1 PFS     -0.078400
     26 C17        -6.8860    5.0620    2.5040 c3        1 PFS     -0.079400
     27 C18        -7.1970    6.4370    3.0550 c3        1 PFS     -0.078400
     28 C19        -8.6800    6.7330    2.9890 c3        1 PFS     -0.079400
     29 C20        -8.9910    8.1080    3.5390 c3        1 PFS     -0.078400
     30 C21       -10.4740    8.4040    3.4740 c3        1 PFS     -0.079400
     31 C22       -10.7850    9.7790    4.0240 c3        1 PFS     -0.078400
     32 C23       -12.2680   10.0750    3.9590 c3        1 PFS     -0.079400
     33 C24       -12.5800   11.4500    4.5090 c3        1 PFS     -0.079400
     34 C25       -14.0630   11.7460    4.4440 c3        1 PFS     -0.080400
     35 C26       -14.3780   13.1150    4.9910 c3        1 PFS     -0.092100
     36 H11        -0.1690   -2.2330    1.2840 h1        1 PFS      0.047700
     37 H12        -0.0280   -1.5350   -0.4110 h1        1 PFS      0.047700
     38 H2          2.2610   -0.5300    0.3150 h1        1 PFS      0.104700
     39 HH31        2.2050   -0.2890    4.6940 hc        1 PFS      0.074367
     40 HH32        4.0190   -0.4170    4.5640 hc        1 PFS      0.074367
     41 HH33        2.9810   -1.9190    4.4730 hc        1 PFS      0.074367
     42 H31         2.3620   -3.5790    0.7770 h1        1 PFS      0.061700
     43 H32         1.6730   -2.9880   -0.8280 h1        1 PFS      0.061700
     44 H111       -2.0530   -0.7510    1.6500 h1        1 PFS      0.027700
     45 H112       -1.8400   -0.0390   -0.0190 h1        1 PFS      0.027700
     46 H121       -1.4590    1.4840    2.6680 hc        1 PFS      0.052200
     47 H122       -1.2430    2.1870    1.0200 hc        1 PFS      0.052200
     48 H311        5.0860   -0.1230   -2.9150 h1        1 PFS      0.054700
     49 H312        3.6990    1.0770   -2.7990 h1        1 PFS      0.054700
     50 H321        4.9000    2.0410   -1.1850 hx        1 PFS      0.098700
     51 H322        4.0540    0.7780   -0.1410 hx        1 PFS      0.098700
     52 H1N1        8.1580    0.2150   -1.1210 hx        1 PFS      0.100144
     53 H1N2        6.8850   -0.6860   -2.0890 hx        1 PFS      0.100144
     54 H1N3        7.0680    1.1450   -2.2660 hx        1 PFS      0.100144
     55 H2N1        5.8810    1.7480    1.2610 hx        1 PFS      0.100144
     56 H2N2        7.6110    1.2320    0.9370 hx        1 PFS      0.100144
     57 H2N3        6.8290    2.5030   -0.1210 hx        1 PFS      0.100144
     58 H3N1        7.0450   -1.0220    0.7640 hx        1 PFS      0.100144
     59 H3N2        5.2880   -0.6340    1.1630 hx        1 PFS      0.100144
     60 H3N3        5.6920   -1.6080   -0.3410 hx        1 PFS      0.100144
     61 H131       -3.6490    1.6510    0.4740 hc        1 PFS      0.040700
     62 H132       -3.8660    0.9440    2.1220 hc        1 PFS      0.040700
     63 H141       -3.0440    3.8670    1.5040 hc        1 PFS      0.040200
     64 H142       -3.2600    3.1610    3.1520 hc        1 PFS      0.040200
     65 H151       -5.4420    3.3230    0.9570 hc        1 PFS      0.040200
     66 H152       -5.6580    2.6160    2.6030 hc        1 PFS      0.040200
     67 H161       -4.8380    5.5400    1.9870 hc        1 PFS      0.039200
     68 H162       -5.0530    4.8330    3.6340 hc        1 PFS      0.039200
     69 H171       -7.2360    4.9940    1.4400 hc        1 PFS      0.039700
     70 H172       -7.4510    4.2870    3.0870 hc        1 PFS      0.039700
     71 H181       -6.6330    7.2120    2.4710 hc        1 PFS      0.039200
     72 H182       -6.8470    6.5050    4.1180 hc        1 PFS      0.039200
     73 H191       -9.0300    6.6660    1.9250 hc        1 PFS      0.039700
     74 H192       -9.2440    5.9580    3.5720 hc        1 PFS      0.039700
     75 H201       -8.6410    8.1760    4.6030 hc        1 PFS      0.039200
     76 H202       -8.4270    8.8830    2.9560 hc        1 PFS      0.039200
     77 H211      -10.8240    8.3370    2.4100 hc        1 PFS      0.039700
     78 H212      -11.0380    7.6290    4.0560 hc        1 PFS      0.039700
     79 H221      -10.4350    9.8460    5.0880 hc        1 PFS      0.039700
     80 H222      -10.2210   10.5540    3.4410 hc        1 PFS      0.039700
     81 H231      -12.6180   10.0070    2.8950 hc        1 PFS      0.039700
     82 H232      -12.8320    9.3000    4.5420 hc        1 PFS      0.039700
     83 H241      -12.0160   12.2250    3.9260 hc        1 PFS      0.039700
     84 H242      -12.2300   11.5170    5.5730 hc        1 PFS      0.039700
     85 H251      -14.6250   10.9690    5.0270 hc        1 PFS      0.038700
     86 H252      -14.4120   11.6760    3.3800 hc        1 PFS      0.038700
     87 H261      -14.0600   13.1960    6.0590 hc        1 PFS      0.032700
     88 H262      -15.4750   13.3130    4.9340 hc        1 PFS      0.032700
     89 H263      -13.8460   13.9050    4.4070 hc        1 PFS      0.032700
@<TRIPOS>BOND
     1    1    2 1   
     2    1    3 1   
     3    1   36 1   
     4    1   37 1   
     5    2    9 1   
     6    3    4 1   
     7    3    8 1   
     8    3   38 1   
     9    4    5 1   
    10    5    6 2   
    11    5    7 1   
    12    7   39 1   
    13    7   40 1   
    14    7   41 1   
    15    8   11 1   
    16    8   42 1   
    17    8   43 1   
    18    9   10 1   
    19    9   44 1   
    20    9   45 1   
    21   10   22 1   
    22   10   46 1   
    23   10   47 1   
    24   11   12 1   
    25   12   13 1   
    26   12   14 1   
    27   12   15 1   
    28   15   16 1   
    29   16   17 1   
    30   16   48 1   
    31   16   49 1   
    32   17   18 1   
    33   17   50 1   
    34   17   51 1   
    35   18   19 1   
    36   18   20 1   
    37   18   21 1   
    38   19   52 1   
    39   19   53 1   
    40   19   54 1   
    41   20   55 1   
    42   20   56 1   
    43   20   57 1   
    44   21   58 1   
    45   21   59 1   
    46   21   60 1   
    47   22   23 1   
    48   22   61 1   
    49   22   62 1   
    50   23   24 1   
    51   23   63 1   
    52   23   64 1   
    53   24   25 1   
    54   24   65 1   
    55   24   66 1   
    56   25   26 1   
    57   25   67 1   
    58   25   68 1   
    59   26   27 1   
    60   26   69 1   
    61   26   70 1   
    62   27   28 1   
    63   27   71 1   
    64   27   72 1   
    65   28   29 1   
    66   28   73 1   
    67   28   74 1   
    68   29   30 1   
    69   29   75 1   
    70   29   76 1   
    71   30   31 1   
    72   30   77 1   
    73   30   78 1   
    74   31   32 1   
    75   31   79 1   
    76   31   80 1   
    77   32   33 1   
    78   32   81 1   
    79   32   82 1   
    80   33   34 1   
    81   33   83 1   
    82   33   84 1   
    83   34   35 1   
    84   34   85 1   
    85   34   86 1   
    86   35   87 1   
    87   35   88 1   
    88   35   89 1   
@<TRIPOS>SUBSTRUCTURE
     1 PFS         1 TEMP              0 ****  ****    0 ROOT
