@<TRIPOS>MOLECULE
PFS
   89    88     1     0     0
SMALL
bcc


@<TRIPOS>ATOM
      1 C1          0.2600   -1.4230    0.5760 c3        1 PFS      0.117400
      2 O1         -0.1410   -0.1600    1.1030 os        1 PFS     -0.429600
      3 C2          1.7840   -1.4880    0.6950 c3        1 PFS      0.113100
      4 OXT         2.0770   -1.6530    2.0980 os        1 PFS     -0.422900
      5 C           2.8730   -0.7530    2.7260 c         1 PFS      0.665100
      6 O2          3.4550    0.1320    2.0840 o         1 PFS     -0.609000
      7 CH3         2.9450   -0.9850    4.1990 c3        1 PFS     -0.154100
      8 C3          2.3170   -2.7320   -0.0440 c3        1 PFS      0.170400
      9 C11        -1.5470    0.0490    0.9770 c3        1 PFS      0.131400
     10 C12        -1.8380    1.4170    1.5680 c3        1 PFS     -0.082400
     11 O3          3.6320   -2.5430   -0.4660 os        1 PFS     -0.582200
     12 P           3.8750   -2.2720   -2.0760 p5        1 PFS      1.433800
     13 O31         5.3440   -2.1630   -2.2300 o         1 PFS     -0.810500
     14 O32         2.8860   -3.0130   -2.8600 o         1 PFS     -0.810500
     15 O33         3.3940   -0.6810   -1.9450 os        1 PFS     -0.570200
     16 C31         4.3170    0.3140   -2.1900 c3        1 PFS      0.197400
     17 C32         4.8360    0.9400   -0.8770 c3        1 PFS      0.074800
     18 N           6.1620    0.4600   -0.3380 n4        1 PFS     -0.576800
     19 C1N         7.1620    0.2780   -1.4280 c3        1 PFS      0.074767
     20 C2N         6.6550    1.4950    0.6190 c3        1 PFS      0.074767
     21 C3N         6.0210   -0.8270    0.4070 c3        1 PFS      0.074767
     22 C13        -3.3140    1.7300    1.4730 c3        1 PFS     -0.079400
     23 C14        -3.6220    3.0910    2.0590 c3        1 PFS     -0.077400
     24 C15        -5.0990    3.4090    1.9660 c3        1 PFS     -0.079400
     25 C16        -5.4070    4.7690    2.5520 c3        1 PFS     -0.078400
     26 C17        -6.8840    5.0870    2.4590 c3        1 PFS     -0.079400
     27 C18        -7.1920    6.4470    3.0460 c3        1 PFS     -0.078400
     28 C19        -8.6690    6.7640    2.9520 c3        1 PFS     -0.079400
     29 C20        -8.9770    8.1250    3.5390 c3        1 PFS     -0.078400
     30 C21       -10.4550    8.4420    3.4460 c3        1 PFS     -0.079400
     31 C22       -10.7630    9.8030    4.0330 c3        1 PFS     -0.078400
     32 C23       -12.2400   10.1190    3.9400 c3        1 PFS     -0.079400
     33 C24       -12.5490   11.4800    4.5270 c3        1 PFS     -0.079400
     34 C25       -14.0260   11.7980    4.4340 c3        1 PFS     -0.080400
     35 C26       -14.3380   13.1520    5.0180 c3        1 PFS     -0.092100
     36 H11        -0.0350   -1.4970   -0.5050 h1        1 PFS      0.047700
     37 H12        -0.2220   -2.2480    1.1630 h1        1 PFS      0.047700
     38 H2          2.2470   -0.5410    0.3050 h1        1 PFS      0.104700
     39 HH31        2.8590   -2.0740    4.4290 hc        1 PFS      0.074367
     40 HH32        3.9100   -0.5880    4.5930 hc        1 PFS      0.074367
     41 HH33        2.0950   -0.4450    4.6860 hc        1 PFS      0.074367
     42 H31         1.6590   -2.9540   -0.9320 h1        1 PFS      0.061700
     43 H32         2.3060   -3.6050    0.6670 h1        1 PFS      0.061700
     44 H111       -2.0980   -0.7560    1.5340 h1        1 PFS      0.027700
     45 H112       -1.8380    0.0070   -0.1060 h1        1 PFS      0.027700
     46 H121       -1.5050    1.4380    2.6380 hc        1 PFS      0.052200
     47 H122       -1.2400    2.1910    1.0200 hc        1 PFS      0.052200
     48 H311        3.7730    1.1510   -2.7220 h1        1 PFS      0.054700
     49 H312        5.1490   -0.0610   -2.8470 h1        1 PFS      0.054700
     50 H321        4.9470    2.0470   -1.0510 hx        1 PFS      0.098700
     51 H322        4.0650    0.7600   -0.0680 hx        1 PFS      0.098700
     52 H1N1        7.1300    1.1630   -2.1120 hx        1 PFS      0.100144
     53 H1N2        6.9230   -0.6710   -2.0000 hx        1 PFS      0.100144
     54 H1N3        8.1830    0.1830   -0.9750 hx        1 PFS      0.100144
     55 H2N1        5.8700    1.6620    1.4060 hx        1 PFS      0.100144
     56 H2N2        7.6000    1.1370    1.1030 hx        1 PFS      0.100144
     57 H2N3        6.8560    2.4510    0.0710 hx        1 PFS      0.100144
     58 H3N1        5.6810   -1.6360   -0.3110 hx        1 PFS      0.100144
     59 H3N2        5.2530   -0.7080    1.2160 hx        1 PFS      0.100144
     60 H3N3        7.0150   -1.1030    0.8430 hx        1 PFS      0.100144
     61 H131       -3.6380    1.7020    0.3990 hc        1 PFS      0.040700
     62 H132       -3.9030    0.9450    2.0170 hc        1 PFS      0.040700
     63 H141       -3.0330    3.8770    1.5150 hc        1 PFS      0.040200
     64 H142       -3.2980    3.1200    3.1330 hc        1 PFS      0.040200
     65 H151       -5.4220    3.3800    0.8920 hc        1 PFS      0.040200
     66 H152       -5.6880    2.6230    2.5090 hc        1 PFS      0.040200
     67 H161       -4.8180    5.5550    2.0090 hc        1 PFS      0.039200
     68 H162       -5.0830    4.7980    3.6260 hc        1 PFS      0.039200
     69 H171       -7.2070    5.0580    1.3850 hc        1 PFS      0.039700
     70 H172       -7.4720    4.3010    3.0020 hc        1 PFS      0.039700
     71 H181       -6.8690    6.4760    4.1200 hc        1 PFS      0.039200
     72 H182       -6.6040    7.2330    2.5030 hc        1 PFS      0.039200
     73 H191       -8.9930    6.7360    1.8780 hc        1 PFS      0.039700
     74 H192       -9.2580    5.9780    3.4950 hc        1 PFS      0.039700
     75 H201       -8.6540    8.1530    4.6130 hc        1 PFS      0.039200
     76 H202       -8.3890    8.9110    2.9960 hc        1 PFS      0.039200
     77 H211      -10.7780    8.4140    2.3720 hc        1 PFS      0.039700
     78 H212      -11.0430    7.6560    3.9890 hc        1 PFS      0.039700
     79 H221      -10.1750   10.5890    3.4900 hc        1 PFS      0.039700
     80 H222      -10.4400    9.8310    5.1070 hc        1 PFS      0.039700
     81 H231      -12.5640   10.0910    2.8660 hc        1 PFS      0.039700
     82 H232      -12.8290    9.3330    4.4830 hc        1 PFS      0.039700
     83 H241      -11.9610   12.2660    3.9840 hc        1 PFS      0.039700
     84 H242      -12.2250   11.5090    5.6010 hc        1 PFS      0.039700
     85 H251      -14.3480   11.7670    3.3600 hc        1 PFS      0.038700
     86 H252      -14.6130   11.0100    4.9760 hc        1 PFS      0.038700
     87 H261      -14.0470   13.1940    6.0950 hc        1 PFS      0.032700
     88 H262      -15.4310   13.3660    4.9390 hc        1 PFS      0.032700
     89 H263      -13.7820   13.9530    4.4740 hc        1 PFS      0.032700
@<TRIPOS>BOND
     1    1    2 1   
     2    1    3 1   
     3    1   36 1   
     4    1   37 1   
     5    2    9 1   
     6    3    4 1   
     7    3    8 1   
     8    3   38 1   
     9    4    5 1   
    10    5    6 2   
    11    5    7 1   
    12    7   39 1   
    13    7   40 1   
    14    7   41 1   
    15    8   11 1   
    16    8   42 1   
    17    8   43 1   
    18    9   10 1   
    19    9   44 1   
    20    9   45 1   
    21   10   22 1   
    22   10   46 1   
    23   10   47 1   
    24   11   12 1   
    25   12   13 1   
    26   12   14 1   
    27   12   15 1   
    28   15   16 1   
    29   16   17 1   
    30   16   48 1   
    31   16   49 1   
    32   17   18 1   
    33   17   50 1   
    34   17   51 1   
    35   18   19 1   
    36   18   20 1   
    37   18   21 1   
    38   19   52 1   
    39   19   53 1   
    40   19   54 1   
    41   20   55 1   
    42   20   56 1   
    43   20   57 1   
    44   21   58 1   
    45   21   59 1   
    46   21   60 1   
    47   22   23 1   
    48   22   61 1   
    49   22   62 1   
    50   23   24 1   
    51   23   63 1   
    52   23   64 1   
    53   24   25 1   
    54   24   65 1   
    55   24   66 1   
    56   25   26 1   
    57   25   67 1   
    58   25   68 1   
    59   26   27 1   
    60   26   69 1   
    61   26   70 1   
    62   27   28 1   
    63   27   71 1   
    64   27   72 1   
    65   28   29 1   
    66   28   73 1   
    67   28   74 1   
    68   29   30 1   
    69   29   75 1   
    70   29   76 1   
    71   30   31 1   
    72   30   77 1   
    73   30   78 1   
    74   31   32 1   
    75   31   79 1   
    76   31   80 1   
    77   32   33 1   
    78   32   81 1   
    79   32   82 1   
    80   33   34 1   
    81   33   83 1   
    82   33   84 1   
    83   34   35 1   
    84   34   85 1   
    85   34   86 1   
    86   35   87 1   
    87   35   88 1   
    88   35   89 1   
@<TRIPOS>SUBSTRUCTURE
     1 PFS         1 TEMP              0 ****  ****    0 ROOT
