@<TRIPOS>MOLECULE
PFT
   32    34     1     0     0
SMALL
bcc


@<TRIPOS>ATOM
      1 N1          0.0550    0.0010   -0.0850 n         1 PFT     -0.457800
      2 C2         -0.8140    0.5850   -0.9880 c         1 PFT      0.690700
      3 C3          1.4620    0.4110   -0.0300 c3        1 PFT      0.135800
      4 C4         -0.3650   -0.5960    1.1810 c3        1 PFT      0.135800
      5 C5         -2.2720    0.3010   -0.8800 ca        1 PFT     -0.199600
      6 O6         -0.3710    1.3280   -1.8880 o         1 PFT     -0.605100
      7 C7          1.9140    0.0860    1.3690 ca        1 PFT     -0.103800
      8 C8          0.8400   -0.5070    2.0810 ca        1 PFT     -0.103800
      9 C9         -2.8140   -0.9980   -0.8810 ca        1 PFT      0.191100
     10 C10        -3.1450    1.3950   -0.8520 ca        1 PFT     -0.017000
     11 C11         3.1410    0.2790    1.9730 ca        1 PFT     -0.108500
     12 C12         0.9960   -0.9050    3.3950 ca        1 PFT     -0.108500
     13 C13        -4.2010   -1.2030   -0.8360 ca        1 PFT     -0.258000
     14 O14        -1.9420   -2.0580   -0.9240 oh        1 PFT     -0.486100
     15 C15        -4.5220    1.2180   -0.7970 ca        1 PFT     -0.254000
     16 C16         3.2970   -0.1260    3.3080 ca        1 PFT     -0.128000
     17 C17         2.2440   -0.7070    4.0060 ca        1 PFT     -0.128000
     18 C18        -5.0440   -0.0860   -0.7900 ca        1 PFT      0.180100
     19 O19        -6.3920   -0.3430   -0.7380 oh        1 PFT     -0.492100
     20 H3          2.0440   -0.1740   -0.7940 h1        1 PFT      0.067450
     21 H2          1.5690    1.5060   -0.2650 h1        1 PFT      0.067450
     22 H4         -0.6620   -1.6680    1.0010 h1        1 PFT      0.067450
     23 H41        -1.2450   -0.0500    1.6190 h1        1 PFT      0.067450
     24 H10        -2.7220    2.4130   -0.8860 ha        1 PFT      0.155000
     25 H11         3.9790    0.7370    1.4280 ha        1 PFT      0.137500
     26 H12         0.1690   -1.3660    3.9540 ha        1 PFT      0.137500
     27 H13        -4.6280   -2.2150   -0.8420 ha        1 PFT      0.156000
     28 HO14       -2.4600   -2.8710   -1.0270 ho        1 PFT      0.426000
     29 H15        -5.1950    2.0850   -0.7690 ha        1 PFT      0.142000
     30 H16         4.2680    0.0210    3.8040 ha        1 PFT      0.133000
     31 H17         2.3850   -1.0180    5.0520 ha        1 PFT      0.133000
     32 HO19       -6.8600    0.5050   -0.7340 ho        1 PFT      0.426000
@<TRIPOS>BOND
     1    1    2 1   
     2    1    3 1   
     3    1    4 1   
     4    2    5 1   
     5    2    6 2   
     6    3    7 1   
     7    3   20 1   
     8    3   21 1   
     9    4    8 1   
    10    4   22 1   
    11    4   23 1   
    12    5    9 ar  
    13    5   10 ar  
    14    7    8 ar  
    15    7   11 ar  
    16    8   12 ar  
    17    9   13 ar  
    18    9   14 1   
    19   10   15 ar  
    20   10   24 1   
    21   11   16 ar  
    22   11   25 1   
    23   12   17 ar  
    24   12   26 1   
    25   13   18 ar  
    26   13   27 1   
    27   14   28 1   
    28   15   18 ar  
    29   15   29 1   
    30   16   17 ar  
    31   16   30 1   
    32   17   31 1   
    33   18   19 1   
    34   19   32 1   
@<TRIPOS>SUBSTRUCTURE
     1 PFT         1 TEMP              0 ****  ****    0 ROOT
