@<TRIPOS>MOLECULE
PFT
   32    34     1     0     0
SMALL
bcc


@<TRIPOS>ATOM
      1 N1          0.7950    0.6010    0.7030 n         1 PFT     -0.440800
      2 C2         -0.4180    1.1750    0.3290 c         1 PFT      0.675700
      3 C3          2.0130    1.4280    0.6490 c3        1 PFT      0.120300
      4 C4          1.1200   -0.7900    0.3660 c3        1 PFT      0.120300
      5 C5         -1.6200    0.3190    0.1810 ca        1 PFT     -0.266600
      6 O6         -0.4930    2.4170    0.1800 o         1 PFT     -0.627100
      7 C7          3.1040    0.5150    0.1580 ca        1 PFT     -0.108300
      8 C8          2.5770   -0.7900   -0.0150 ca        1 PFT     -0.108300
      9 C9         -2.5930    0.6260   -0.7940 ca        1 PFT      0.231100
     10 C10        -1.8430   -0.7720    1.0360 ca        1 PFT     -0.031000
     11 C11         4.4310    0.7840   -0.1150 ca        1 PFT     -0.105500
     12 C12         3.3770   -1.8240   -0.4620 ca        1 PFT     -0.105500
     13 C13        -3.7330   -0.1860   -0.9490 ca        1 PFT     -0.268000
     14 O14        -2.5140    1.6740   -1.6660 oh        1 PFT     -0.502100
     15 C15        -2.9670   -1.5710    0.9120 ca        1 PFT     -0.206000
     16 C16         5.2430   -0.2680   -0.5680 ca        1 PFT     -0.126000
     17 C17         4.7250   -1.5480   -0.7390 ca        1 PFT     -0.126000
     18 C18        -3.9060   -1.2770   -0.0980 ca        1 PFT      0.183100
     19 O19        -4.9900   -2.1130   -0.1840 oh        1 PFT     -0.490100
     20 H3          1.8740    2.3170   -0.0270 h1        1 PFT      0.071450
     21 H2          2.2320    1.8000    1.6880 h1        1 PFT      0.071450
     22 H4          0.9580   -1.4290    1.2800 h1        1 PFT      0.071450
     23 H41         0.4710   -1.1810   -0.4640 h1        1 PFT      0.071450
     24 H10        -1.1180   -0.9920    1.8370 ha        1 PFT      0.146000
     25 H11         4.8480    1.7920    0.0160 ha        1 PFT      0.139000
     26 H12         2.9760   -2.8380   -0.5990 ha        1 PFT      0.139000
     27 H13        -4.4670    0.0620   -1.7280 ha        1 PFT      0.158000
     28 HO14       -1.8150    2.2880   -1.3800 ho        1 PFT      0.460000
     29 H15        -3.1430   -2.4230    1.5830 ha        1 PFT      0.157000
     30 H16         6.3020   -0.0720   -0.7910 ha        1 PFT      0.135000
     31 H17         5.3770   -2.3600   -1.0960 ha        1 PFT      0.135000
     32 HO19       -5.5630   -1.7950   -0.8980 ho        1 PFT      0.427000
@<TRIPOS>BOND
     1    1    2 1   
     2    1    3 1   
     3    1    4 1   
     4    2    5 1   
     5    2    6 2   
     6    3    7 1   
     7    3   20 1   
     8    3   21 1   
     9    4    8 1   
    10    4   22 1   
    11    4   23 1   
    12    5    9 ar  
    13    5   10 ar  
    14    7    8 ar  
    15    7   11 ar  
    16    8   12 ar  
    17    9   13 ar  
    18    9   14 1   
    19   10   15 ar  
    20   10   24 1   
    21   11   16 ar  
    22   11   25 1   
    23   12   17 ar  
    24   12   26 1   
    25   13   18 ar  
    26   13   27 1   
    27   14   28 1   
    28   15   18 ar  
    29   15   29 1   
    30   16   17 ar  
    31   16   30 1   
    32   17   31 1   
    33   18   19 1   
    34   19   32 1   
@<TRIPOS>SUBSTRUCTURE
     1 PFT         1 TEMP              0 ****  ****    0 ROOT
