@<TRIPOS>MOLECULE
PFT
   32    34     1     0     0
SMALL
bcc


@<TRIPOS>ATOM
      1 N1          0.0540   -0.0190   -0.0900 n         1 PFT     -0.457800
      2 C2         -0.8080    0.5810   -0.9890 c         1 PFT      0.690700
      3 C3          1.4700    0.3620   -0.0440 c3        1 PFT      0.135800
      4 C4         -0.3720   -0.6060    1.1790 c3        1 PFT      0.135800
      5 C5         -2.2710    0.3280   -0.8730 ca        1 PFT     -0.199600
      6 O6         -0.3550    1.3140   -1.8930 o         1 PFT     -0.605100
      7 C7          1.9220    0.0300    1.3540 ca        1 PFT     -0.103800
      8 C8          0.8400   -0.5400    2.0730 ca        1 PFT     -0.103800
      9 C9         -2.8390   -0.9600   -0.8690 ca        1 PFT      0.191100
     10 C10        -3.1210    1.4400   -0.8420 ca        1 PFT     -0.017000
     11 C11         3.1560    0.2000    1.9510 ca        1 PFT     -0.108500
     12 C12         0.9940   -0.9390    3.3860 ca        1 PFT     -0.108500
     13 C13        -4.2300   -1.1360   -0.8160 ca        1 PFT     -0.258000
     14 O14        -1.9900   -2.0380   -0.9160 oh        1 PFT     -0.486100
     15 C15        -4.5010    1.2910   -0.7790 ca        1 PFT     -0.254000
     16 C16         3.3100   -0.2060    3.2860 ca        1 PFT     -0.128000
     17 C17         2.2490   -0.7650    3.9910 ca        1 PFT     -0.128000
     18 C18        -5.0500   -0.0020   -0.7670 ca        1 PFT      0.180100
     19 O19        -6.4020   -0.2310   -0.7080 oh        1 PFT     -0.492100
     20 H3          1.5980    1.4540   -0.2810 h1        1 PFT      0.067450
     21 H2          2.0360   -0.2370   -0.8100 h1        1 PFT      0.067450
     22 H4         -0.6910   -1.6720    1.0020 h1        1 PFT      0.067450
     23 H41        -1.2380   -0.0410    1.6200 h1        1 PFT      0.067450
     24 H10        -2.6760    2.4490   -0.8790 ha        1 PFT      0.155000
     25 H11         4.0000    0.6390    1.4010 ha        1 PFT      0.137500
     26 H12         0.1620   -1.3810    3.9500 ha        1 PFT      0.137500
     27 H13        -4.6780   -2.1390   -0.8180 ha        1 PFT      0.156000
     28 HO14       -2.5250   -2.8400   -1.0140 ho        1 PFT      0.426000
     29 H15        -5.1550    2.1720   -0.7490 ha        1 PFT      0.142000
     30 H16         4.2870   -0.0780    3.7770 ha        1 PFT      0.133000
     31 H17         2.3900   -1.0770    5.0360 ha        1 PFT      0.133000
     32 HO19       -6.8520    0.6270   -0.7030 ho        1 PFT      0.426000
@<TRIPOS>BOND
     1    1    2 1   
     2    1    3 1   
     3    1    4 1   
     4    2    5 1   
     5    2    6 2   
     6    3    7 1   
     7    3   20 1   
     8    3   21 1   
     9    4    8 1   
    10    4   22 1   
    11    4   23 1   
    12    5    9 ar  
    13    5   10 ar  
    14    7    8 ar  
    15    7   11 ar  
    16    8   12 ar  
    17    9   13 ar  
    18    9   14 1   
    19   10   15 ar  
    20   10   24 1   
    21   11   16 ar  
    22   11   25 1   
    23   12   17 ar  
    24   12   26 1   
    25   13   18 ar  
    26   13   27 1   
    27   14   28 1   
    28   15   18 ar  
    29   15   29 1   
    30   16   17 ar  
    31   16   30 1   
    32   17   31 1   
    33   18   19 1   
    34   19   32 1   
@<TRIPOS>SUBSTRUCTURE
     1 PFT         1 TEMP              0 ****  ****    0 ROOT
