@<TRIPOS>MOLECULE
PFT
   32    34     1     0     0
SMALL
bcc


@<TRIPOS>ATOM
      1 N1          0.0550   -0.0090   -0.0870 n         1 PFT     -0.457800
      2 C2         -0.8100    0.5830   -0.9880 c         1 PFT      0.690700
      3 C3          1.4660    0.3860   -0.0360 c3        1 PFT      0.136300
      4 C4         -0.3690   -0.6000    1.1810 c3        1 PFT      0.136300
      5 C5         -2.2710    0.3140   -0.8770 ca        1 PFT     -0.199600
      6 O6         -0.3610    1.3200   -1.8910 o         1 PFT     -0.605100
      7 C7          1.9180    0.0580    1.3630 ca        1 PFT     -0.103800
      8 C8          0.8390   -0.5230    2.0780 ca        1 PFT     -0.103800
      9 C9         -2.8260   -0.9800   -0.8760 ca        1 PFT      0.191100
     10 C10        -3.1320    1.4180   -0.8490 ca        1 PFT     -0.017000
     11 C11         3.1480    0.2380    1.9630 ca        1 PFT     -0.108500
     12 C12         0.9940   -0.9210    3.3920 ca        1 PFT     -0.108500
     13 C13        -4.2150   -1.1700   -0.8270 ca        1 PFT     -0.258000
     14 O14        -1.9650   -2.0480   -0.9190 oh        1 PFT     -0.486100
     15 C15        -4.5110    1.2540   -0.7910 ca        1 PFT     -0.254000
     16 C16         3.3030   -0.1670    3.2980 ca        1 PFT     -0.128000
     17 C17         2.2450   -0.7360    4.0000 ca        1 PFT     -0.128000
     18 C18        -5.0470   -0.0440   -0.7810 ca        1 PFT      0.180100
     19 O19        -6.3970   -0.2870   -0.7260 oh        1 PFT     -0.492100
     20 H3          2.0400   -0.2060   -0.8010 h1        1 PFT      0.067450
     21 H2          1.5850    1.4800   -0.2720 h1        1 PFT      0.067450
     22 H4         -0.6770   -1.6690    1.0030 h1        1 PFT      0.067450
     23 H41        -1.2420   -0.0430    1.6200 h1        1 PFT      0.067450
     24 H10        -2.6980    2.4310   -0.8850 ha        1 PFT      0.155000
     25 H11         3.9900    0.6870    1.4160 ha        1 PFT      0.137500
     26 H12         0.1640   -1.3720    3.9530 ha        1 PFT      0.137500
     27 H13        -4.6530   -2.1770   -0.8310 ha        1 PFT      0.156000
     28 HO14       -2.4920   -2.8560   -1.0190 ho        1 PFT      0.426000
     29 H15        -5.1750    2.1290   -0.7630 ha        1 PFT      0.142000
     30 H16         4.2770   -0.0300    3.7920 ha        1 PFT      0.133000
     31 H17         2.3860   -1.0480    5.0460 ha        1 PFT      0.133000
     32 HO19       -6.8560    0.5660   -0.7220 ho        1 PFT      0.426000
@<TRIPOS>BOND
     1    1    2 1   
     2    1    3 1   
     3    1    4 1   
     4    2    5 1   
     5    2    6 2   
     6    3    7 1   
     7    3   20 1   
     8    3   21 1   
     9    4    8 1   
    10    4   22 1   
    11    4   23 1   
    12    5    9 ar  
    13    5   10 ar  
    14    7    8 ar  
    15    7   11 ar  
    16    8   12 ar  
    17    9   13 ar  
    18    9   14 1   
    19   10   15 ar  
    20   10   24 1   
    21   11   16 ar  
    22   11   25 1   
    23   12   17 ar  
    24   12   26 1   
    25   13   18 ar  
    26   13   27 1   
    27   14   28 1   
    28   15   18 ar  
    29   15   29 1   
    30   16   17 ar  
    31   16   30 1   
    32   17   31 1   
    33   18   19 1   
    34   19   32 1   
@<TRIPOS>SUBSTRUCTURE
     1 PFT         1 TEMP              0 ****  ****    0 ROOT
