@<TRIPOS>MOLECULE
PFU
   34    31     1     0     0
SMALL
bcc


@<TRIPOS>ATOM
      1 P           3.4220   -2.3900   -0.3910 p3        1 PFU      2.522000
      2 C1         -1.1150    0.4870    0.1050 c1        1 PFU     -0.190500
      3 N1         -1.4070   -0.3420    2.1280 n2        1 PFU     -0.078500
      4 O1         -3.1570   -0.3810   -0.9710 oh        1 PFU     -0.206000
      5 C2         -2.2700   -0.2420    0.1050 c2        1 PFU      0.102000
      6 N2         -0.5830    0.4270    1.3510 n2        1 PFU     -0.078500
      7 O2         -4.4320   -1.9580    0.8720 o         1 PFU     -0.427000
      8 C3         -2.4450   -0.7530    1.3600 c1        1 PFU     -0.190500
      9 N3         -3.6890   -2.2400    3.0140 n3        1 PFU     -0.426000
     10 C4         -3.5800   -1.7060    1.7010 c1        1 PFU      0.389000
     11 C1'        -0.5990    1.3690   -1.0600 c2        1 PFU      0.068000
     12 O1P         4.8850   -2.6260   -0.6690 o         1 PFU     -1.230500
     13 C2'         0.5090    2.3560   -0.5440 c3        1 PFU      0.003000
     14 O2'         0.2780    3.6140   -1.0140 oh        1 PFU     -0.362000
     15 O2P         3.0910   -2.8680    0.9990 os        1 PFU     -1.242000
     16 C3'         1.8090    1.8240   -1.0870 c3        1 PFU      0.031000
     17 O3'         2.3000    2.6970   -2.1990 oh        1 PFU     -0.444000
     18 O3P         2.5880   -3.1530   -1.3980 o         1 PFU     -1.230500
     19 C4'         1.5170    0.6140   -1.5470 c3        1 PFU     -0.057000
     20 O4'        -0.0200    0.6460   -1.9410 os        1 PFU     -0.286000
     21 C5'         1.7550   -0.4210   -0.4730 c3        1 PFU      0.070000
     22 O5'         3.1040   -0.8360   -0.5090 os        1 PFU     -0.732000
     23 HO1        -2.9710   -1.1280   -1.4150 ho        1 PFU      0.245000
     24 HN3        -3.1710   -1.9070    3.6840 hn        1 PFU      0.215000
     25 HN3A       -4.3020   -2.8990    3.1920 hn        1 PFU      0.215000
     26 H1'        -1.3350    1.8680   -1.4610 h4        1 PFU      0.103000
     27 H2'         0.5290    2.3590    0.4360 h1        1 PFU      0.089000
     28 HO2'        0.1970    4.1770   -0.3280 ho        1 PFU      0.236000
     29 H3'         2.4780    1.7660   -0.3750 h1        1 PFU      0.116000
     30 HO3'        3.1310    2.9640   -2.0230 ho        1 PFU      0.335000
     31 H4'         2.0600    0.4140   -2.3320 h1        1 PFU      0.104000
     32 H5'         1.5540   -0.0320    0.4060 h1        1 PFU      0.050000
     33 H5'A        1.1710   -1.1940   -0.6300 h1        1 PFU      0.050000
     34 HN1        -1.3030   -0.5070    3.0150 DU        1 PFU      0.236000
@<TRIPOS>BOND
     1    1   12 1   
     2    1   18 1   
     3    1   22 1   
     4    2    5 1   
     5    2    6 1   
     6    3    6 1   
     7    3    8 1   
     8    4    5 1   
     9    4   23 1   
    10    5    8 1   
    11    7   10 1   
    12    9   10 1   
    13    9   24 1   
    14    9   25 1   
    15   11   13 1   
    16   11   20 1   
    17   11   26 1   
    18   13   14 1   
    19   13   16 1   
    20   13   27 1   
    21   14   28 1   
    22   16   17 1   
    23   16   19 1   
    24   16   29 1   
    25   17   30 1   
    26   19   20 1   
    27   19   21 1   
    28   19   31 1   
    29   21   22 1   
    30   21   32 1   
    31   21   33 1   
@<TRIPOS>SUBSTRUCTURE
     1 PFU         1 TEMP              0 ****  ****    0 ROOT
