@<TRIPOS>MOLECULE
PFU
   35    42     1     0     0
SMALL
bcc


@<TRIPOS>ATOM
      1 P           0.0000    0.0000    0.0000 p5        1 PFU      0.988500
      2 C1         -2.9250   -6.0550   -0.3280 c2        1 PFU     -0.091000
      3 N1         -3.8170   -6.6800    1.5120 na        1 PFU     -0.376000
      4 C2         -2.8110   -7.4520   -0.2940 c2        1 PFU      0.098000
      5 N2         -3.5250   -5.6740    0.7700 n2        1 PFU      0.403000
      6 O2         -3.1180  -10.1440    0.7740 o         1 PFU     -0.483000
      7 C3         -3.3980   -7.8370    0.9070 c2        1 PFU     -0.201000
      8 N3         -4.1350   -9.4170    2.6100 nz        1 PFU      0.033000
      9 C4         -3.5390   -9.2040    1.4210 c2        1 PFU      0.422000
     10 C1'        -2.4370   -5.1520   -1.4310 DU        1 PFU      0.056000
     11 O1P         1.6100    0.0000    0.0000 o         1 PFU     -0.479500
     12 C2'        -3.6320   -4.6560   -2.2690 DU        1 PFU     -0.389000
     13 O2'        -3.4910   -5.0660   -3.6310 oh        1 PFU     -0.492000
     14 O2P        -0.5370    0.0000    1.5180 o         1 PFU     -0.479500
     15 C3'        -3.5590   -3.1140   -2.1560 DU        1 PFU     -0.307000
     16 O3'        -3.8430   -2.4970   -3.4140 oh        1 PFU     -0.531000
     17 O3P        -0.4930    1.2080   -0.6980 o         1 PFU     -0.479500
     18 C4'        -2.0800   -2.8860   -1.7520 DU        1 PFU     -0.084000
     19 O4'        -1.7990   -3.9930   -0.8680 os        1 PFU     -0.119000
     20 C5'        -1.9210   -1.5540   -1.0170 c3        1 PFU     -0.046000
     21 O5'        -0.5360   -1.3140   -0.7590 os        1 PFU     -0.465000
     22 HO1        -1.3860   -8.2220   -0.8530 ho        1 PFU      0.208000
     23 HN3        -3.4610   -9.1510    1.9200 hn        1 PFU      0.008667
     24 HN3A       -4.9320   -8.8180    2.6960 hn        1 PFU      0.008667
     25 H1'        -2.6060   -5.8460   -0.6160 ha        1 PFU     -0.025000
     26 H2'        -2.6840   -5.1700   -2.1690 DU        1 PFU      0.181000
     27 HO2'       -3.9790   -5.0460   -2.8240 DU        1 PFU      0.335000
     28 H3'        -3.8160   -3.9620   -2.7800 DU        1 PFU      0.386000
     29 HO3'       -4.0180   -2.6130   -2.4940 DU        1 PFU      0.309000
     30 H4'        -2.9700   -2.6120   -2.3050 DU        1 PFU      0.357000
     31 H5'        -1.6790   -2.2390   -1.8210 DU        1 PFU      0.188000
     32 H5'A       -2.3170   -0.7540   -1.6310 h1        1 PFU      0.104000
     33 HN1        -3.5710   -5.7540    1.2230 hn        1 PFU      0.123000
     34 O1         -2.2490   -8.2570   -1.2320 oh        1 PFU     -0.169000
     35 H33        -4.4280  -10.3730    2.6690 hn        1 PFU      0.008667
@<TRIPOS>BOND
     1    1   11 1   
     2    1   14 1   
     3    1   17 1   
     4    1   21 1   
     5    2    4 1   
     6    2    5 1   
     7    2   10 1   
     8    3    5 1   
     9    3    7 1   
    10    3   33 1   
    11    4    7 1   
    12    4   34 1   
    13    6    9 1   
    14    7    9 1   
    15    8    9 1   
    16    8   23 1   
    17    8   24 1   
    18    8   35 1   
    19   10   12 1   
    20   10   19 1   
    21   10   25 1   
    22   10   26 1   
    23   12   13 1   
    24   12   15 1   
    25   12   26 1   
    26   12   27 1   
    27   12   28 1   
    28   13   27 1   
    29   15   16 1   
    30   15   18 1   
    31   15   28 1   
    32   15   29 1   
    33   15   30 1   
    34   16   29 1   
    35   18   19 1   
    36   18   20 1   
    37   18   30 1   
    38   18   31 1   
    39   20   21 1   
    40   20   31 1   
    41   20   32 1   
    42   22   34 1   
@<TRIPOS>SUBSTRUCTURE
     1 PFU         1 TEMP              0 ****  ****    0 ROOT
