@<TRIPOS>MOLECULE
PFU
   34    35     1     0     0
SMALL
bcc


@<TRIPOS>ATOM
      1 P           4.3380   -0.0650    0.9240 p5        1 PFU      1.335900
      2 C1         -2.0060    0.3430   -0.0440 cc        1 PFU      0.326600
      3 N1         -2.9230   -1.1920    1.2310 na        1 PFU     -0.011600
      4 C2         -3.3560    0.1000   -0.5750 cc        1 PFU      0.079800
      5 N2         -1.7990   -0.5010    0.9910 nd        1 PFU     -0.421800
      6 O2         -6.0090   -1.1690   -0.8180 o         1 PFU     -0.669100
      7 C3         -3.9050   -0.9150    0.2290 cd        1 PFU     -0.341900
      8 N3         -5.6760   -2.3800    1.0790 n         1 PFU     -0.670000
      9 C4         -5.2440   -1.4770    0.1310 c         1 PFU      0.718700
     10 C1'        -1.0210    1.3170   -0.6120 c3        1 PFU      0.086800
     11 O1P         3.7070    1.2220    1.4250 o         1 PFU     -0.931833
     12 C2'        -0.4140    2.2450    0.4690 c3        1 PFU      0.114100
     13 O2'        -0.6430    3.5940    0.1080 oh        1 PFU     -0.629800
     14 O2P         5.7460    0.0350    0.4210 o         1 PFU     -0.931833
     15 C3'         1.0760    1.8340    0.5470 c3        1 PFU      0.135100
     16 O3'         1.8710    2.9930    0.4730 oh        1 PFU     -0.691800
     17 O3P         3.9540   -1.2860    1.7080 o         1 PFU     -0.931833
     18 C4'         1.3140    0.9160   -0.6650 c3        1 PFU      0.064100
     19 O4'         0.0260    0.5990   -1.2500 os        1 PFU     -0.431600
     20 C5'         2.0580   -0.3950   -0.3160 c3        1 PFU      0.232400
     21 O5'         3.4030   -0.2540   -0.5310 os        1 PFU     -0.563200
     22 HO1        -4.7900    0.3830   -1.7640 ho        1 PFU      0.446000
     23 HN3        -6.6160   -2.6860    1.0420 hn        1 PFU      0.303500
     24 HN3A       -5.1820   -2.5000    1.9250 hn        1 PFU      0.303500
     25 H1'        -1.5480    1.9150   -1.4070 h1        1 PFU      0.063700
     26 H2'        -0.9250    2.1150    1.4580 h1        1 PFU      0.057700
     27 HO2'        0.1720    3.9370   -0.2840 ho        1 PFU      0.429000
     28 H3'         1.2860    1.2880    1.5090 h1        1 PFU      0.107700
     29 HO3'        2.7760    2.7050    0.7590 ho        1 PFU      0.517000
     30 H4'         1.8850    1.4660   -1.4610 h1        1 PFU      0.064700
     31 H5'         1.8450   -0.6840    0.7520 h1        1 PFU      0.001700
     32 H5'A        1.6470   -1.1950   -1.0000 h1        1 PFU      0.001700
     33 HN1        -2.7920   -2.1270    1.5580 hn        1 PFU      0.292700
     34 O1         -3.9160    0.7840   -1.5920 oh        1 PFU     -0.456100
@<TRIPOS>BOND
     1    1   11 1   
     2    1   14 1   
     3    1   17 1   
     4    1   21 1   
     5    2    4 1   
     6    2    5 2   
     7    2   10 1   
     8    3    5 1   
     9    3    7 1   
    10    3   33 1   
    11    4    7 2   
    12    4   34 1   
    13    6    9 2   
    14    7    9 1   
    15    8    9 1   
    16    8   23 1   
    17    8   24 1   
    18   10   12 1   
    19   10   19 1   
    20   10   25 1   
    21   12   13 1   
    22   12   15 1   
    23   12   26 1   
    24   13   27 1   
    25   15   16 1   
    26   15   18 1   
    27   15   28 1   
    28   16   29 1   
    29   18   19 1   
    30   18   20 1   
    31   18   30 1   
    32   20   21 1   
    33   20   31 1   
    34   20   32 1   
    35   22   34 1   
@<TRIPOS>SUBSTRUCTURE
     1 PFU         1 TEMP              0 ****  ****    0 ROOT
