@<TRIPOS>MOLECULE
PFV
   66    67     1     0     0
SMALL
bcc


@<TRIPOS>ATOM
      1 C36         0.7770   -0.7700   -0.0890 c         1 PFV      0.738100
      2 C34        -0.4050   -1.0400    2.0460 c3        1 PFV      0.138200
      3 C6         -2.1530    2.4960   -6.5000 ce        1 PFV      0.226300
      4 C9         -3.4270    2.0790   -5.8890 cc        1 PFV      0.352000
      5 O15        -1.0300    3.3690   -8.2260 os        1 PFV     -0.126300
      6 C18        -1.9560    3.2490  -10.5150 c3        1 PFV     -0.093600
      7 C16        -1.1340    4.0550   -9.5310 c3        1 PFV      0.026800
      8 C19        -1.7020    5.4420   -9.3180 c3        1 PFV     -0.093600
      9 C26        -1.6580    0.9200    2.9580 cc        1 PFV     -0.330200
     10 O37         1.3060    0.2890    0.3340 o         1 PFV     -0.659100
     11 N35        -0.0300   -1.5560    0.7700 n         1 PFV     -0.560900
     12 C27        -1.6620   -0.1850    2.1390 cd        1 PFV      0.131800
     13 N28        -2.8030   -0.5150    1.4090 na        1 PFV     -0.248700
     14 O38        -2.9140   -1.7380    0.9130 oh        1 PFV     -0.378300
     15 C29        -3.9870    0.2030    1.5940 cc        1 PFV      0.057000
     16 C30        -4.0150    1.2920    2.4250 cd        1 PFV     -0.084100
     17 O33        -5.2020    1.9850    2.5470 oh        1 PFV     -0.505100
     18 C31        -2.8370    1.7250    3.1830 c         1 PFV      0.557500
     19 O32        -2.8930    2.7100    3.9520 o         1 PFV     -0.643100
     20 N4          1.1030   -1.2940   -1.3620 n         1 PFV     -0.502900
     21 C3          1.2660   -0.3590   -2.4500 c3        1 PFV      0.040000
     22 C2          0.1500   -0.4530   -3.5450 c3        1 PFV      0.225500
     23 N1         -1.1610   -0.2430   -3.0240 n3        1 PFV     -0.920100
     24 S22        -2.2400   -1.4250   -2.5950 s6        1 PFV      1.538700
     25 O25        -2.6920   -2.1280   -3.7370 o         1 PFV     -0.757533
     26 O24        -1.5800   -2.2760   -1.6350 o         1 PFV     -0.757533
     27 O23        -3.3290   -0.7750   -1.9070 o         1 PFV     -0.757533
     28 CA          0.5690    0.5450   -4.6800 c3        1 PFV     -0.031300
     29 C           1.7260   -0.0170   -5.5060 c         1 PFV      0.563900
     30 O           2.3650   -1.0220   -5.1920 o         1 PFV     -0.557100
     31 N          -0.5020    0.9340   -5.5640 n         1 PFV     -0.535900
     32 C5         -0.9460    2.2430   -5.6300 c         1 PFV      0.594800
     33 O7         -0.3740    3.1690   -5.0250 o         1 PFV     -0.607100
     34 N8         -2.1680    3.0530   -7.6850 n2        1 PFV     -0.368200
     35 C17         0.3470    4.1210  -10.0650 c         1 PFV      0.933600
     36 O21         1.1620    3.2390   -9.7090 o         1 PFV     -0.817300
     37 O20         0.5840    5.0560  -10.8800 o         1 PFV     -0.817300
     38 N13        -3.4910    0.8790   -5.1810 nc        1 PFV     -0.686000
     39 C12        -4.7310    0.6790   -4.7170 cd        1 PFV      0.646300
     40 N14        -5.2260   -0.4450   -4.0370 nh        1 PFV     -0.897500
     41 S11        -5.8400    1.9850   -5.1330 ss        1 PFV     -0.202300
     42 C10        -4.6140    2.7950   -5.9390 cd        1 PFV     -0.229400
     43 H1          0.4490   -0.4210    2.4510 h1        1 PFV      0.071200
     44 H2         -0.5780   -1.9260    2.7280 h1        1 PFV      0.071200
     45 H3         -1.6210    2.1840  -10.5010 hc        1 PFV      0.034200
     46 H4         -3.0450    3.2900  -10.2770 hc        1 PFV      0.034200
     47 H5         -1.7930    3.6670  -11.5380 hc        1 PFV      0.034200
     48 H6         -1.4790    6.0590  -10.2230 hc        1 PFV      0.034200
     49 H7         -2.8050    5.4100   -9.1520 hc        1 PFV      0.034200
     50 H8         -1.2180    5.9170   -8.4320 hc        1 PFV      0.034200
     51 H9         -0.7310    1.2340    3.4560 ha        1 PFV      0.159000
     52 H10        -0.6900   -2.1700    0.3260 hn        1 PFV      0.348500
     53 H11        -2.8880   -1.6520   -0.0790 ho        1 PFV      0.490000
     54 H12        -4.8520   -0.1380    1.0000 h4        1 PFV      0.188000
     55 H13        -4.9890    2.7940    3.0430 ho        1 PFV      0.432000
     56 H14         0.5760   -2.1110   -1.6240 hn        1 PFV      0.313500
     57 H15         2.2470   -0.6100   -2.9470 h1        1 PFV      0.069200
     58 H16         1.3230    0.6930   -2.0530 h1        1 PFV      0.069200
     59 H17         0.1870   -1.4960   -3.9860 h1        1 PFV      0.062700
     60 H18        -1.4090    0.7110   -2.9310 hn        1 PFV      0.432800
     61 H19         0.9720    1.4850   -4.1830 h1        1 PFV      0.105700
     62 H20         1.9720    0.5700   -6.4210 h4        1 PFV      0.032200
     63 H21        -1.1040    0.2060   -5.8770 hn        1 PFV      0.335500
     64 H23        -4.6700   -1.2690   -4.2300 hn        1 PFV      0.413800
     65 H24        -5.2150   -0.2810   -3.0400 hn        1 PFV      0.413800
     66 H25        -4.7410    3.7550   -6.4330 h4        1 PFV      0.181000
@<TRIPOS>BOND
     1    1   10 2   
     2    1   11 1   
     3    1   20 1   
     4    2   11 1   
     5    2   12 1   
     6    2   43 1   
     7    2   44 1   
     8    3    4 1   
     9    3   32 1   
    10    3   34 2   
    11    4   38 1   
    12    4   42 2   
    13    5    7 1   
    14    5   34 1   
    15    6    7 1   
    16    6   45 1   
    17    6   46 1   
    18    6   47 1   
    19    7    8 1   
    20    7   35 1   
    21    8   48 1   
    22    8   49 1   
    23    8   50 1   
    24    9   12 2   
    25    9   18 1   
    26    9   51 1   
    27   11   52 1   
    28   12   13 1   
    29   13   14 1   
    30   13   15 1   
    31   14   53 1   
    32   15   16 2   
    33   15   54 1   
    34   16   17 1   
    35   16   18 1   
    36   17   55 1   
    37   18   19 2   
    38   20   21 1   
    39   20   56 1   
    40   21   22 1   
    41   21   57 1   
    42   21   58 1   
    43   22   23 1   
    44   22   28 1   
    45   22   59 1   
    46   23   24 1   
    47   23   60 1   
    48   24   25 1   
    49   24   26 1   
    50   24   27 1   
    51   28   29 1   
    52   28   31 1   
    53   28   61 1   
    54   29   30 2   
    55   29   62 1   
    56   31   32 1   
    57   31   63 1   
    58   32   33 2   
    59   35   36 1   
    60   35   37 1   
    61   38   39 2   
    62   39   40 1   
    63   39   41 1   
    64   40   64 1   
    65   40   65 1   
    66   41   42 1   
    67   42   66 1   
@<TRIPOS>SUBSTRUCTURE
     1 PFV         1 TEMP              0 ****  ****    0 ROOT
