@<TRIPOS>MOLECULE
PFV
   66    67     1     0     0
SMALL
bcc


@<TRIPOS>ATOM
      1 C36         3.6220   -1.6880    2.0330 c         1 PFV      0.742100
      2 C34         5.8540   -1.3360    1.0920 c3        1 PFV      0.132200
      3 C6         -3.7530   -0.1260   -0.8210 ce        1 PFV      0.226300
      4 C9         -3.1700    1.0470   -1.4970 cc        1 PFV      0.360000
      5 O15        -5.5520   -1.3430   -0.2700 os        1 PFV     -0.131300
      6 C18        -7.7240   -0.2680    0.1710 c3        1 PFV     -0.092600
      7 C16        -7.0190   -1.4800   -0.4000 c3        1 PFV      0.029800
      8 C19        -7.3830   -1.7200   -1.8490 c3        1 PFV     -0.092600
      9 C26         7.6790    0.2430    0.4070 cc        1 PFV     -0.329200
     10 O37         3.6890   -2.9010    1.7060 o         1 PFV     -0.666100
     11 N35         4.7180   -0.8290    1.8060 n         1 PFV     -0.569900
     12 C27         6.4710   -0.3450    0.1210 cd        1 PFV      0.142800
     13 N28         5.7830   -0.0190   -1.0470 na        1 PFV     -0.240700
     14 O38         4.8070   -0.8170   -1.4530 oh        1 PFV     -0.380300
     15 C29         6.3900    0.7860   -2.0110 cc        1 PFV      0.054000
     16 C30         7.6030    1.3730   -1.7600 cd        1 PFV     -0.084100
     17 O33         8.1350    2.2010   -2.7270 oh        1 PFV     -0.506100
     18 C31         8.3420    1.1360   -0.5150 c         1 PFV      0.556500
     19 O32         9.4510    1.6790   -0.3130 o         1 PFV     -0.644100
     20 N4          2.5230   -1.1900    2.7750 n         1 PFV     -0.502900
     21 C3          1.2120   -1.6820    2.4310 c3        1 PFV      0.039000
     22 C2          0.2760   -0.6180    1.7610 c3        1 PFV      0.225500
     23 N1          0.7590   -0.1410    0.5100 n3        1 PFV     -0.919100
     24 S22         1.7670    1.1640    0.2370 s6        1 PFV      1.566700
     25 O25         1.0090    2.3450    0.0620 o         1 PFV     -0.762867
     26 O24         2.6600    1.2430    1.3550 o         1 PFV     -0.762867
     27 O23         2.4970    0.8220   -0.9520 o         1 PFV     -0.762867
     28 CA         -1.1320   -1.3080    1.6850 c3        1 PFV     -0.020300
     29 C          -1.6080   -1.5880    3.1140 c         1 PFV      0.567900
     30 O          -1.6190   -0.7360    4.0020 o         1 PFV     -0.537100
     31 N          -2.1400   -0.5590    0.9870 n         1 PFV     -0.538900
     32 C5         -2.7240   -1.0230   -0.1760 c         1 PFV      0.595800
     33 O7         -2.4250   -2.1270   -0.6710 o         1 PFV     -0.609100
     34 N8         -5.0480   -0.3100   -0.8750 n2        1 PFV     -0.364200
     35 C17        -7.3620   -2.7290    0.5020 c         1 PFV      0.934600
     36 O21        -7.0170   -2.6910    1.7090 o         1 PFV     -0.816300
     37 O20        -8.0250   -3.6510   -0.0440 o         1 PFV     -0.816300
     38 N13        -2.2610    1.8530   -0.8110 nc        1 PFV     -0.684000
     39 C12        -1.7930    2.8120   -1.6210 cd        1 PFV      0.658300
     40 N14        -0.9180    3.8520   -1.2840 nh        1 PFV     -0.867500
     41 S11        -2.4940    2.7500   -3.2430 ss        1 PFV     -0.234300
     42 C10        -3.4020    1.4020   -2.8140 cd        1 PFV     -0.227400
     43 H1          6.6500   -1.6050    1.8480 h1        1 PFV      0.069700
     44 H2          5.5790   -2.2790    0.5290 h1        1 PFV      0.069700
     45 H3         -7.5710    0.6390   -0.4620 hc        1 PFV      0.033533
     46 H4         -8.8180   -0.4830    0.2310 hc        1 PFV      0.033533
     47 H5         -7.3390   -0.0710    1.2000 hc        1 PFV      0.033533
     48 H6         -6.7050   -2.4930   -2.2820 hc        1 PFV      0.033533
     49 H7         -8.4300   -2.1080   -1.8940 hc        1 PFV      0.033533
     50 H8         -7.3070   -0.7840   -2.4510 hc        1 PFV      0.033533
     51 H9          8.1740    0.0480    1.3680 ha        1 PFV      0.158000
     52 H10         4.5220    0.1520    1.7370 hn        1 PFV      0.352500
     53 H11         3.9530   -0.3270   -1.3070 ho        1 PFV      0.502000
     54 H12         5.8150    0.9450   -2.9390 h4        1 PFV      0.185000
     55 H13         8.9340    2.5920   -2.3330 ho        1 PFV      0.433000
     56 H14         2.5360   -0.1920    2.9190 hn        1 PFV      0.319500
     57 H15         1.2950   -2.5880    1.7670 h1        1 PFV      0.057200
     58 H16         0.7300   -1.9980    3.4010 h1        1 PFV      0.057200
     59 H17         0.1890    0.2630    2.4690 h1        1 PFV      0.065700
     60 H18         0.4710   -0.6960   -0.2590 hn        1 PFV      0.424800
     61 H19        -1.0030   -2.3020    1.1560 h1        1 PFV      0.096700
     62 H20        -1.9620   -2.6270    3.2910 h4        1 PFV      0.006200
     63 H21        -2.2650    0.3890    1.2600 hn        1 PFV      0.339500
     64 H23        -0.6370    3.8050   -0.3130 hn        1 PFV      0.405800
     65 H24        -0.0860    3.7940   -1.8460 hn        1 PFV      0.405800
     66 H25        -4.0710    0.8820   -3.4950 h4        1 PFV      0.181000
@<TRIPOS>BOND
     1    1   10 2   
     2    1   11 1   
     3    1   20 1   
     4    2   11 1   
     5    2   12 1   
     6    2   43 1   
     7    2   44 1   
     8    3    4 1   
     9    3   32 1   
    10    3   34 2   
    11    4   38 1   
    12    4   42 2   
    13    5    7 1   
    14    5   34 1   
    15    6    7 1   
    16    6   45 1   
    17    6   46 1   
    18    6   47 1   
    19    7    8 1   
    20    7   35 1   
    21    8   48 1   
    22    8   49 1   
    23    8   50 1   
    24    9   12 2   
    25    9   18 1   
    26    9   51 1   
    27   11   52 1   
    28   12   13 1   
    29   13   14 1   
    30   13   15 1   
    31   14   53 1   
    32   15   16 2   
    33   15   54 1   
    34   16   17 1   
    35   16   18 1   
    36   17   55 1   
    37   18   19 2   
    38   20   21 1   
    39   20   56 1   
    40   21   22 1   
    41   21   57 1   
    42   21   58 1   
    43   22   23 1   
    44   22   28 1   
    45   22   59 1   
    46   23   24 1   
    47   23   60 1   
    48   24   25 1   
    49   24   26 1   
    50   24   27 1   
    51   28   29 1   
    52   28   31 1   
    53   28   61 1   
    54   29   30 2   
    55   29   62 1   
    56   31   32 1   
    57   31   63 1   
    58   32   33 2   
    59   35   36 1   
    60   35   37 1   
    61   38   39 2   
    62   39   40 1   
    63   39   41 1   
    64   40   64 1   
    65   40   65 1   
    66   41   42 1   
    67   42   66 1   
@<TRIPOS>SUBSTRUCTURE
     1 PFV         1 TEMP              0 ****  ****    0 ROOT
