@<TRIPOS>MOLECULE
PFV
   70    71     1     0     0
SMALL
bcc


@<TRIPOS>ATOM
      1 C36         0.0000    0.0000    0.0000 c         1 PFV     -0.158900
      2 C34         0.0570    0.0010    2.4360 c3        1 PFV      0.077000
      3 C6         -2.0650    1.5920   -7.8860 ce        1 PFV      0.204300
      4 C9         -3.2090    0.6630   -8.0040 cc        1 PFV      0.232000
      5 O15        -0.8010    3.4170   -8.6740 os        1 PFV     -0.131300
      6 C18        -0.9120    3.7480  -11.0650 c3        1 PFV     -0.022600
      7 C16        -0.7670    4.4150   -9.6960 c3        1 PFV      0.078800
      8 C19        -1.9190    5.4010   -9.4840 c3        1 PFV     -0.022600
      9 C26        -0.9790   -1.0640    4.4120 cc        1 PFV     -0.172200
     10 O37         1.2160    0.0000    0.0000 o         1 PFV     -0.496100
     11 N35        -0.6750    0.0000    1.1670 ny        1 PFV      0.252200
     12 C27        -0.9220    0.0010    3.5810 cd        1 PFV     -0.159200
     13 N28        -1.7350    1.0690    3.7660 na        1 PFV      0.185300
     14 O38        -1.6480    2.1660    2.8760 oh        1 PFV     -0.496300
     15 C29        -2.6320    1.1090    4.7850 cc        1 PFV     -0.181000
     16 C30        -2.7380    0.0740    5.6520 cd        1 PFV      0.057900
     17 O33        -3.6380    0.1180    6.6720 oh        1 PFV     -0.449100
     18 C31        -1.9030   -1.0600    5.4790 c         1 PFV      0.548500
     19 O32        -1.9770   -2.0110    6.2460 o         1 PFV     -0.508100
     20 N4         -0.6740    0.0050   -1.1670 ny        1 PFV      0.224200
     21 C3          0.0590    0.0110   -2.4360 c3        1 PFV     -0.022200
     22 C2         -0.9350    0.0160   -3.5990 c3        1 PFV      0.068500
     23 N1         -1.8530    1.1470   -3.4510 ny        1 PFV     -0.277900
     24 S22        -3.4900    0.8920   -3.4710 s6        1 PFV      0.963700
     25 O25        -3.8100   -0.0710   -2.3370 o         1 PFV     -0.517867
     26 O24        -4.0930    2.1320   -3.1260 o         1 PFV     -0.517867
     27 O23        -3.7730    0.1980   -4.6790 o         1 PFV     -0.517867
     28 CA         -0.1730    0.1480   -4.9200 c3        1 PFV     -0.195500
     29 C           0.6540   -1.0910   -5.1490 c         1 PFV      0.637900
     30 O           0.4660   -1.7700   -6.1300 o         1 PFV     -0.426100
     31 N          -1.1270    0.3080   -6.0200 ny        1 PFV      0.012200
     32 C5         -1.0390    1.3760   -6.8380 c         1 PFV      0.274800
     33 O7         -0.1200    2.1600   -6.7170 o         1 PFV     -0.450100
     34 N8         -1.9580    2.6010   -8.7030 n2        1 PFV     -0.194200
     35 C17         0.5440    5.1540   -9.6320 c         1 PFV      0.929600
     36 O21         1.4010    4.8000   -8.8570 o         1 PFV     -0.513300
     37 O20         0.7620    6.2060  -10.4380 o         1 PFV     -0.513300
     38 N13        -3.3250   -0.4280   -7.2450 nc        1 PFV     -0.703000
     39 C12        -4.3720   -1.1670   -7.4390 cd        1 PFV      0.630300
     40 N14        -4.6660   -2.3330   -6.7510 nv        1 PFV     -0.528500
     41 S11        -5.3650   -0.4610   -8.7110 ss        1 PFV     -0.242300
     42 C10        -4.2120    0.8600   -8.8820 cd        1 PFV     -0.013400
     43 H1          0.6800    0.8860    2.4930 hx        1 PFV      0.099200
     44 H2          0.6810   -0.8830    2.4940 hx        1 PFV      0.099200
     45 H3         -0.2220    2.9160  -11.1360 hc        1 PFV      0.030033
     46 H4         -0.6900    4.4680  -11.8430 hc        1 PFV      0.030033
     47 H5         -1.9270    3.3870  -11.1860 hc        1 PFV      0.030033
     48 H6         -1.8600    5.8150   -8.4840 hc        1 PFV      0.030033
     49 H7         -2.8630    4.8850   -9.6060 hc        1 PFV      0.030033
     50 H8         -1.8470    6.2010  -10.2110 hc        1 PFV      0.030033
     51 H9         -0.4340   -1.9690    4.1710 ha        1 PFV      0.145000
     52 H10        -1.2570    0.8140    1.1660 hn        1 PFV      0.231300
     53 H11        -1.6450    2.9700    3.3680 ho        1 PFV      0.464000
     54 H12        -3.2700    1.9760    4.9050 h4        1 PFV      0.167000
     55 H13        -3.2400    0.5230    7.4250 ho        1 PFV      0.427000
     56 H14        -1.2550    0.8200   -1.1640 hn        1 PFV      0.206800
     57 H15         0.6830    0.8950   -2.4890 hx        1 PFV      0.112200
     58 H16         0.6820   -0.8740   -2.4970 hx        1 PFV      0.112200
     59 H17        -1.4980   -0.9090   -3.5980 hx        1 PFV      0.124700
     60 H18        -1.6340    1.5940   -2.5820 hn        1 PFV      0.328800
     61 H19         0.4780    1.0130   -4.8770 hx        1 PFV      0.133700
     62 H20         1.4530   -1.3430   -4.4620 h4        1 PFV      0.030200
     63 H21        -1.0480   -0.5070   -6.5950 hn        1 PFV      0.332300
     64 H23        -5.4890   -2.3860   -6.1850 hn        1 PFV      0.289800
     65 H24        -4.0780   -3.1360   -6.8550 hn        1 PFV      0.289800
     66 H25        -4.2970    1.6910   -9.5730 h4        1 PFV      0.180000
     67 H352       -1.2560   -0.8150    1.1670 hn        1 PFV      0.231300
     68 H42        -1.2580   -0.8070   -1.1700 hn        1 PFV      0.206800
     69 H121       -1.6470    1.7940   -4.1860 hn        1 PFV      0.328800
     70 H22        -2.0410    0.3270   -5.6120 hn        1 PFV      0.332300
@<TRIPOS>BOND
     1    1   10 2   
     2    1   11 1   
     3    1   20 1   
     4    2   11 1   
     5    2   12 1   
     6    2   43 1   
     7    2   44 1   
     8    3    4 1   
     9    3   32 1   
    10    3   34 2   
    11    4   38 1   
    12    4   42 2   
    13    5    7 1   
    14    5   34 1   
    15    6    7 1   
    16    6   45 1   
    17    6   46 1   
    18    6   47 1   
    19    7    8 1   
    20    7   35 1   
    21    8   48 1   
    22    8   49 1   
    23    8   50 1   
    24    9   12 2   
    25    9   18 1   
    26    9   51 1   
    27   11   52 1   
    28   11   67 1   
    29   12   13 1   
    30   13   14 1   
    31   13   15 1   
    32   14   53 1   
    33   15   16 2   
    34   15   54 1   
    35   16   17 1   
    36   16   18 1   
    37   17   55 1   
    38   18   19 2   
    39   20   21 1   
    40   20   56 1   
    41   20   68 1   
    42   21   22 1   
    43   21   57 1   
    44   21   58 1   
    45   22   23 1   
    46   22   28 1   
    47   22   59 1   
    48   23   24 1   
    49   23   60 1   
    50   23   69 1   
    51   24   25 1   
    52   24   26 1   
    53   24   27 1   
    54   28   29 1   
    55   28   31 1   
    56   28   61 1   
    57   29   30 2   
    58   29   62 1   
    59   31   32 1   
    60   31   63 1   
    61   31   70 1   
    62   32   33 2   
    63   35   36 1   
    64   35   37 1   
    65   38   39 2   
    66   39   40 1   
    67   39   41 1   
    68   40   64 1   
    69   40   65 1   
    70   41   42 1   
    71   42   66 1   
@<TRIPOS>SUBSTRUCTURE
     1 PFV         1 TEMP              0 ****  ****    0 ROOT
