@<TRIPOS>MOLECULE
PFW
   67    72     1     0     0
SMALL
bcc


@<TRIPOS>ATOM
      1 C1          0.0750   -0.4290    0.2380 ca        1 PFW      0.141100
      2 C2          1.4970   -0.2650    0.3920 ca        1 PFW      0.110100
      3 C3          2.0240    0.0710    1.6200 ca        1 PFW     -0.155000
      4 C4         -0.7690   -0.2340    1.3070 ca        1 PFW     -0.256300
      5 C5         -0.2390    0.1240    2.5860 ca        1 PFW      0.429600
      6 C6          1.1760    0.2510    2.7400 ca        1 PFW     -0.249600
      7 C7          1.6640    0.5980    4.0710 ca        1 PFW      0.665200
      8 N8          0.8010    0.8190    5.0830 nb        1 PFW     -0.754000
      9 C9         -0.5390    0.6890    4.7990 ca        1 PFW      0.648900
     10 N10        -1.1040    0.3480    3.6420 nb        1 PFW     -0.698000
     11 N11         3.0740    0.7490    4.2530 nh        1 PFW     -0.738300
     12 C12         3.4870    1.6590    5.3170 c3        1 PFW      0.180800
     13 C13         4.9950    1.9120    5.2880 c3        1 PFW     -0.082400
     14 C14         5.7740    0.6140    5.3270 c3        1 PFW     -0.074400
     15 C15         5.3150   -0.3180    4.2120 c3        1 PFW     -0.022400
     16 C16         3.7910   -0.5230    4.2920 c3        1 PFW      0.181800
     17 C17         6.0060   -1.6410    4.2720 ca        1 PFW     -0.082300
     18 C18         5.9300   -2.4470    5.4150 ca        1 PFW     -0.125000
     19 C19         6.5830   -3.6780    5.4540 ca        1 PFW     -0.129000
     20 C20         7.3170   -4.1170    4.3520 ca        1 PFW     -0.130000
     21 C21         7.3960   -3.3210    3.2110 ca        1 PFW     -0.129000
     22 C22         6.7440   -2.0890    3.1690 ca        1 PFW     -0.125000
     23 O23        -0.3250   -0.7790   -1.0320 os        1 PFW     -0.301900
     24 O24         2.2190   -0.4600   -0.7640 os        1 PFW     -0.314900
     25 C25        -1.7280   -0.9340   -1.2260 c3        1 PFW      0.106700
     26 C26         3.6470   -0.3560   -0.6280 c3        1 PFW      0.134400
     27 C27         4.1920   -0.6600   -2.0130 c3        1 PFW     -0.139700
     28 C28         5.6840   -0.5330   -2.1160 ca        1 PFW      0.433600
     29 N29         6.4440   -0.4040   -1.0340 nb        1 PFW     -0.673000
     30 C30         7.5760   -0.4760   -3.6290 ca        1 PFW     -0.076000
     31 C31         6.2220   -0.5740   -3.4520 ca        1 PFW     -0.248300
     32 C32         8.4240   -0.3350   -2.4930 ca        1 PFW     -0.151300
     33 C33         7.8120   -0.3030   -1.2020 ca        1 PFW      0.402600
     34 C34         8.6570   -0.1620   -0.0540 ca        1 PFW     -0.170300
     35 C35        10.0170   -0.0600   -0.2040 ca        1 PFW     -0.120000
     36 C36        10.6130   -0.0920   -1.4870 ca        1 PFW     -0.128000
     37 C37         9.8320   -0.2260   -2.6090 ca        1 PFW     -0.108000
     38 H3          3.1090    0.2240    1.7350 ha        1 PFW      0.164000
     39 H4         -1.8590   -0.3440    1.2030 ha        1 PFW      0.161000
     40 H9         -1.2170    0.8840    5.6560 h5        1 PFW      0.051100
     41 H12         3.2110    1.2610    6.3370 h1        1 PFW      0.050200
     42 H12A        2.9470    2.6350    5.1670 h1        1 PFW      0.050200
     43 H13         5.2670    2.4880    4.3650 hc        1 PFW      0.050200
     44 H13A        5.2590    2.5420    6.1760 hc        1 PFW      0.050200
     45 H14         5.6260    0.1150    6.3200 hc        1 PFW      0.046200
     46 H14A        6.8690    0.8230    5.2140 hc        1 PFW      0.046200
     47 H15         5.5520    0.1760    3.2250 hc        1 PFW      0.066700
     48 H16         3.5550   -1.0930    5.2390 h1        1 PFW      0.048700
     49 H16A        3.4580   -1.1510    3.4190 h1        1 PFW      0.048700
     50 H18         5.3520   -2.1090    6.2870 ha        1 PFW      0.135000
     51 H19         6.5170   -4.3040    6.3560 ha        1 PFW      0.132000
     52 H20         7.8310   -5.0890    4.3840 ha        1 PFW      0.131000
     53 H21         7.9710   -3.6640    2.3380 ha        1 PFW      0.132000
     54 H22         6.8080   -1.4680    2.2610 ha        1 PFW      0.135000
     55 H25        -2.1270   -1.7530   -0.5790 h1        1 PFW      0.048367
     56 H25A       -2.2630    0.0240   -1.0200 h1        1 PFW      0.048367
     57 H25B       -1.8080   -1.2100   -2.3080 h1        1 PFW      0.048367
     58 H26         4.0070   -1.1010    0.1280 h1        1 PFW      0.055700
     59 H26A        3.9150    0.6820   -0.3020 h1        1 PFW      0.055700
     60 H27         3.9050   -1.7060   -2.3040 hc        1 PFW      0.074700
     61 H27A        3.7190    0.0380   -2.7550 hc        1 PFW      0.074700
     62 H30         8.0270   -0.5030   -4.6320 ha        1 PFW      0.140000
     63 H31         5.5320   -0.6840   -4.2990 ha        1 PFW      0.146000
     64 H34         8.1980   -0.1370    0.9470 ha        1 PFW      0.147000
     65 H35        10.6650    0.0490    0.6800 ha        1 PFW      0.137000
     66 H36        11.7070   -0.0070   -1.5710 ha        1 PFW      0.136000
     67 H37        10.2830   -0.2520   -3.6120 ha        1 PFW      0.135000
@<TRIPOS>BOND
     1    1    2 ar  
     2    1    4 ar  
     3    1   23 1   
     4    2    3 ar  
     5    2   24 1   
     6    3    6 ar  
     7    3   38 1   
     8    4    5 ar  
     9    4   39 1   
    10    5    6 ar  
    11    5   10 ar  
    12    6    7 ar  
    13    7    8 ar  
    14    7   11 1   
    15    8    9 ar  
    16    9   10 ar  
    17    9   40 1   
    18   11   12 1   
    19   11   16 1   
    20   12   13 1   
    21   12   41 1   
    22   12   42 1   
    23   13   14 1   
    24   13   43 1   
    25   13   44 1   
    26   14   15 1   
    27   14   45 1   
    28   14   46 1   
    29   15   16 1   
    30   15   17 1   
    31   15   47 1   
    32   16   48 1   
    33   16   49 1   
    34   17   18 ar  
    35   17   22 ar  
    36   18   19 ar  
    37   18   50 1   
    38   19   20 ar  
    39   19   51 1   
    40   20   21 ar  
    41   20   52 1   
    42   21   22 ar  
    43   21   53 1   
    44   22   54 1   
    45   23   25 1   
    46   24   26 1   
    47   25   55 1   
    48   25   56 1   
    49   25   57 1   
    50   26   27 1   
    51   26   58 1   
    52   26   59 1   
    53   27   28 1   
    54   27   60 1   
    55   27   61 1   
    56   28   29 ar  
    57   28   31 ar  
    58   29   33 ar  
    59   30   31 ar  
    60   30   32 ar  
    61   30   62 1   
    62   31   63 1   
    63   32   33 ar  
    64   32   37 ar  
    65   33   34 ar  
    66   34   35 ar  
    67   34   64 1   
    68   35   36 ar  
    69   35   65 1   
    70   36   37 ar  
    71   36   66 1   
    72   37   67 1   
@<TRIPOS>SUBSTRUCTURE
     1 PFW         1 TEMP              0 ****  ****    0 ROOT
