@<TRIPOS>MOLECULE
PFW
   67    72     1     0     0
SMALL
bcc


@<TRIPOS>ATOM
      1 C1          0.0760   -0.4450    0.2350 ca        1 PFW      0.141100
      2 C2          1.4970   -0.2750    0.3920 ca        1 PFW      0.110100
      3 C3          2.0220    0.0570    1.6210 ca        1 PFW     -0.155000
      4 C4         -0.7700   -0.2590    1.3040 ca        1 PFW     -0.256300
      5 C5         -0.2420    0.0940    2.5860 ca        1 PFW      0.429600
      6 C6          1.1730    0.2270    2.7420 ca        1 PFW     -0.249600
      7 C7          1.6570    0.5680    4.0750 ca        1 PFW      0.665200
      8 N8          0.7930    0.7800    5.0880 nb        1 PFW     -0.754000
      9 C9         -0.5460    0.6460    4.8010 ca        1 PFW      0.648900
     10 N10        -1.1090    0.3090    3.6420 nb        1 PFW     -0.698000
     11 N11         3.0670    0.7240    4.2600 nh        1 PFW     -0.738300
     12 C12         3.4750    1.6290    5.3290 c3        1 PFW      0.180800
     13 C13         4.9820    1.8890    5.3030 c3        1 PFW     -0.082400
     14 C14         5.7660    0.5950    5.3340 c3        1 PFW     -0.074400
     15 C15         5.3120   -0.3330    4.2140 c3        1 PFW     -0.022400
     16 C16         3.7890   -0.5460    4.2920 c3        1 PFW      0.181800
     17 C17         6.0090   -1.6530    4.2670 ca        1 PFW     -0.082300
     18 C18         5.9360   -2.4660    5.4050 ca        1 PFW     -0.125000
     19 C19         6.5940   -3.6950    5.4370 ca        1 PFW     -0.129000
     20 C20         7.3300   -4.1250    4.3330 ca        1 PFW     -0.130000
     21 C21         7.4050   -3.3220    3.1950 ca        1 PFW     -0.129000
     22 C22         6.7480   -2.0920    3.1610 ca        1 PFW     -0.125000
     23 O23        -0.3210   -0.7890   -1.0370 os        1 PFW     -0.301900
     24 O24         2.2220   -0.4600   -0.7650 os        1 PFW     -0.314900
     25 C25        -1.7230   -0.9500   -1.2330 c3        1 PFW      0.106700
     26 C26         3.6480   -0.3490   -0.6270 c3        1 PFW      0.134400
     27 C27         4.1970   -0.6410   -2.0140 c3        1 PFW     -0.139700
     28 C28         5.6880   -0.5010   -2.1150 ca        1 PFW      0.433600
     29 N29         6.4470   -0.3810   -1.0320 nb        1 PFW     -0.673000
     30 C30         7.5780   -0.4090   -3.6280 ca        1 PFW     -0.076000
     31 C31         6.2250   -0.5200   -3.4520 ca        1 PFW     -0.248300
     32 C32         8.4250   -0.2770   -2.4900 ca        1 PFW     -0.151300
     33 C33         7.8140   -0.2680   -1.1990 ca        1 PFW      0.402600
     34 C34         8.6580   -0.1360   -0.0490 ca        1 PFW     -0.170300
     35 C35        10.0180   -0.0210   -0.1980 ca        1 PFW     -0.120000
     36 C36        10.6130   -0.0310   -1.4810 ca        1 PFW     -0.128000
     37 C37         9.8330   -0.1570   -2.6040 ca        1 PFW     -0.108000
     38 H3          3.1060    0.2130    1.7390 ha        1 PFW      0.164000
     39 H4         -1.8590   -0.3730    1.1980 ha        1 PFW      0.161000
     40 H9         -1.2270    0.8330    5.6590 h5        1 PFW      0.051100
     41 H12         2.9310    2.6040    5.1840 h1        1 PFW      0.050200
     42 H12A        3.2000    1.2240    6.3460 h1        1 PFW      0.050200
     43 H13         5.2520    2.4720    4.3840 hc        1 PFW      0.050200
     44 H13A        5.2430    2.5150    6.1940 hc        1 PFW      0.050200
     45 H14         5.6200    0.0890    6.3250 hc        1 PFW      0.046200
     46 H14A        6.8600    0.8090    5.2230 hc        1 PFW      0.046200
     47 H15         5.5480    0.1670    3.2300 hc        1 PFW      0.066700
     48 H16         3.4590   -1.1690    3.4150 h1        1 PFW      0.048700
     49 H16A        3.5550   -1.1210    5.2350 h1        1 PFW      0.048700
     50 H18         5.3560   -2.1350    6.2790 ha        1 PFW      0.135000
     51 H19         6.5310   -4.3260    6.3350 ha        1 PFW      0.132000
     52 H20         7.8480   -5.0940    4.3590 ha        1 PFW      0.131000
     53 H21         7.9810   -3.6580    2.3210 ha        1 PFW      0.132000
     54 H22         6.8100   -1.4660    2.2570 ha        1 PFW      0.135000
     55 H25        -2.1190   -1.7740   -0.5910 h1        1 PFW      0.048367
     56 H25A       -1.8010   -1.2190   -2.3170 h1        1 PFW      0.048367
     57 H25B       -2.2630    0.0060   -1.0230 h1        1 PFW      0.048367
     58 H26         4.0120   -1.0970    0.1240 h1        1 PFW      0.055700
     59 H26A        3.9110    0.6890   -0.2950 h1        1 PFW      0.055700
     60 H27         3.7180    0.0570   -2.7520 hc        1 PFW      0.074700
     61 H27A        3.9190   -1.6880   -2.3110 hc        1 PFW      0.074700
     62 H30         8.0300   -0.4190   -4.6310 ha        1 PFW      0.140000
     63 H31         5.5360   -0.6240   -4.3010 ha        1 PFW      0.146000
     64 H34         8.1990   -0.1280    0.9530 ha        1 PFW      0.147000
     65 H35        10.6650    0.0800    0.6870 ha        1 PFW      0.137000
     66 H36        11.7060    0.0630   -1.5650 ha        1 PFW      0.136000
     67 H37        10.2840   -0.1660   -3.6080 ha        1 PFW      0.135000
@<TRIPOS>BOND
     1    1    2 ar  
     2    1    4 ar  
     3    1   23 1   
     4    2    3 ar  
     5    2   24 1   
     6    3    6 ar  
     7    3   38 1   
     8    4    5 ar  
     9    4   39 1   
    10    5    6 ar  
    11    5   10 ar  
    12    6    7 ar  
    13    7    8 ar  
    14    7   11 1   
    15    8    9 ar  
    16    9   10 ar  
    17    9   40 1   
    18   11   12 1   
    19   11   16 1   
    20   12   13 1   
    21   12   41 1   
    22   12   42 1   
    23   13   14 1   
    24   13   43 1   
    25   13   44 1   
    26   14   15 1   
    27   14   45 1   
    28   14   46 1   
    29   15   16 1   
    30   15   17 1   
    31   15   47 1   
    32   16   48 1   
    33   16   49 1   
    34   17   18 ar  
    35   17   22 ar  
    36   18   19 ar  
    37   18   50 1   
    38   19   20 ar  
    39   19   51 1   
    40   20   21 ar  
    41   20   52 1   
    42   21   22 ar  
    43   21   53 1   
    44   22   54 1   
    45   23   25 1   
    46   24   26 1   
    47   25   55 1   
    48   25   56 1   
    49   25   57 1   
    50   26   27 1   
    51   26   58 1   
    52   26   59 1   
    53   27   28 1   
    54   27   60 1   
    55   27   61 1   
    56   28   29 ar  
    57   28   31 ar  
    58   29   33 ar  
    59   30   31 ar  
    60   30   32 ar  
    61   30   62 1   
    62   31   63 1   
    63   32   33 ar  
    64   32   37 ar  
    65   33   34 ar  
    66   34   35 ar  
    67   34   64 1   
    68   35   36 ar  
    69   35   65 1   
    70   36   37 ar  
    71   36   66 1   
    72   37   67 1   
@<TRIPOS>SUBSTRUCTURE
     1 PFW         1 TEMP              0 ****  ****    0 ROOT
