@<TRIPOS>MOLECULE
PFW
   67    72     1     0     0
SMALL
bcc


@<TRIPOS>ATOM
      1 C1         -2.4540   -3.5320    0.8350 ca        1 PFW      0.141100
      2 C2         -1.4310   -2.5850    0.4770 ca        1 PFW      0.110100
      3 C3         -1.7510   -1.4720   -0.2690 ca        1 PFW     -0.155000
      4 C4         -3.7530   -3.3460    0.4200 ca        1 PFW     -0.256300
      5 C5         -4.1000   -2.2000   -0.3630 ca        1 PFW      0.429600
      6 C6         -3.0860   -1.2460   -0.6840 ca        1 PFW     -0.249600
      7 C7         -3.5000   -0.0860   -1.4680 ca        1 PFW      0.665200
      8 N8         -4.7740    0.0400   -1.8880 nb        1 PFW     -0.754000
      9 C9         -5.6490   -0.9610   -1.5320 ca        1 PFW      0.648900
     10 N10        -5.4040   -2.0450   -0.7990 nb        1 PFW     -0.698000
     11 N11        -2.5050    0.8780   -1.8200 nh        1 PFW     -0.738300
     12 C12        -2.7490    1.6300   -3.0470 c3        1 PFW      0.180800
     13 C13        -1.5350    2.4720   -3.4430 c3        1 PFW     -0.082400
     14 C14        -1.0980    3.3760   -2.3110 c3        1 PFW     -0.074400
     15 C15        -0.8600    2.5670   -1.0420 c3        1 PFW     -0.022400
     16 C16        -2.1130    1.7370   -0.7050 c3        1 PFW      0.181800
     17 C17        -0.5060    3.4400    0.1180 ca        1 PFW     -0.082300
     18 C18        -1.3640    4.4600    0.5450 ca        1 PFW     -0.125000
     19 C19        -1.0170    5.2660    1.6280 ca        1 PFW     -0.129000
     20 C20         0.1900    5.0610    2.2960 ca        1 PFW     -0.130000
     21 C21         1.0490    4.0450    1.8770 ca        1 PFW     -0.129000
     22 C22         0.7040    3.2380    0.7940 ca        1 PFW     -0.125000
     23 O23        -2.0100   -4.5920    1.5930 os        1 PFW     -0.301900
     24 O24        -0.1720   -2.9100    0.9320 os        1 PFW     -0.314900
     25 C25        -2.9940   -5.5590    1.9520 c3        1 PFW      0.106700
     26 C26         0.8600   -1.9540    0.6360 c3        1 PFW      0.134400
     27 C27         2.1130   -2.5220    1.2810 c3        1 PFW     -0.139700
     28 C28         3.3470   -1.7060    1.0260 ca        1 PFW      0.433600
     29 N29         3.2750   -0.4900    0.4970 nb        1 PFW     -0.673000
     30 C30         5.7610   -1.6390    1.2170 ca        1 PFW     -0.076000
     31 C31         4.5910   -2.3240    1.4060 ca        1 PFW     -0.248300
     32 C32         5.7250   -0.3330    0.6490 ca        1 PFW     -0.151300
     33 C33         4.4500    0.2100    0.3000 ca        1 PFW      0.402600
     34 C34         4.4040    1.5230   -0.2700 ca        1 PFW     -0.170300
     35 C35         5.5630    2.2310   -0.4720 ca        1 PFW     -0.120000
     36 C36         6.8200    1.6840   -0.1240 ca        1 PFW     -0.128000
     37 C37         6.9000    0.4280    0.4260 ca        1 PFW     -0.108000
     38 H3         -0.9660   -0.7590   -0.5670 ha        1 PFW      0.164000
     39 H4         -4.5440   -4.0670    0.6750 ha        1 PFW      0.161000
     40 H9         -6.6880   -0.8240   -1.9020 h5        1 PFW      0.051100
     41 H12        -2.9680    0.8900   -3.8670 h1        1 PFW      0.050200
     42 H12A       -3.6420    2.3130   -2.9470 h1        1 PFW      0.050200
     43 H13        -0.6880    1.8010   -3.7410 hc        1 PFW      0.050200
     44 H13A       -1.8150    3.0870   -4.3370 hc        1 PFW      0.050200
     45 H14        -0.1560    3.9130   -2.5940 hc        1 PFW      0.046200
     46 H14A       -1.8850    4.1520   -2.1210 hc        1 PFW      0.046200
     47 H15        -0.0080    1.8530   -1.2380 hc        1 PFW      0.066700
     48 H16        -2.9470    2.4450   -0.4250 h1        1 PFW      0.048700
     49 H16A       -1.8950    1.0890    0.1890 h1        1 PFW      0.048700
     50 H18        -2.3190    4.6280    0.0250 ha        1 PFW      0.135000
     51 H19        -1.6980    6.0650    1.9560 ha        1 PFW      0.132000
     52 H20         0.4630    5.6960    3.1510 ha        1 PFW      0.131000
     53 H21         2.0010    3.8770    2.4030 ha        1 PFW      0.132000
     54 H22         1.3870    2.4350    0.4730 ha        1 PFW      0.135000
     55 H25        -3.7950   -5.0940    2.5760 h1        1 PFW      0.048367
     56 H25A       -3.4310   -6.0340    1.0400 h1        1 PFW      0.048367
     57 H25B       -2.4110   -6.3070    2.5480 h1        1 PFW      0.048367
     58 H26         0.9780   -1.8650   -0.4760 h1        1 PFW      0.055700
     59 H26A        0.5870   -0.9590    1.0740 h1        1 PFW      0.055700
     60 H27         1.9590   -2.5940    2.3910 hc        1 PFW      0.074700
     61 H27A        2.2840   -3.5630    0.8960 hc        1 PFW      0.074700
     62 H30         6.7330   -2.0740    1.4930 ha        1 PFW      0.140000
     63 H31         4.5730   -3.3330    1.8400 ha        1 PFW      0.146000
     64 H34         3.4270    1.9530   -0.5430 ha        1 PFW      0.147000
     65 H35         5.5250    3.2400   -0.9120 ha        1 PFW      0.137000
     66 H36         7.7290    2.2780   -0.3000 ha        1 PFW      0.136000
     67 H37         7.8720   -0.0090    0.7010 ha        1 PFW      0.135000
@<TRIPOS>BOND
     1    1    2 ar  
     2    1    4 ar  
     3    1   23 1   
     4    2    3 ar  
     5    2   24 1   
     6    3    6 ar  
     7    3   38 1   
     8    4    5 ar  
     9    4   39 1   
    10    5    6 ar  
    11    5   10 ar  
    12    6    7 ar  
    13    7    8 ar  
    14    7   11 1   
    15    8    9 ar  
    16    9   10 ar  
    17    9   40 1   
    18   11   12 1   
    19   11   16 1   
    20   12   13 1   
    21   12   41 1   
    22   12   42 1   
    23   13   14 1   
    24   13   43 1   
    25   13   44 1   
    26   14   15 1   
    27   14   45 1   
    28   14   46 1   
    29   15   16 1   
    30   15   17 1   
    31   15   47 1   
    32   16   48 1   
    33   16   49 1   
    34   17   18 ar  
    35   17   22 ar  
    36   18   19 ar  
    37   18   50 1   
    38   19   20 ar  
    39   19   51 1   
    40   20   21 ar  
    41   20   52 1   
    42   21   22 ar  
    43   21   53 1   
    44   22   54 1   
    45   23   25 1   
    46   24   26 1   
    47   25   55 1   
    48   25   56 1   
    49   25   57 1   
    50   26   27 1   
    51   26   58 1   
    52   26   59 1   
    53   27   28 1   
    54   27   60 1   
    55   27   61 1   
    56   28   29 ar  
    57   28   31 ar  
    58   29   33 ar  
    59   30   31 ar  
    60   30   32 ar  
    61   30   62 1   
    62   31   63 1   
    63   32   33 ar  
    64   32   37 ar  
    65   33   34 ar  
    66   34   35 ar  
    67   34   64 1   
    68   35   36 ar  
    69   35   65 1   
    70   36   37 ar  
    71   36   66 1   
    72   37   67 1   
@<TRIPOS>SUBSTRUCTURE
     1 PFW         1 TEMP              0 ****  ****    0 ROOT
