@<TRIPOS>MOLECULE
PFW
   67    72     1     0     0
SMALL
bcc


@<TRIPOS>ATOM
      1 C1          0.0750   -0.3900    0.2380 ca        1 PFW      0.141100
      2 C2          1.4980   -0.2320    0.3960 ca        1 PFW      0.110100
      3 C3          2.0250    0.0760    1.6310 ca        1 PFW     -0.155000
      4 C4         -0.7680   -0.2160    1.3110 ca        1 PFW     -0.256300
      5 C5         -0.2380    0.1130    2.5980 ca        1 PFW      0.429600
      6 C6          1.1780    0.2340    2.7540 ca        1 PFW     -0.249600
      7 C7          1.6650    0.5510    4.0930 ca        1 PFW      0.665200
      8 N8          0.8030    0.7530    5.1090 nb        1 PFW     -0.754000
      9 C9         -0.5370    0.6320    4.8210 ca        1 PFW      0.648900
     10 N10        -1.1030    0.3170    3.6570 nb        1 PFW     -0.698000
     11 N11         3.0760    0.6950    4.2790 nh        1 PFW     -0.738300
     12 C12         3.4910    1.5810    5.3620 c3        1 PFW      0.180800
     13 C13         4.9990    1.8310    5.3390 c3        1 PFW     -0.082400
     14 C14         5.7750    0.5310    5.3500 c3        1 PFW     -0.074400
     15 C15         5.3140   -0.3750    4.2150 c3        1 PFW     -0.022400
     16 C16         3.7900   -0.5800    4.2910 c3        1 PFW      0.181800
     17 C17         6.0030   -1.7010    4.2470 ca        1 PFW     -0.082300
     18 C18         5.9250   -2.5320    5.3720 ca        1 PFW     -0.125000
     19 C19         6.5750   -3.7640    5.3850 ca        1 PFW     -0.129000
     20 C20         7.3080   -4.1820    4.2740 ca        1 PFW     -0.130000
     21 C21         7.3880   -3.3610    3.1500 ca        1 PFW     -0.129000
     22 C22         6.7390   -2.1270    3.1350 ca        1 PFW     -0.125000
     23 O23        -0.3240   -0.7120   -1.0400 os        1 PFW     -0.301900
     24 O24         2.2200   -0.4040   -0.7640 os        1 PFW     -0.314900
     25 C25        -1.7280   -0.8600   -1.2370 c3        1 PFW      0.106700
     26 C26         3.6480   -0.3060   -0.6250 c3        1 PFW      0.134400
     27 C27         4.1940   -0.5800   -2.0160 c3        1 PFW     -0.139700
     28 C28         5.6860   -0.4530   -2.1160 ca        1 PFW      0.433600
     29 N29         6.4460   -0.3510   -1.0310 nb        1 PFW     -0.673000
     30 C30         7.5780   -0.3630   -3.6270 ca        1 PFW     -0.076000
     31 C31         6.2240   -0.4640   -3.4520 ca        1 PFW     -0.248300
     32 C32         8.4250   -0.2500   -2.4870 ca        1 PFW     -0.151300
     33 C33         7.8140   -0.2480   -1.1970 ca        1 PFW      0.402600
     34 C34         8.6590   -0.1350   -0.0450 ca        1 PFW     -0.170300
     35 C35        10.0190   -0.0320   -0.1930 ca        1 PFW     -0.120000
     36 C36        10.6150   -0.0340   -1.4760 ca        1 PFW     -0.128000
     37 C37         9.8340   -0.1410   -2.6000 ca        1 PFW     -0.108000
     38 H3          3.1100    0.2240    1.7500 ha        1 PFW      0.164000
     39 H4         -1.8590   -0.3220    1.2040 ha        1 PFW      0.161000
     40 H9         -1.2160    0.8100    5.6820 h5        1 PFW      0.051100
     41 H12         3.2130    1.1620    6.3730 h1        1 PFW      0.050200
     42 H12A        2.9530    2.5610    5.2330 h1        1 PFW      0.050200
     43 H13         5.2720    2.4270    4.4290 hc        1 PFW      0.050200
     44 H13A        5.2640    2.4420    6.2400 hc        1 PFW      0.050200
     45 H14         6.8700    0.7400    5.2420 hc        1 PFW      0.046200
     46 H14A        5.6250    0.0110    6.3330 hc        1 PFW      0.046200
     47 H15         5.5530    0.1380    3.2390 hc        1 PFW      0.066700
     48 H16         3.5520   -1.1690    5.2240 h1        1 PFW      0.048700
     49 H16A        3.4560   -1.1870    3.4040 h1        1 PFW      0.048700
     50 H18         5.3470   -2.2110    6.2520 ha        1 PFW      0.135000
     51 H19         6.5070   -4.4090    6.2740 ha        1 PFW      0.132000
     52 H20         7.8190   -5.1550    4.2850 ha        1 PFW      0.131000
     53 H21         7.9630   -3.6870    2.2700 ha        1 PFW      0.132000
     54 H22         6.8050   -1.4880    2.2410 ha        1 PFW      0.135000
     55 H25        -2.1290   -1.6920   -0.6080 h1        1 PFW      0.048367
     56 H25A       -2.2610    0.0960   -1.0110 h1        1 PFW      0.048367
     57 H25B       -1.8080   -1.1110   -2.3250 h1        1 PFW      0.048367
     58 H26         3.9190    0.7250   -0.2770 h1        1 PFW      0.055700
     59 H26A        4.0060   -1.0680    0.1150 h1        1 PFW      0.055700
     60 H27         3.9050   -1.6200   -2.3300 hc        1 PFW      0.074700
     61 H27A        3.7220    0.1340   -2.7430 hc        1 PFW      0.074700
     62 H30         8.0290   -0.3670   -4.6300 ha        1 PFW      0.140000
     63 H31         5.5340   -0.5520   -4.3020 ha        1 PFW      0.146000
     64 H34         8.2000   -0.1340    0.9560 ha        1 PFW      0.147000
     65 H35        10.6670    0.0550    0.6940 ha        1 PFW      0.137000
     66 H36        11.7090    0.0510   -1.5580 ha        1 PFW      0.136000
     67 H37        10.2850   -0.1440   -3.6040 ha        1 PFW      0.135000
@<TRIPOS>BOND
     1    1    2 ar  
     2    1    4 ar  
     3    1   23 1   
     4    2    3 ar  
     5    2   24 1   
     6    3    6 ar  
     7    3   38 1   
     8    4    5 ar  
     9    4   39 1   
    10    5    6 ar  
    11    5   10 ar  
    12    6    7 ar  
    13    7    8 ar  
    14    7   11 1   
    15    8    9 ar  
    16    9   10 ar  
    17    9   40 1   
    18   11   12 1   
    19   11   16 1   
    20   12   13 1   
    21   12   41 1   
    22   12   42 1   
    23   13   14 1   
    24   13   43 1   
    25   13   44 1   
    26   14   15 1   
    27   14   45 1   
    28   14   46 1   
    29   15   16 1   
    30   15   17 1   
    31   15   47 1   
    32   16   48 1   
    33   16   49 1   
    34   17   18 ar  
    35   17   22 ar  
    36   18   19 ar  
    37   18   50 1   
    38   19   20 ar  
    39   19   51 1   
    40   20   21 ar  
    41   20   52 1   
    42   21   22 ar  
    43   21   53 1   
    44   22   54 1   
    45   23   25 1   
    46   24   26 1   
    47   25   55 1   
    48   25   56 1   
    49   25   57 1   
    50   26   27 1   
    51   26   58 1   
    52   26   59 1   
    53   27   28 1   
    54   27   60 1   
    55   27   61 1   
    56   28   29 ar  
    57   28   31 ar  
    58   29   33 ar  
    59   30   31 ar  
    60   30   32 ar  
    61   30   62 1   
    62   31   63 1   
    63   32   33 ar  
    64   32   37 ar  
    65   33   34 ar  
    66   34   35 ar  
    67   34   64 1   
    68   35   36 ar  
    69   35   65 1   
    70   36   37 ar  
    71   36   66 1   
    72   37   67 1   
@<TRIPOS>SUBSTRUCTURE
     1 PFW         1 TEMP              0 ****  ****    0 ROOT
