@<TRIPOS>MOLECULE
PFX
   47    47     1     0     0
SMALL
bcc


@<TRIPOS>ATOM
      1 OXT        -9.9580    1.6980    3.3190 o         1 PFX     -0.835300
      2 CA          0.7400   -1.4220   -0.2850 c3        1 PFX      0.110500
      3 N           1.1060   -2.4170    0.7010 n3        1 PFX     -0.899800
      4 CB          1.7530   -1.1850   -1.4240 c3        1 PFX     -0.072100
      5 CG          3.1260   -0.9220   -0.9150 ca        1 PFX     -0.083300
      6 CD1         3.9860   -1.9940   -0.6380 ca        1 PFX     -0.170000
      7 CD2         3.5800    0.3910   -0.7400 ca        1 PFX     -0.170000
      8 CE1         5.2840   -1.7470   -0.1920 ca        1 PFX     -0.048500
      9 CE2         4.8820    0.6220   -0.2940 ca        1 PFX     -0.048500
     10 CZ          5.7270   -0.4430   -0.0170 ca        1 PFX     -0.322500
     11 PZ          7.2910   -0.1580    0.4950 p5        1 PFX      1.388900
     12 O1P         7.7320    1.1780    0.0320 o         1 PFX     -0.874500
     13 O2P         7.1230   -0.1010    2.1350 oh        1 PFX     -0.798400
     14 O3P         8.1080   -1.3930    0.3540 o         1 PFX     -0.874500
     15 CO         -0.5840   -1.8390   -0.9660 c         1 PFX      0.657100
     16 OC         -0.6400   -2.8860   -1.6450 o         1 PFX     -0.635100
     17 NH         -1.6620   -0.9880   -0.8530 n         1 PFX     -0.551900
     18 C1         -2.9490   -1.3090   -1.4040 c3        1 PFX      0.082000
     19 C2         -4.0460   -1.5910   -0.3690 c3        1 PFX      0.105400
     20 O3         -4.4350   -0.3360    0.1750 os        1 PFX     -0.439600
     21 C4         -5.5700   -0.4530    1.0380 c3        1 PFX      0.124400
     22 C5         -6.1160    0.9570    1.2430 c3        1 PFX      0.125400
     23 O6         -7.4880    0.7970    1.5810 os        1 PFX     -0.402600
     24 C7         -8.1370    2.0500    1.7820 c3        1 PFX      0.006400
     25 C          -9.6300    1.7760    2.1040 c         1 PFX      0.923600
     26 O         -10.4340    1.7180    1.1330 o         1 PFX     -0.835300
     27 HA          0.6160   -0.4480    0.2750 h1        1 PFX      0.069700
     28 H1N         7.6010   -0.8070    2.5530 ho        1 PFX      0.419000
     29 H2N         1.1380   -3.3270    0.2780 hn        1 PFX      0.361800
     30 H3N         2.0150   -2.2000    1.0690 hn        1 PFX      0.361800
     31 H1B         1.7620   -2.0870   -2.0940 hc        1 PFX      0.057200
     32 H2B         1.3940   -0.3150   -2.0340 hc        1 PFX      0.057200
     33 HD1         3.6380   -3.0260   -0.7900 ha        1 PFX      0.114000
     34 HD2         2.9120    1.2340   -0.9620 ha        1 PFX      0.114000
     35 HE1         5.9970   -2.5640    0.0170 ha        1 PFX      0.161000
     36 HE2         5.2830    1.6430   -0.1670 ha        1 PFX      0.161000
     37 HNH        -1.6460   -0.2790   -0.1570 hn        1 PFX      0.320500
     38 H11        -3.2820   -0.4340   -2.0350 h1        1 PFX      0.067200
     39 H21        -2.8520   -2.2180   -2.0640 h1        1 PFX      0.067200
     40 H12        -4.9180   -2.0730   -0.8870 h1        1 PFX      0.034200
     41 H22        -3.6900   -2.2660    0.4530 h1        1 PFX      0.034200
     42 H14        -6.3560   -1.1040    0.5710 h1        1 PFX      0.039200
     43 H24        -5.2420   -0.9060    2.0090 h1        1 PFX      0.039200
     44 H15        -5.5690    1.4800    2.0710 h1        1 PFX      0.023700
     45 H25        -6.0120    1.5600    0.3020 h1        1 PFX      0.023700
     46 H17        -7.6490    2.5870    2.6370 h1        1 PFX      0.004200
     47 H27        -8.0520    2.6690    0.8520 h1        1 PFX      0.004200
@<TRIPOS>BOND
     1    1   25 1   
     2    2    3 1   
     3    2    4 1   
     4    2   15 1   
     5    2   27 1   
     6    3   29 1   
     7    3   30 1   
     8    4    5 1   
     9    4   31 1   
    10    4   32 1   
    11    5    6 ar  
    12    5    7 ar  
    13    6    8 ar  
    14    6   33 1   
    15    7    9 ar  
    16    7   34 1   
    17    8   10 ar  
    18    8   35 1   
    19    9   10 ar  
    20    9   36 1   
    21   10   11 1   
    22   11   12 1   
    23   11   13 1   
    24   11   14 1   
    25   13   28 1   
    26   15   16 2   
    27   15   17 1   
    28   17   18 1   
    29   17   37 1   
    30   18   19 1   
    31   18   38 1   
    32   18   39 1   
    33   19   20 1   
    34   19   40 1   
    35   19   41 1   
    36   20   21 1   
    37   21   22 1   
    38   21   42 1   
    39   21   43 1   
    40   22   23 1   
    41   22   44 1   
    42   22   45 1   
    43   23   24 1   
    44   24   25 1   
    45   24   46 1   
    46   24   47 1   
    47   25   26 1   
@<TRIPOS>SUBSTRUCTURE
     1 PFX         1 TEMP              0 ****  ****    0 ROOT
