@<TRIPOS>MOLECULE
PFY
   77    72     1     0     0
SMALL
bcc


@<TRIPOS>ATOM
      1 O31        -2.8020   -0.1590    3.2450 o         1 PFY     -0.372000
      2 C30        -1.5770   -0.2610    3.2580 c1        1 PFY      0.377000
      3 N38        -0.8720   -0.3550    4.5210 n2        1 PFY     -0.322000
      4 C39        -1.3940   -0.3440    5.6970 c3        1 PFY      0.024000
      5 C43        -2.6670    0.5800    5.7230 c3        1 PFY     -0.075000
      6 N33        -3.2360    0.6060    7.1260 n3        1 PFY     -0.253000
      7 C34        -4.0610    1.9060    7.3270 c3        1 PFY     -0.080500
      8 C35        -5.5640    1.4650    7.2950 c3        1 PFY     -0.171500
      9 C36        -5.5420    0.2380    6.8530 c3        1 PFY     -0.171500
     10 C37        -4.0970   -0.3650    7.2700 c3        1 PFY     -0.080500
     11 C40        -0.2740    0.2420    6.6300 c3        1 PFY     -0.161000
     12 C41         1.0010    0.2390    5.7850 c3        1 PFY     -0.173000
     13 C42         0.7040   -0.4860    4.7280 c3        1 PFY     -0.026000
     14 C23        -0.7800   -0.3260    1.9050 c2        1 PFY     -0.210000
     15 C24        -0.6530    0.7060    0.9920 c1        1 PFY     -0.026000
     16 C29        -0.9680    2.1520    1.2560 c2        1 PFY     -0.178500
     17 C22        -0.2590   -1.4630    1.3360 c1        1 PFY      0.020000
     18 C28        -0.2470   -2.8640    1.9730 c2        1 PFY     -0.178500
     19 N26         0.1870   -1.1440    0.0830 n2        1 PFY     -0.131000
     20 C25        -0.0590    0.2070   -0.1290 c1        1 PFY     -0.131000
     21 C           0.4360    1.0350   -1.3380 c1        1 PFY      0.055000
     22 C21        -0.3960    1.3020   -2.3540 c1        1 PFY     -0.175000
     23 C20        -1.8550    0.7540   -2.2640 c1        1 PFY      0.366000
     24 O32        -2.6750    1.2710   -2.9430 o         1 PFY     -0.359000
     25 N19        -1.7200   -0.5920   -2.9170 n3        1 PFY     -0.325000
     26 C18        -0.3480   -0.7510   -3.3220 c2        1 PFY      0.131000
     27 C9          0.0800   -1.8090   -4.2130 c2        1 PFY     -0.198000
     28 C8          1.0210   -1.5540   -5.1730 c1        1 PFY      0.027000
     29 C17         0.1720    0.4550   -3.4390 c2        1 PFY     -0.112000
     30 C10         1.1560    0.7190   -4.4450 c2        1 PFY      0.020000
     31 C7          1.5630   -0.2820   -5.2910 c1        1 PFY     -0.876000
     32 S11         2.4510    0.1090   -6.8270 s4        1 PFY      2.060800
     33 O12         2.4370    1.5340   -7.0970 o         1 PFY     -0.534400
     34 O13         1.7580   -0.3960   -7.9660 o         1 PFY     -0.534400
     35 C14         4.1030   -0.5060   -6.7560 c2        1 PFY     -0.803000
     36 C1          4.8020   -0.2560   -8.1220 c2        1 PFY     -0.024000
     37 C6          4.7110   -1.2060   -9.1330 c2        1 PFY     -0.042000
     38 CL6         3.7960   -2.7310   -8.8470 cl        1 PFY     -0.016000
     39 C2          5.5380    0.9130   -8.3250 c1        1 PFY     -0.055000
     40 CL5         5.7640    2.0320   -7.0060 cl        1 PFY      0.008000
     41 C3          6.1880    1.1290   -9.5520 c2        1 PFY     -0.117000
     42 C4          6.0980    0.1790  -10.5640 c1        1 PFY     -0.110000
     43 C5          5.3610   -0.9900  -10.3610 c1        1 PFY     -0.118000
     44 H39        -1.6460   -1.3230    5.9960 h1        1 PFY      0.104000
     45 H421        0.9560   -1.4710    4.8940 h1        1 PFY      0.084500
     46 H422        1.1700   -0.1470    3.9490 h1        1 PFY      0.084500
     47 H431       -2.4100    1.5200    5.4430 h1        1 PFY      0.084000
     48 H432       -3.3690    0.2120    5.0770 h1        1 PFY      0.084000
     49 H401       -0.5060    1.1730    6.9060 hc        1 PFY      0.099500
     50 H402       -0.1540   -0.3480    7.4460 hc        1 PFY      0.099500
     51 H341       -3.8820    2.5190    6.6190 h1        1 PFY      0.084000
     52 H342       -3.8400    2.3270    8.2220 h1        1 PFY      0.084000
     53 H371       -3.8610   -1.1140    6.6840 h1        1 PFY      0.084000
     54 H372       -4.1170   -0.6560    8.1870 h1        1 PFY      0.084000
     55 H351       -5.9450    1.4950    8.1900 hc        1 PFY      0.085750
     56 H352       -6.0620    2.0240    6.7020 hc        1 PFY      0.085750
     57 H361       -5.6480    0.2270    5.8250 hc        1 PFY      0.085750
     58 H362       -6.2570   -0.2820    7.2690 hc        1 PFY      0.085750
     59 H411        1.7440   -0.1710    6.2840 hc        1 PFY      0.089000
     60 H412        1.2420    1.1790    5.5080 hc        1 PFY      0.089000
     61 H291       -0.5950    2.4130    2.1150 ha        1 PFY      0.100500
     62 H292       -1.9780    2.2820    1.2720 ha        1 PFY      0.100500
     63 H293       -0.6020    2.6750    0.5900 ha        1 PFY      0.100500
     64 H281       -0.1810   -3.5470    1.2660 ha        1 PFY      0.100500
     65 H282       -1.1260   -3.0040    2.5170 ha        1 PFY      0.100500
     66 H283        0.5190   -2.9430    2.5700 ha        1 PFY      0.100500
     67 H26         0.5820   -1.7250   -0.5170 DU        1 PFY      0.286000
     68 H           1.3390    1.3570   -1.3600 ha        1 PFY      0.147000
     69 H19        -2.3500   -1.1620   -3.0320 hn        1 PFY      0.261000
     70 H9         -0.3030   -2.7070   -4.1290 ha        1 PFY      0.150000
     71 H8          1.3270   -2.3030   -5.8060 ha        1 PFY      0.160000
     72 H10         1.5230    1.5770   -4.5270 ha        1 PFY      0.159000
     73 H141        4.5730   -0.0620   -6.0800 ha        1 PFY      0.167500
     74 H142        4.0880   -1.4960   -6.5620 ha        1 PFY      0.167500
     75 H5          5.2950   -1.6830  -11.0980 ha        1 PFY      0.153000
     76 H3          6.6790    1.9070   -9.6870 ha        1 PFY      0.154000
     77 H4          6.5170    0.3180  -11.3530 ha        1 PFY      0.145000
@<TRIPOS>BOND
     1    1    2 1   
     2    2   14 1   
     3    3    4 1   
     4    3   13 1   
     5    4    5 1   
     6    4   11 1   
     7    4   44 1   
     8    5    6 1   
     9    5   47 1   
    10    5   48 1   
    11    6    7 1   
    12    6   10 1   
    13    7    8 1   
    14    7   51 1   
    15    7   52 1   
    16    8    9 1   
    17    8   55 1   
    18    8   56 1   
    19    9   10 1   
    20    9   57 1   
    21    9   58 1   
    22   10   53 1   
    23   10   54 1   
    24   11   12 1   
    25   11   49 1   
    26   11   50 1   
    27   12   13 1   
    28   12   59 1   
    29   12   60 1   
    30   13   45 1   
    31   13   46 1   
    32   14   15 1   
    33   14   17 1   
    34   15   20 1   
    35   16   61 1   
    36   16   62 1   
    37   16   63 1   
    38   17   19 1   
    39   18   64 1   
    40   18   65 1   
    41   18   66 1   
    42   19   20 1   
    43   21   22 1   
    44   21   68 1   
    45   22   29 1   
    46   23   24 1   
    47   23   25 1   
    48   25   26 1   
    49   25   69 1   
    50   26   27 1   
    51   26   29 1   
    52   27   28 1   
    53   27   70 1   
    54   28   71 1   
    55   29   30 1   
    56   30   31 1   
    57   30   72 1   
    58   31   32 1   
    59   32   33 1   
    60   32   34 1   
    61   35   36 1   
    62   35   73 1   
    63   35   74 1   
    64   36   37 1   
    65   36   39 1   
    66   37   38 1   
    67   37   43 1   
    68   39   41 1   
    69   41   42 1   
    70   41   76 1   
    71   42   77 1   
    72   43   75 1   
@<TRIPOS>SUBSTRUCTURE
     1 PFY         1 TEMP              0 ****  ****    0 ROOT
