@<TRIPOS>MOLECULE
PFY
   77    82     1     0     0
SMALL
bcc


@<TRIPOS>ATOM
      1 O31        -0.2230   -0.8440   -0.2460 o         1 PFY     -0.612100
      2 C30         0.9760   -0.4990   -0.3220 c         1 PFY      0.712700
      3 N38         1.6700   -0.0830    0.8120 n         1 PFY     -0.441800
      4 C39         1.0480   -0.1430    2.1330 c3        1 PFY      0.091700
      5 C43         0.5710    1.2400    2.6490 c3        1 PFY      0.173800
      6 N33        -0.4040    1.8820    1.7920 n3        1 PFY     -0.719600
      7 C34        -0.6640    3.2780    2.1520 c3        1 PFY      0.156800
      8 C35        -2.1770    3.5390    2.1030 c3        1 PFY     -0.089900
      9 C36        -2.8270    2.2040    1.7630 c3        1 PFY     -0.089900
     10 C37        -1.6850    1.1790    1.6910 c3        1 PFY      0.156800
     11 C40         2.1160   -0.6920    3.1090 c3        1 PFY     -0.096400
     12 C41         3.4380   -0.6840    2.3510 c3        1 PFY     -0.095400
     13 C42         3.1120   -0.2240    0.9190 c3        1 PFY      0.083000
     14 C23         1.6880   -0.4840   -1.6100 cc        1 PFY     -0.231600
     15 C24         2.4240    0.5820   -2.2040 cc        1 PFY     -0.024300
     16 C29         2.6600    1.9170   -1.6500 c3        1 PFY     -0.052800
     17 C22         1.6800   -1.5670   -2.5350 cd        1 PFY     -0.010600
     18 C28         1.0260   -2.8800   -2.3770 c3        1 PFY     -0.057800
     19 N26         2.4070   -1.1940   -3.6450 na        1 PFY     -0.134100
     20 C25         2.8730    0.1180   -3.4780 cd        1 PFY     -0.172100
     21 C           3.6540    0.8800   -4.3940 cf        1 PFY      0.069800
     22 C21         4.1710    0.5830   -5.6040 cc        1 PFY     -0.186400
     23 C20         4.1120   -0.6730   -6.4160 c         1 PFY      0.727700
     24 O32         3.5640   -1.7620   -6.1900 o         1 PFY     -0.635500
     25 N19         4.8400   -0.4520   -7.6150 n         1 PFY     -0.472100
     26 C18         5.3560    0.8430   -7.6230 ca        1 PFY      0.122600
     27 C9          6.1350    1.4920   -8.5820 ca        1 PFY     -0.199000
     28 C8          6.5140    2.8100   -8.3280 ca        1 PFY      0.026000
     29 C17         4.9660    1.5220   -6.4080 ca        1 PFY     -0.121800
     30 C10         5.3600    2.8230   -6.1950 ca        1 PFY      0.019000
     31 C7          6.1380    3.4900   -7.1640 ca        1 PFY     -0.432500
     32 S11         6.6490    5.0540   -6.8870 sy        1 PFY      1.380300
     33 O12         6.6070    5.3230   -5.5090 o         1 PFY     -0.647800
     34 O13         7.8520    5.2960   -7.5610 o         1 PFY     -0.647800
     35 C14         5.3340    5.9220   -7.6250 c3        1 PFY     -0.256300
     36 C1          5.7120    7.0690   -8.4780 ca        1 PFY     -0.030300
     37 C6          5.8610    6.9270   -9.8700 ca        1 PFY      0.029900
     38 CL6         5.6290    5.4170  -10.6260 cl        1 PFY     -0.082400
     39 C2          5.9030    8.3530   -7.9310 ca        1 PFY      0.029900
     40 CL5         5.7290    8.6210   -6.2620 cl        1 PFY     -0.082400
     41 C3          6.2440    9.4420   -8.7390 ca        1 PFY     -0.117500
     42 C4          6.3960    9.2680  -10.1110 ca        1 PFY     -0.110000
     43 C5          6.2040    8.0120  -10.6810 ca        1 PFY     -0.117500
     44 H39         0.1550   -0.8340    2.0920 h1        1 PFY      0.078700
     45 H421        3.5040   -0.9560    0.1610 h1        1 PFY      0.049700
     46 H422        3.5860    0.7760    0.7100 h1        1 PFY      0.049700
     47 H431        1.4620    1.9250    2.7240 h1        1 PFY      0.030200
     48 H432        0.1770    1.0670    3.6950 h1        1 PFY      0.030200
     49 H401        2.1780   -0.0650    4.0310 hc        1 PFY      0.052200
     50 H402        1.8430   -1.7300    3.4200 hc        1 PFY      0.052200
     51 H341       -0.2630    3.5430    3.1700 h1        1 PFY      0.045200
     52 H342       -0.1290    3.9170    1.3980 h1        1 PFY      0.045200
     53 H371       -1.6870    0.6360    0.7050 h1        1 PFY      0.045200
     54 H372       -1.8120    0.4100    2.5040 h1        1 PFY      0.045200
     55 H351       -2.5380    3.9230    3.0880 hc        1 PFY      0.044950
     56 H352       -2.4140    4.3090    1.3290 hc        1 PFY      0.044950
     57 H361       -3.5720    1.9070    2.5400 hc        1 PFY      0.044950
     58 H362       -3.3600    2.2590    0.7820 hc        1 PFY      0.044950
     59 H411        4.1690    0.0170    2.8220 hc        1 PFY      0.050700
     60 H412        3.8990   -1.7020    2.3380 hc        1 PFY      0.050700
     61 H291        1.9790    2.1180   -0.7850 hc        1 PFY      0.057700
     62 H292        3.7190    2.0100   -1.2960 hc        1 PFY      0.057700
     63 H293        2.4810    2.7050   -2.4250 hc        1 PFY      0.057700
     64 H281        0.5420   -3.2130   -3.3280 hc        1 PFY      0.067367
     65 H282        0.2390   -2.8000   -1.5830 hc        1 PFY      0.067367
     66 H283        1.7760   -3.6530   -2.0710 hc        1 PFY      0.067367
     67 H26         2.5630   -1.7600   -4.4470 hn        1 PFY      0.335700
     68 H           3.8620    1.9040   -4.0100 ha        1 PFY      0.148000
     69 H19         4.9730   -1.1220   -8.3260 hn        1 PFY      0.347500
     70 H9          6.4480    0.9870   -9.5050 ha        1 PFY      0.150000
     71 H8          7.1450    3.3360   -9.0700 ha        1 PFY      0.160000
     72 H10         5.0890    3.3530   -5.2640 ha        1 PFY      0.158000
     73 H141        4.6570    6.2950   -6.8010 h1        1 PFY      0.129200
     74 H142        4.6820    5.2280   -8.2260 h1        1 PFY      0.129200
     75 H5          6.3230    7.8740  -11.7670 ha        1 PFY      0.152500
     76 H3          6.3960   10.4350   -8.2870 ha        1 PFY      0.152500
     77 H4          6.6680   10.1240  -10.7470 ha        1 PFY      0.145000
@<TRIPOS>BOND
     1    1    2 2   
     2    2    3 1   
     3    2   14 1   
     4    3    4 1   
     5    3   13 1   
     6    4    5 1   
     7    4   11 1   
     8    4   44 1   
     9    5    6 1   
    10    5   47 1   
    11    5   48 1   
    12    6    7 1   
    13    6   10 1   
    14    7    8 1   
    15    7   51 1   
    16    7   52 1   
    17    8    9 1   
    18    8   55 1   
    19    8   56 1   
    20    9   10 1   
    21    9   57 1   
    22    9   58 1   
    23   10   53 1   
    24   10   54 1   
    25   11   12 1   
    26   11   49 1   
    27   11   50 1   
    28   12   13 1   
    29   12   59 1   
    30   12   60 1   
    31   13   45 1   
    32   13   46 1   
    33   14   15 1   
    34   14   17 2   
    35   15   16 1   
    36   15   20 2   
    37   16   61 1   
    38   16   62 1   
    39   16   63 1   
    40   17   18 1   
    41   17   19 1   
    42   18   64 1   
    43   18   65 1   
    44   18   66 1   
    45   19   20 1   
    46   19   67 1   
    47   20   21 1   
    48   21   22 2   
    49   21   68 1   
    50   22   23 1   
    51   22   29 1   
    52   23   24 2   
    53   23   25 1   
    54   25   26 1   
    55   25   69 1   
    56   26   27 ar  
    57   26   29 ar  
    58   27   28 ar  
    59   27   70 1   
    60   28   31 ar  
    61   28   71 1   
    62   29   30 ar  
    63   30   31 ar  
    64   30   72 1   
    65   31   32 1   
    66   32   33 2   
    67   32   34 2   
    68   32   35 1   
    69   35   36 1   
    70   35   73 1   
    71   35   74 1   
    72   36   37 ar  
    73   36   39 ar  
    74   37   38 1   
    75   37   43 ar  
    76   39   40 1   
    77   39   41 ar  
    78   41   42 ar  
    79   41   76 1   
    80   42   43 ar  
    81   42   77 1   
    82   43   75 1   
@<TRIPOS>SUBSTRUCTURE
     1 PFY         1 TEMP              0 ****  ****    0 ROOT
