@<TRIPOS>MOLECULE
PFY
   77    82     1     0     0
SMALL
bcc


@<TRIPOS>ATOM
      1 O31         6.5660   -0.9320    1.0720 o         1 PFY     -0.612100
      2 C30         5.8100   -0.7080    0.1030 c         1 PFY      0.712700
      3 N38         6.1750    0.1970   -0.8910 n         1 PFY     -0.441800
      4 C39         7.4960    0.8230   -0.8820 c3        1 PFY      0.091700
      5 C43         7.4740    2.2920   -0.3860 c3        1 PFY      0.173800
      6 N33         6.9630    2.4510    0.9600 n3        1 PFY     -0.719600
      7 C34         6.7170    3.8470    1.3280 c3        1 PFY      0.156800
      8 C35         7.2420    4.0950    2.7500 c3        1 PFY     -0.089900
      9 C36         7.8860    2.7890    3.1980 c3        1 PFY     -0.089900
     10 C37         7.7840    1.8300    2.0020 c3        1 PFY      0.156800
     11 C40         8.0140    0.8030   -2.3400 c3        1 PFY     -0.096400
     12 C41         6.8320    0.3910   -3.2120 c3        1 PFY     -0.095400
     13 C42         5.6720    0.0850   -2.2490 c3        1 PFY      0.083000
     14 C23         4.4940   -1.3590   -0.0080 cc        1 PFY     -0.231600
     15 C24         3.2200   -0.7540   -0.2090 cc        1 PFY     -0.024300
     16 C29         2.9270    0.6710   -0.3740 c3        1 PFY     -0.052800
     17 C22         4.2840   -2.7580    0.1540 cd        1 PFY     -0.010600
     18 C28         5.3010   -3.7960    0.4080 c3        1 PFY     -0.057800
     19 N26         2.9350   -3.0110    0.0300 na        1 PFY     -0.134100
     20 C25         2.2520   -1.8050   -0.1880 cd        1 PFY     -0.172100
     21 C           0.8500   -1.6260   -0.3590 cf        1 PFY      0.069800
     22 C21        -0.1740   -2.5020   -0.3910 cc        1 PFY     -0.186400
     23 C20        -0.1960   -3.9930   -0.2640 c         1 PFY      0.727700
     24 O32         0.7220   -4.8080   -0.0860 o         1 PFY     -0.635500
     25 N19        -1.5450   -4.4210   -0.3830 n         1 PFY     -0.472100
     26 C18        -2.3760   -3.3190   -0.5780 ca        1 PFY      0.122600
     27 C9         -3.7590   -3.2590   -0.7540 ca        1 PFY     -0.199000
     28 C8         -4.3380   -2.0030   -0.9280 ca        1 PFY      0.026000
     29 C17        -1.5790   -2.1140   -0.5850 ca        1 PFY     -0.121800
     30 C10        -2.1890   -0.8920   -0.7590 ca        1 PFY      0.019000
     31 C7         -3.5870   -0.8220   -0.9270 ca        1 PFY     -0.432500
     32 S11        -4.3210    0.6560   -1.1790 sy        1 PFY      1.380300
     33 O12        -3.3690    1.5770   -1.6460 o         1 PFY     -0.647800
     34 O13        -5.4910    0.4930   -1.9270 o         1 PFY     -0.647800
     35 C14        -4.6860    1.0810    0.4690 c3        1 PFY     -0.256300
     36 C1         -6.0370    1.6330    0.7110 ca        1 PFY     -0.030300
     37 C6         -7.1010    0.8080    1.1180 ca        1 PFY      0.029900
     38 CL6        -6.8790   -0.8680    1.3300 cl        1 PFY     -0.082900
     39 C2         -6.2960    3.0110    0.5760 ca        1 PFY      0.029900
     40 CL5        -5.0660    4.0850    0.1030 cl        1 PFY     -0.082900
     41 C3         -7.5680    3.5370    0.8200 ca        1 PFY     -0.117500
     42 C4         -8.6050    2.6950    1.2110 ca        1 PFY     -0.110000
     43 C5         -8.3750    1.3300    1.3630 ca        1 PFY     -0.117500
     44 H39         8.1830    0.2320   -0.2080 h1        1 PFY      0.078700
     45 H421        5.2490   -0.9390   -2.4400 h1        1 PFY      0.049700
     46 H422        4.8400    0.8320   -2.3850 h1        1 PFY      0.049700
     47 H431        8.5320    2.6770   -0.4920 h1        1 PFY      0.030200
     48 H432        6.8170    2.8970   -1.0730 h1        1 PFY      0.030200
     49 H401        8.4050    1.8040   -2.6420 hc        1 PFY      0.052200
     50 H402        8.8500    0.0680   -2.4320 hc        1 PFY      0.052200
     51 H341        7.1950    4.5720    0.6120 h1        1 PFY      0.045200
     52 H342        5.6060    4.0080    1.2840 h1        1 PFY      0.045200
     53 H371        7.2780    0.8680    2.2930 h1        1 PFY      0.045200
     54 H372        8.8160    1.5740    1.6310 h1        1 PFY      0.045200
     55 H351        7.9840    4.9300    2.7520 hc        1 PFY      0.044950
     56 H352        6.4040    4.3820    3.4300 hc        1 PFY      0.044950
     57 H361        8.9530    2.9420    3.4880 hc        1 PFY      0.044950
     58 H362        7.3500    2.3630    4.0810 hc        1 PFY      0.044950
     59 H411        6.5440    1.2120   -3.9120 hc        1 PFY      0.050700
     60 H412        7.0800   -0.5100   -3.8230 hc        1 PFY      0.050700
     61 H291        2.6790    0.8970   -1.4430 hc        1 PFY      0.057700
     62 H292        2.0540    0.9730    0.2580 hc        1 PFY      0.057700
     63 H293        3.8060    1.2970   -0.0760 hc        1 PFY      0.057700
     64 H281        4.9420   -4.5450    1.1580 hc        1 PFY      0.067367
     65 H282        5.5500   -4.3360   -0.5400 hc        1 PFY      0.067367
     66 H283        6.2280   -3.3080    0.8050 hc        1 PFY      0.067367
     67 H26         2.5090   -3.9060    0.1010 hn        1 PFY      0.335700
     68 H           0.5820   -0.5530   -0.4940 ha        1 PFY      0.148000
     69 H19        -1.8440   -5.3610   -0.3480 hn        1 PFY      0.347500
     70 H9         -4.3770   -4.1670   -0.7610 ha        1 PFY      0.150000
     71 H8         -5.4320   -1.9370   -1.0840 ha        1 PFY      0.160000
     72 H10        -1.5960    0.0390   -0.7880 ha        1 PFY      0.158000
     73 H141       -4.5310    0.2020    1.1540 h1        1 PFY      0.129200
     74 H142       -3.9220    1.8380    0.8110 h1        1 PFY      0.129200
     75 H5         -9.1950    0.6620    1.6720 ha        1 PFY      0.152500
     76 H3         -7.7490    4.6170    0.7010 ha        1 PFY      0.152500
     77 H4         -9.6070    3.1070    1.4000 ha        1 PFY      0.145000
@<TRIPOS>BOND
     1    1    2 2   
     2    2    3 1   
     3    2   14 1   
     4    3    4 1   
     5    3   13 1   
     6    4    5 1   
     7    4   11 1   
     8    4   44 1   
     9    5    6 1   
    10    5   47 1   
    11    5   48 1   
    12    6    7 1   
    13    6   10 1   
    14    7    8 1   
    15    7   51 1   
    16    7   52 1   
    17    8    9 1   
    18    8   55 1   
    19    8   56 1   
    20    9   10 1   
    21    9   57 1   
    22    9   58 1   
    23   10   53 1   
    24   10   54 1   
    25   11   12 1   
    26   11   49 1   
    27   11   50 1   
    28   12   13 1   
    29   12   59 1   
    30   12   60 1   
    31   13   45 1   
    32   13   46 1   
    33   14   15 1   
    34   14   17 2   
    35   15   16 1   
    36   15   20 2   
    37   16   61 1   
    38   16   62 1   
    39   16   63 1   
    40   17   18 1   
    41   17   19 1   
    42   18   64 1   
    43   18   65 1   
    44   18   66 1   
    45   19   20 1   
    46   19   67 1   
    47   20   21 1   
    48   21   22 2   
    49   21   68 1   
    50   22   23 1   
    51   22   29 1   
    52   23   24 2   
    53   23   25 1   
    54   25   26 1   
    55   25   69 1   
    56   26   27 ar  
    57   26   29 ar  
    58   27   28 ar  
    59   27   70 1   
    60   28   31 ar  
    61   28   71 1   
    62   29   30 ar  
    63   30   31 ar  
    64   30   72 1   
    65   31   32 1   
    66   32   33 2   
    67   32   34 2   
    68   32   35 1   
    69   35   36 1   
    70   35   73 1   
    71   35   74 1   
    72   36   37 ar  
    73   36   39 ar  
    74   37   38 1   
    75   37   43 ar  
    76   39   40 1   
    77   39   41 ar  
    78   41   42 ar  
    79   41   76 1   
    80   42   43 ar  
    81   42   77 1   
    82   43   75 1   
@<TRIPOS>SUBSTRUCTURE
     1 PFY         1 TEMP              0 ****  ****    0 ROOT
