@<TRIPOS>MOLECULE
PFY
   77    82     1     0     0
SMALL
bcc


@<TRIPOS>ATOM
      1 O31        -0.2180   -0.8390   -0.2360 o         1 PFY     -0.612100
      2 C30         0.9810   -0.4940   -0.3140 c         1 PFY      0.712700
      3 N38         1.6750   -0.0750    0.8190 n         1 PFY     -0.441800
      4 C39         1.0530   -0.1330    2.1400 c3        1 PFY      0.091700
      5 C43         0.5760    1.2510    2.6530 c3        1 PFY      0.173800
      6 N33        -0.3990    1.8910    1.7950 n3        1 PFY     -0.719600
      7 C34        -0.6600    3.2880    2.1510 c3        1 PFY      0.156800
      8 C35        -2.1730    3.5480    2.1020 c3        1 PFY     -0.089900
      9 C36        -2.8220    2.2120    1.7660 c3        1 PFY     -0.089900
     10 C37        -1.6800    1.1880    1.6960 c3        1 PFY      0.156800
     11 C40         2.1220   -0.6790    3.1170 c3        1 PFY     -0.096400
     12 C41         3.4440   -0.6720    2.3580 c3        1 PFY     -0.095400
     13 C42         3.1170   -0.2160    0.9250 c3        1 PFY      0.083000
     14 C23         1.6920   -0.4810   -1.6030 cc        1 PFY     -0.231600
     15 C24         2.4270    0.5840   -2.1990 cc        1 PFY     -0.024300
     16 C29         2.6630    1.9200   -1.6480 c3        1 PFY     -0.052800
     17 C22         1.6850   -1.5660   -2.5250 cd        1 PFY     -0.010600
     18 C28         1.0320   -2.8790   -2.3630 c3        1 PFY     -0.057800
     19 N26         2.4100   -1.1950   -3.6360 na        1 PFY     -0.134100
     20 C25         2.8760    0.1170   -3.4730 cd        1 PFY     -0.172100
     21 C           3.6550    0.8780   -4.3910 cf        1 PFY      0.069800
     22 C21         4.1720    0.5790   -5.6000 cc        1 PFY     -0.186400
     23 C20         4.1130   -0.6790   -6.4090 c         1 PFY      0.727700
     24 O32         3.5660   -1.7680   -6.1810 o         1 PFY     -0.635500
     25 N19         4.8400   -0.4600   -7.6090 n         1 PFY     -0.472100
     26 C18         5.3540    0.8360   -7.6210 ca        1 PFY      0.122600
     27 C9          6.1330    1.4830   -8.5820 ca        1 PFY     -0.199000
     28 C8          6.5110    2.8020   -8.3310 ca        1 PFY      0.026000
     29 C17         4.9650    1.5170   -6.4070 ca        1 PFY     -0.121800
     30 C10         5.3580    2.8190   -6.1970 ca        1 PFY      0.019000
     31 C7          6.1350    3.4840   -7.1680 ca        1 PFY     -0.432500
     32 S11         6.6450    5.0500   -6.8950 sy        1 PFY      1.380300
     33 O12         6.6060    5.3210   -5.5180 o         1 PFY     -0.647800
     34 O13         7.8450    5.2920   -7.5720 o         1 PFY     -0.647800
     35 C14         5.3270    5.9150   -7.6300 c3        1 PFY     -0.256300
     36 C1          5.7020    7.0580   -8.4920 ca        1 PFY     -0.030300
     37 C6          5.8420    6.9090   -9.8830 ca        1 PFY      0.029900
     38 CL6         5.6020    5.3960  -10.6310 cl        1 PFY     -0.082900
     39 C2          5.8980    8.3430   -7.9520 ca        1 PFY      0.029900
     40 CL5         5.7360    8.6200   -6.2820 cl        1 PFY     -0.082900
     41 C3          6.2360    9.4280   -8.7660 ca        1 PFY     -0.117500
     42 C4          6.3790    9.2480  -10.1390 ca        1 PFY     -0.110000
     43 C5          6.1810    7.9900  -10.7020 ca        1 PFY     -0.117500
     44 H39         0.1610   -0.8240    2.1010 h1        1 PFY      0.078700
     45 H421        3.5910    0.7840    0.7140 h1        1 PFY      0.049700
     46 H422        3.5090   -0.9490    0.1700 h1        1 PFY      0.049700
     47 H431        1.4670    1.9370    2.7270 h1        1 PFY      0.030200
     48 H432        0.1820    1.0810    3.7000 h1        1 PFY      0.030200
     49 H401        2.1840   -0.0490    4.0370 hc        1 PFY      0.052200
     50 H402        1.8500   -1.7160    3.4310 hc        1 PFY      0.052200
     51 H341       -0.2580    3.5560    3.1680 h1        1 PFY      0.045200
     52 H342       -0.1250    3.9250    1.3960 h1        1 PFY      0.045200
     53 H371       -1.8070    0.4210    2.5100 h1        1 PFY      0.045200
     54 H372       -1.6830    0.6420    0.7110 h1        1 PFY      0.045200
     55 H351       -2.5340    3.9350    3.0860 hc        1 PFY      0.044950
     56 H352       -2.4100    4.3160    1.3270 hc        1 PFY      0.044950
     57 H361       -3.3560    2.2640    0.7860 hc        1 PFY      0.044950
     58 H362       -3.5670    1.9170    2.5440 hc        1 PFY      0.044950
     59 H411        4.1740    0.0310    2.8280 hc        1 PFY      0.050700
     60 H412        3.9060   -1.6890    2.3480 hc        1 PFY      0.050700
     61 H291        1.9820    2.1220   -0.7830 hc        1 PFY      0.057700
     62 H292        3.7220    2.0140   -1.2940 hc        1 PFY      0.057700
     63 H293        2.4830    2.7060   -2.4250 hc        1 PFY      0.057700
     64 H281        0.2450   -2.7990   -1.5690 hc        1 PFY      0.067367
     65 H282        0.5470   -3.2150   -3.3140 hc        1 PFY      0.067367
     66 H283        1.7820   -3.6510   -2.0560 hc        1 PFY      0.067367
     67 H26         2.5670   -1.7630   -4.4370 hn        1 PFY      0.335700
     68 H           3.8630    1.9030   -4.0080 ha        1 PFY      0.148000
     69 H19         4.9720   -1.1310   -8.3200 hn        1 PFY      0.347500
     70 H9          6.4450    0.9760   -9.5040 ha        1 PFY      0.150000
     71 H8          7.1400    3.3270   -9.0750 ha        1 PFY      0.160000
     72 H10         5.0880    3.3510   -5.2670 ha        1 PFY      0.158000
     73 H141        4.6710    5.2190   -8.2240 h1        1 PFY      0.129200
     74 H142        4.6550    6.2920   -6.8050 h1        1 PFY      0.129200
     75 H5          6.2930    7.8460  -11.7870 ha        1 PFY      0.152500
     76 H3          6.3920   10.4230   -8.3200 ha        1 PFY      0.152500
     77 H4          6.6490   10.1000  -10.7800 ha        1 PFY      0.145000
@<TRIPOS>BOND
     1    1    2 2   
     2    2    3 1   
     3    2   14 1   
     4    3    4 1   
     5    3   13 1   
     6    4    5 1   
     7    4   11 1   
     8    4   44 1   
     9    5    6 1   
    10    5   47 1   
    11    5   48 1   
    12    6    7 1   
    13    6   10 1   
    14    7    8 1   
    15    7   51 1   
    16    7   52 1   
    17    8    9 1   
    18    8   55 1   
    19    8   56 1   
    20    9   10 1   
    21    9   57 1   
    22    9   58 1   
    23   10   53 1   
    24   10   54 1   
    25   11   12 1   
    26   11   49 1   
    27   11   50 1   
    28   12   13 1   
    29   12   59 1   
    30   12   60 1   
    31   13   45 1   
    32   13   46 1   
    33   14   15 1   
    34   14   17 2   
    35   15   16 1   
    36   15   20 2   
    37   16   61 1   
    38   16   62 1   
    39   16   63 1   
    40   17   18 1   
    41   17   19 1   
    42   18   64 1   
    43   18   65 1   
    44   18   66 1   
    45   19   20 1   
    46   19   67 1   
    47   20   21 1   
    48   21   22 2   
    49   21   68 1   
    50   22   23 1   
    51   22   29 1   
    52   23   24 2   
    53   23   25 1   
    54   25   26 1   
    55   25   69 1   
    56   26   27 ar  
    57   26   29 ar  
    58   27   28 ar  
    59   27   70 1   
    60   28   31 ar  
    61   28   71 1   
    62   29   30 ar  
    63   30   31 ar  
    64   30   72 1   
    65   31   32 1   
    66   32   33 2   
    67   32   34 2   
    68   32   35 1   
    69   35   36 1   
    70   35   73 1   
    71   35   74 1   
    72   36   37 ar  
    73   36   39 ar  
    74   37   38 1   
    75   37   43 ar  
    76   39   40 1   
    77   39   41 ar  
    78   41   42 ar  
    79   41   76 1   
    80   42   43 ar  
    81   42   77 1   
    82   43   75 1   
@<TRIPOS>SUBSTRUCTURE
     1 PFY         1 TEMP              0 ****  ****    0 ROOT
