@<TRIPOS>MOLECULE
PFY
   77    82     1     0     0
SMALL
bcc


@<TRIPOS>ATOM
      1 O31        -0.2100   -0.8480   -0.2360 o         1 PFY     -0.612100
      2 C30         0.9880   -0.5000   -0.3140 c         1 PFY      0.712700
      3 N38         1.6810   -0.0790    0.8190 n         1 PFY     -0.441800
      4 C39         1.0590   -0.1360    2.1400 c3        1 PFY      0.091700
      5 C43         0.5790    1.2460    2.6510 c3        1 PFY      0.173800
      6 N33        -0.3980    1.8840    1.7930 n3        1 PFY     -0.719600
      7 C34        -0.6610    3.2800    2.1480 c3        1 PFY      0.156800
      8 C35        -2.1750    3.5380    2.0980 c3        1 PFY     -0.089900
      9 C36        -2.8210    2.2000    1.7620 c3        1 PFY     -0.089900
     10 C37        -1.6770    1.1780    1.6940 c3        1 PFY      0.156800
     11 C40         2.1290   -0.6800    3.1180 c3        1 PFY     -0.096400
     12 C41         3.4510   -0.6700    2.3590 c3        1 PFY     -0.095400
     13 C42         3.1230   -0.2160    0.9260 c3        1 PFY      0.083000
     14 C23         1.6990   -0.4860   -1.6030 cc        1 PFY     -0.231600
     15 C24         2.4310    0.5810   -2.2000 cc        1 PFY     -0.024300
     16 C29         2.6640    1.9180   -1.6490 c3        1 PFY     -0.052800
     17 C22         1.6940   -1.5700   -2.5250 cd        1 PFY     -0.010600
     18 C28         1.0440   -2.8850   -2.3630 c3        1 PFY     -0.057800
     19 N26         2.4180   -1.1980   -3.6360 na        1 PFY     -0.134100
     20 C25         2.8810    0.1160   -3.4730 cd        1 PFY     -0.172100
     21 C           3.6580    0.8780   -4.3910 cf        1 PFY      0.069800
     22 C21         4.1750    0.5800   -5.6010 cc        1 PFY     -0.186400
     23 C20         4.1170   -0.6770   -6.4110 c         1 PFY      0.727700
     24 O32         3.5730   -1.7680   -6.1830 o         1 PFY     -0.635500
     25 N19         4.8430   -0.4550   -7.6110 ns        1 PFY     -0.472100
     26 C18         5.3550    0.8410   -7.6230 ca        1 PFY      0.122600
     27 C9          6.1310    1.4910   -8.5840 ca        1 PFY     -0.199000
     28 C8          6.5070    2.8100   -8.3330 ca        1 PFY      0.026000
     29 C17         4.9660    1.5210   -6.4080 ca        1 PFY     -0.121800
     30 C10         5.3560    2.8230   -6.1980 ca        1 PFY      0.019000
     31 C7          6.1310    3.4900   -7.1690 ca        1 PFY     -0.432500
     32 S11         6.6390    5.0570   -6.8950 sy        1 PFY      1.380300
     33 O12         6.6010    5.3270   -5.5180 o         1 PFY     -0.647800
     34 O13         7.8380    5.3010   -7.5740 o         1 PFY     -0.647800
     35 C14         5.3180    5.9200   -7.6280 c3        1 PFY     -0.256300
     36 C1          5.6900    7.0650   -8.4880 ca        1 PFY     -0.030300
     37 C6          5.8300    6.9180   -9.8800 ca        1 PFY      0.029900
     38 Cl6         5.5950    5.4060  -10.6300 cl        1 PFY     -0.082900
     39 C2          5.8830    8.3500   -7.9460 ca        1 PFY      0.029900
     40 Cl5         5.7190    8.6240   -6.2760 cl        1 PFY     -0.082900
     41 C3          6.2180    9.4370   -8.7590 ca        1 PFY     -0.117500
     42 C4          6.3610    9.2590  -10.1320 ca        1 PFY     -0.110000
     43 C5          6.1670    8.0020  -10.6970 ca        1 PFY     -0.117500
     44 H39         0.1680   -0.8300    2.1010 h1        1 PFY      0.078700
     45 H421        3.5950    0.7840    0.7130 h1        1 PFY      0.049700
     46 H422        3.5170   -0.9490    0.1700 h1        1 PFY      0.049700
     47 H431        0.1850    1.0760    3.6980 h1        1 PFY      0.030200
     48 H432        1.4680    1.9340    2.7250 h1        1 PFY      0.030200
     49 H401        2.1900   -0.0490    4.0370 hc        1 PFY      0.052200
     50 H402        1.8590   -1.7170    3.4320 hc        1 PFY      0.052200
     51 H341       -0.1270    3.9180    1.3930 h1        1 PFY      0.045200
     52 H342       -0.2610    3.5500    3.1650 h1        1 PFY      0.045200
     53 H371       -1.6780    0.6310    0.7100 h1        1 PFY      0.045200
     54 H372       -1.8020    0.4110    2.5090 h1        1 PFY      0.045200
     55 H351       -2.4130    4.3040    1.3210 hc        1 PFY      0.044950
     56 H352       -2.5370    3.9250    3.0810 hc        1 PFY      0.044950
     57 H361       -3.5660    1.9040    2.5400 hc        1 PFY      0.044950
     58 H362       -3.3540    2.2500    0.7820 hc        1 PFY      0.044950
     59 H411        4.1800    0.0350    2.8280 hc        1 PFY      0.050700
     60 H412        3.9150   -1.6870    2.3490 hc        1 PFY      0.050700
     61 H291        1.9820    2.1190   -0.7830 hc        1 PFY      0.057700
     62 H292        2.4820    2.7040   -2.4250 hc        1 PFY      0.057700
     63 H293        3.7230    2.0150   -1.2950 hc        1 PFY      0.057700
     64 H281        0.2580   -2.8070   -1.5680 hc        1 PFY      0.067033
     65 H282        0.5590   -3.2210   -3.3130 hc        1 PFY      0.067033
     66 H283        1.7960   -3.6560   -2.0570 hc        1 PFY      0.067033
     67 H26         2.5760   -1.7650   -4.4370 hn        1 PFY      0.335700
     68 H           3.8640    1.9040   -4.0090 ha        1 PFY      0.148000
     69 H19         4.9760   -1.1270   -8.3220 hn        1 PFY      0.347500
     70 H9          6.4440    0.9850   -9.5070 ha        1 PFY      0.150000
     71 H8          7.1340    3.3360   -9.0770 ha        1 PFY      0.160000
     72 H10         5.0860    3.3540   -5.2670 ha        1 PFY      0.158000
     73 H141        4.6640    5.2230   -8.2230 h1        1 PFY      0.129200
     74 H142        4.6450    6.2950   -6.8020 h1        1 PFY      0.129200
     75 H5          6.2800    7.8600  -11.7830 ha        1 PFY      0.152500
     76 H3          6.3710   10.4320   -8.3120 ha        1 PFY      0.152500
     77 H4          6.6290   10.1140  -10.7720 ha        1 PFY      0.145000
@<TRIPOS>BOND
     1    1    2 2   
     2    2    3 1   
     3    2   14 1   
     4    3    4 1   
     5    3   13 1   
     6    4    5 1   
     7    4   11 1   
     8    4   44 1   
     9    5    6 1   
    10    5   47 1   
    11    5   48 1   
    12    6    7 1   
    13    6   10 1   
    14    7    8 1   
    15    7   51 1   
    16    7   52 1   
    17    8    9 1   
    18    8   55 1   
    19    8   56 1   
    20    9   10 1   
    21    9   57 1   
    22    9   58 1   
    23   10   53 1   
    24   10   54 1   
    25   11   12 1   
    26   11   49 1   
    27   11   50 1   
    28   12   13 1   
    29   12   59 1   
    30   12   60 1   
    31   13   45 1   
    32   13   46 1   
    33   14   15 1   
    34   14   17 2   
    35   15   16 1   
    36   15   20 2   
    37   16   61 1   
    38   16   62 1   
    39   16   63 1   
    40   17   18 1   
    41   17   19 1   
    42   18   64 1   
    43   18   65 1   
    44   18   66 1   
    45   19   20 1   
    46   19   67 1   
    47   20   21 1   
    48   21   22 2   
    49   21   68 1   
    50   22   23 1   
    51   22   29 1   
    52   23   24 2   
    53   23   25 1   
    54   25   26 1   
    55   25   69 1   
    56   26   27 ar  
    57   26   29 ar  
    58   27   28 ar  
    59   27   70 1   
    60   28   31 ar  
    61   28   71 1   
    62   29   30 ar  
    63   30   31 ar  
    64   30   72 1   
    65   31   32 1   
    66   32   33 2   
    67   32   34 2   
    68   32   35 1   
    69   35   36 1   
    70   35   73 1   
    71   35   74 1   
    72   36   37 ar  
    73   36   39 ar  
    74   37   38 1   
    75   37   43 ar  
    76   39   40 1   
    77   39   41 ar  
    78   41   42 ar  
    79   41   76 1   
    80   42   43 ar  
    81   42   77 1   
    82   43   75 1   
@<TRIPOS>SUBSTRUCTURE
     1 PFY         1 TEMP              0 ****  ****    0 ROOT
