@<TRIPOS>MOLECULE
PFZ
   44    45     1     0     0
SMALL
bcc


@<TRIPOS>ATOM
      1 C1         -0.0870   -0.0280   -0.0070 c3        1 PFZ      0.189100
      2 O2          1.3420   -0.0070   -0.0720 oh        1 PFZ     -0.599800
      3 C3         -0.5520    0.0550    1.4310 ca        1 PFZ     -0.099300
      4 C4         -0.6470    1.1510   -0.8190 c3        1 PFZ     -0.114400
      5 C5         -0.4740   -1.3760   -0.6810 c3        1 PFZ      0.052300
      6 C6         -0.0990    1.2070   -2.2290 c3        1 PFZ     -0.082400
      7 C7         -0.4610    2.5160   -2.8990 c3        1 PFZ     -0.079400
      8 C8          0.0480    2.5600   -4.3240 c3        1 PFZ     -0.079400
      9 C9         -0.3050    3.8710   -4.9930 c3        1 PFZ     -0.080400
     10 C10         0.1980    3.9190   -6.4130 c3        1 PFZ     -0.093100
     11 N11        -0.1410   -2.5500    0.0580 na        1 PFZ     -0.206900
     12 C12         0.4180    0.1450    2.4420 ca        1 PFZ     -0.100000
     13 C13         0.0740    0.2520    3.7850 ca        1 PFZ     -0.119000
     14 C14        -1.2750    0.2660    4.1490 ca        1 PFZ      0.028400
     15 C15        -2.2640    0.1540    3.1720 ca        1 PFZ     -0.123000
     16 C16        -1.9000    0.0420    1.8240 ca        1 PFZ      0.037400
     17 C17        -1.0340   -3.4930    0.5820 cc        1 PFZ     -0.258600
     18 C18        -0.2410   -4.4800    1.1930 cd        1 PFZ      0.289200
     19 N19         1.1110   -4.1620    1.0620 nd        1 PFZ     -0.675000
     20 C20         1.1520   -2.9990    0.3800 cc        1 PFZ      0.403400
     21 Cl21       -3.1930   -0.1310    0.7230 cl        1 PFZ     -0.096400
     22 Cl22       -1.7160    0.4080    5.7820 cl        1 PFZ     -0.078400
     23 HO2         1.6250    0.8980    0.1090 ho        1 PFZ      0.409000
     24 H41        -0.3850    2.1000   -0.2790 hc        1 PFZ      0.060700
     25 H42        -1.7640    1.0870   -0.8590 hc        1 PFZ      0.060700
     26 H51        -1.5820   -1.3670   -0.8780 h1        1 PFZ      0.075700
     27 H52         0.0760   -1.4100   -1.6670 h1        1 PFZ      0.075700
     28 H61        -0.5140    0.3540   -2.8300 hc        1 PFZ      0.048200
     29 H62         1.0170    1.0850   -2.2110 hc        1 PFZ      0.048200
     30 H71        -1.5750    2.6460   -2.8930 hc        1 PFZ      0.040700
     31 H72        -0.0250    3.3710   -2.3170 hc        1 PFZ      0.040700
     32 H81        -0.3930    1.7100   -4.9080 hc        1 PFZ      0.041200
     33 H82         1.1610    2.4220   -4.3300 hc        1 PFZ      0.041200
     34 H91        -1.4180    4.0080   -4.9830 hc        1 PFZ      0.038700
     35 H92         0.1370    4.7200   -4.4080 hc        1 PFZ      0.038700
     36 H101        1.3090    3.8090   -6.4410 hc        1 PFZ      0.034033
     37 H102       -0.2510    3.0950   -7.0180 hc        1 PFZ      0.034033
     38 H103       -0.0720    4.8930   -6.8870 hc        1 PFZ      0.034033
     39 H12         1.4880    0.1070    2.1750 ha        1 PFZ      0.155000
     40 H13         0.8610    0.3180    4.5530 ha        1 PFZ      0.155000
     41 H15        -3.3280    0.1480    3.4580 ha        1 PFZ      0.163000
     42 H17        -2.1120   -3.3950    0.4820 h4        1 PFZ      0.175000
     43 H18        -0.5650   -5.3830    1.7090 h4        1 PFZ      0.040100
     44 H20         2.0450   -2.4280    0.1020 h5        1 PFZ      0.071100
@<TRIPOS>BOND
     1    1    2 1   
     2    1    3 1   
     3    1    4 1   
     4    1    5 1   
     5    2   23 1   
     6    3   12 ar  
     7    3   16 ar  
     8    4    6 1   
     9    4   24 1   
    10    4   25 1   
    11    5   11 1   
    12    5   26 1   
    13    5   27 1   
    14    6    7 1   
    15    6   28 1   
    16    6   29 1   
    17    7    8 1   
    18    7   30 1   
    19    7   31 1   
    20    8    9 1   
    21    8   32 1   
    22    8   33 1   
    23    9   10 1   
    24    9   34 1   
    25    9   35 1   
    26   10   36 1   
    27   10   37 1   
    28   10   38 1   
    29   11   17 1   
    30   11   20 1   
    31   12   13 ar  
    32   12   39 1   
    33   13   14 ar  
    34   13   40 1   
    35   14   15 ar  
    36   14   22 1   
    37   15   16 ar  
    38   15   41 1   
    39   16   21 1   
    40   17   18 2   
    41   17   42 1   
    42   18   19 1   
    43   18   43 1   
    44   19   20 2   
    45   20   44 1   
@<TRIPOS>SUBSTRUCTURE
     1 PFZ         1 TEMP              0 ****  ****    0 ROOT
