@<TRIPOS>MOLECULE
PG0
   20    19     1     0     0
SMALL
bcc


@<TRIPOS>ATOM
      1 C5          0.0010   -0.1780    0.0150 c3        1 PG0      0.116700
      2 O2          1.3740   -0.4320    0.2560 os        1 PG0     -0.424600
      3 C4          1.8870    0.3220    1.3530 c3        1 PG0      0.123400
      4 C3          3.3900    0.0640    1.3900 c3        1 PG0      0.129400
      5 O1          4.0190    1.2820    0.9950 os        1 PG0     -0.438600
      6 C2          5.4250    1.1310    0.8100 c3        1 PG0      0.087400
      7 C1          5.9570    2.5150    0.4530 c3        1 PG0      0.131400
      8 OTT         5.8270    3.4170    1.5320 oh        1 PG0     -0.600800
      9 H51        -0.6130   -0.4480    0.9090 h1        1 PG0      0.033700
     10 H52        -0.2560   -0.8360   -0.8520 h1        1 PG0      0.033700
     11 H53        -0.1610    0.8970   -0.2470 h1        1 PG0      0.033700
     12 H41         1.4040   -0.0330    2.3010 h1        1 PG0      0.042700
     13 H42         1.6720    1.4140    1.2070 h1        1 PG0      0.042700
     14 H31         3.6690   -0.7640    0.6850 h1        1 PG0      0.044700
     15 H32         3.7200   -0.1970    2.4290 h1        1 PG0      0.044700
     16 H21         5.8930    0.7570    1.7590 h1        1 PG0      0.039700
     17 H22         5.6250    0.4050   -0.0210 h1        1 PG0      0.039700
     18 H11         7.0590    2.4580    0.2500 h1        1 PG0      0.053700
     19 H12         5.4190    2.9120   -0.4490 h1        1 PG0      0.053700
     20 HTT         4.8910    3.4350    1.7720 ho        1 PG0      0.412000
@<TRIPOS>BOND
     1    1    2 1   
     2    1    9 1   
     3    1   10 1   
     4    1   11 1   
     5    2    3 1   
     6    3    4 1   
     7    3   12 1   
     8    3   13 1   
     9    4    5 1   
    10    4   14 1   
    11    4   15 1   
    12    5    6 1   
    13    6    7 1   
    14    6   16 1   
    15    6   17 1   
    16    7    8 1   
    17    7   18 1   
    18    7   19 1   
    19    8   20 1   
@<TRIPOS>SUBSTRUCTURE
     1 PG0         1 TEMP              0 ****  ****    0 ROOT
