@<TRIPOS>MOLECULE
PG0
   20    19     1     0     0
SMALL
bcc


@<TRIPOS>ATOM
      1 C5          3.6420   -0.7190   -0.1110 c3        1 PG0      0.116700
      2 O2          2.5580    0.1540   -0.3770 os        1 PG0     -0.424600
      3 C4          1.6300    0.2210    0.7040 c3        1 PG0      0.123400
      4 C3          0.4570    1.0640    0.2150 c3        1 PG0      0.129400
      5 O1         -0.6480    0.1730    0.0680 os        1 PG0     -0.438600
      6 C2         -1.7680    0.7960   -0.5580 c3        1 PG0      0.087400
      7 C1         -2.8740   -0.2530   -0.5890 c3        1 PG0      0.131400
      8 OTT        -3.3200   -0.5780    0.7120 oh        1 PG0     -0.600800
      9 H51         4.2140   -0.3750    0.7860 h1        1 PG0      0.033700
     10 H52         3.2770   -1.7640    0.0480 h1        1 PG0      0.033700
     11 H53         4.2790   -0.6610   -1.0290 h1        1 PG0      0.033700
     12 H41         1.2900   -0.8100    0.9880 h1        1 PG0      0.042700
     13 H42         2.1240    0.7100    1.5840 h1        1 PG0      0.042700
     14 H31         0.1940    1.8510    0.9700 h1        1 PG0      0.044700
     15 H32         0.6980    1.5490   -0.7680 h1        1 PG0      0.044700
     16 H21        -2.0840    1.6920    0.0390 h1        1 PG0      0.039700
     17 H22        -1.4950    1.1130   -1.5990 h1        1 PG0      0.039700
     18 H11        -3.7760    0.1610   -1.1120 h1        1 PG0      0.053700
     19 H12        -2.5130   -1.1760   -1.1150 h1        1 PG0      0.053700
     20 HTT        -2.5460   -0.8760    1.2070 ho        1 PG0      0.412000
@<TRIPOS>BOND
     1    1    2 1   
     2    1    9 1   
     3    1   10 1   
     4    1   11 1   
     5    2    3 1   
     6    3    4 1   
     7    3   12 1   
     8    3   13 1   
     9    4    5 1   
    10    4   14 1   
    11    4   15 1   
    12    5    6 1   
    13    6    7 1   
    14    6   16 1   
    15    6   17 1   
    16    7    8 1   
    17    7   18 1   
    18    7   19 1   
    19    8   20 1   
@<TRIPOS>SUBSTRUCTURE
     1 PG0         1 TEMP              0 ****  ****    0 ROOT
