@<TRIPOS>MOLECULE
PG0
   20    19     1     0     0
SMALL
bcc


@<TRIPOS>ATOM
      1 C5          0.0160   -0.1650   -0.0540 c3        1 PG0      0.116700
      2 O2          1.3830   -0.4240    0.2140 os        1 PG0     -0.424600
      3 C4          1.8750    0.3230    1.3250 c3        1 PG0      0.123400
      4 C3          3.3760    0.0620    1.3910 c3        1 PG0      0.129400
      5 O1          4.0170    1.2790    1.0100 os        1 PG0     -0.438600
      6 C2          5.4260    1.1250    0.8530 c3        1 PG0      0.087400
      7 C1          5.9670    2.5080    0.5080 c3        1 PG0      0.131400
      8 OTT         5.8180    3.4090    1.5850 oh        1 PG0     -0.600800
      9 H51        -0.6170   -0.4380    0.8260 h1        1 PG0      0.033700
     10 H52        -0.2250   -0.8180   -0.9300 h1        1 PG0      0.033700
     11 H53        -0.1380    0.9120   -0.3140 h1        1 PG0      0.033700
     12 H41         1.3730   -0.0350    2.2620 h1        1 PG0      0.042700
     13 H42         1.6660    1.4170    1.1800 h1        1 PG0      0.042700
     14 H31         3.6670   -0.7650    0.6910 h1        1 PG0      0.044700
     15 H32         3.6850   -0.2020    2.4370 h1        1 PG0      0.044700
     16 H21         5.8730    0.7490    1.8110 h1        1 PG0      0.039700
     17 H22         5.6390    0.3990    0.0250 h1        1 PG0      0.039700
     18 H11         7.0730    2.4490    0.3270 h1        1 PG0      0.053700
     19 H12         5.4480    2.9070   -0.4040 h1        1 PG0      0.053700
     20 HTT         4.8780    3.4290    1.8060 ho        1 PG0      0.412000
@<TRIPOS>BOND
     1    1    2 1   
     2    1    9 1   
     3    1   10 1   
     4    1   11 1   
     5    2    3 1   
     6    3    4 1   
     7    3   12 1   
     8    3   13 1   
     9    4    5 1   
    10    4   14 1   
    11    4   15 1   
    12    5    6 1   
    13    6    7 1   
    14    6   16 1   
    15    6   17 1   
    16    7    8 1   
    17    7   18 1   
    18    7   19 1   
    19    8   20 1   
@<TRIPOS>SUBSTRUCTURE
     1 PG0         1 TEMP              0 ****  ****    0 ROOT
