@<TRIPOS>MOLECULE
PG1
   53    54     1     0     0
SMALL
bcc


@<TRIPOS>ATOM
      1 S1         -0.6130    3.2160    1.3370 ss        1 PG1     -0.465200
      2 C2          0.5490    4.1740    2.3530 c3        1 PG1      0.071100
      3 C3          0.2070    3.7700    3.8100 c3        1 PG1      0.027500
      4 N4         -0.3340    2.4200    3.8810 n3        1 PG1     -0.794200
      5 C5         -1.0910    2.0890    2.6960 c3        1 PG1      0.289600
      6 C6         -2.6440    2.1470    2.8680 c3        1 PG1      0.077700
      7 C7         -3.1020    0.7390    3.2810 c         1 PG1      0.621100
      8 O8         -3.4840    0.3600    4.3910 o         1 PG1     -0.563000
      9 C9          0.3180    5.6480    2.1400 c3        1 PG1     -0.077600
     10 C10         1.9590    3.7880    1.9770 c3        1 PG1     -0.077600
     11 C11         1.4450    3.9900    4.7450 c         1 PG1      0.928600
     12 O12         2.2820    3.0580    4.8720 o         1 PG1     -0.834800
     13 O13         1.5150    5.1150    5.3160 o         1 PG1     -0.834800
     14 N14        -3.1060    3.1300    3.8050 n         1 PG1     -0.533900
     15 C15        -4.0940    4.0490    3.5510 c         1 PG1      0.674100
     16 O16        -4.6790    4.1380    2.4520 o         1 PG1     -0.621100
     17 C17        -4.4780    4.9760    4.7070 c3        1 PG1     -0.108100
     18 C18        -3.4680    6.0460    4.9180 ca        1 PG1     -0.086300
     19 C19        -2.2320    5.7550    5.5080 ca        1 PG1     -0.127000
     20 C20        -1.2510    6.7410    5.6250 ca        1 PG1     -0.127500
     21 C21        -1.5300    8.0450    5.2180 ca        1 PG1     -0.142000
     22 C22        -2.7770    8.3550    4.6730 ca        1 PG1     -0.127500
     23 C23        -3.7370    7.3590    4.5100 ca        1 PG1     -0.127000
     24 N          -5.8350   -1.0010    2.9500 n3        1 PG1     -0.903800
     25 CA         -4.9000   -1.7220    2.1040 c3        1 PG1      0.006500
     26 CB         -3.4310   -1.5060    2.4730 c3        1 PG1      0.142400
     27 OG         -3.0220   -0.1430    2.2510 os        1 PG1     -0.440900
     28 C          -5.1290   -3.2700    2.0270 c         1 PG1      0.893600
     29 O          -4.3010   -3.9470    1.3560 o         1 PG1     -0.846300
     30 OXT        -6.1330   -3.7610    2.6170 o         1 PG1     -0.846300
     31 H12        -0.6030    4.4700    4.1730 h1        1 PG1      0.063700
     32 H11         0.4130    1.7630    4.0370 hn        1 PG1      0.393800
     33 H10        -0.8560    1.0500    2.3320 h2        1 PG1      0.085700
     34 H9         -3.0940    2.3670    1.8510 h1        1 PG1      0.125700
     35 H14         0.7060    5.9680    1.1430 hc        1 PG1      0.041200
     36 H15        -0.7710    5.8900    2.1940 hc        1 PG1      0.041200
     37 H16         0.8530    6.2190    2.9420 hc        1 PG1      0.041200
     38 H17         2.1250    3.9170    0.8810 hc        1 PG1      0.041200
     39 H18         2.6850    4.4290    2.5370 hc        1 PG1      0.041200
     40 H19         2.1600    2.7260    2.2600 hc        1 PG1      0.041200
     41 H8         -2.6990    3.0950    4.7130 hn        1 PG1      0.332500
     42 H6         -4.6060    4.3760    5.6470 hc        1 PG1      0.065700
     43 H7         -5.4750    5.4220    4.4470 hc        1 PG1      0.065700
     44 H5         -2.0090    4.7370    5.8650 ha        1 PG1      0.134000
     45 H4         -0.2420    6.4570    5.9860 ha        1 PG1      0.152500
     46 H3         -0.7600    8.8240    5.3100 ha        1 PG1      0.120000
     47 HC22       -2.9970    9.3820    4.3520 ha        1 PG1      0.152500
     48 H1         -4.7040    7.5980    4.0440 ha        1 PG1      0.134000
     49 H2         -6.6470   -1.5830    3.0820 hn        1 PG1      0.342300
     50 H22        -5.0560   -1.3270    1.0570 h1        1 PG1      0.054700
     51 HB2        -3.2190   -1.8040    3.5310 h1        1 PG1      0.070200
     52 HB3        -2.7850   -2.0880    1.7600 h1        1 PG1      0.070200
     53 H          -5.4260   -0.8470    3.8540 hn        1 PG1      0.342300
@<TRIPOS>BOND
     1    1    2 1   
     2    1    5 1   
     3    2    3 1   
     4    2    9 1   
     5    2   10 1   
     6    3    4 1   
     7    3   11 1   
     8    3   31 1   
     9    4    5 1   
    10    4   32 1   
    11    5    6 1   
    12    5   33 1   
    13    6    7 1   
    14    6   14 1   
    15    6   34 1   
    16    7    8 2   
    17    7   27 1   
    18    9   35 1   
    19    9   36 1   
    20    9   37 1   
    21   10   38 1   
    22   10   39 1   
    23   10   40 1   
    24   11   12 1   
    25   11   13 1   
    26   14   15 1   
    27   14   41 1   
    28   15   16 2   
    29   15   17 1   
    30   17   18 1   
    31   17   42 1   
    32   17   43 1   
    33   18   19 ar  
    34   18   23 ar  
    35   19   20 ar  
    36   19   44 1   
    37   20   21 ar  
    38   20   45 1   
    39   21   22 ar  
    40   21   46 1   
    41   22   23 ar  
    42   22   47 1   
    43   23   48 1   
    44   24   25 1   
    45   24   49 1   
    46   24   53 1   
    47   25   26 1   
    48   25   28 1   
    49   25   50 1   
    50   26   27 1   
    51   26   51 1   
    52   26   52 1   
    53   28   29 1   
    54   28   30 1   
@<TRIPOS>SUBSTRUCTURE
     1 PG1         1 TEMP              0 ****  ****    0 ROOT
