@<TRIPOS>MOLECULE
PG2
   56    56     1     0     0
SMALL
bcc


@<TRIPOS>ATOM
      1 C1          0.1360    3.4470   -0.4120 c         1 PG2      0.902600
      2 C2         -1.0060    2.7690   -1.1800 c3        1 PG2     -0.193400
      3 C3         -1.6410    1.6560   -0.3830 c3        1 PG2     -0.056400
      4 C4         -2.5610    0.8020   -1.2370 c3        1 PG2     -0.057200
      5 C5         -3.2490   -0.2350   -0.4310 c2        1 PG2     -0.148200
      6 C6         -2.7950   -1.4640   -0.1710 c2        1 PG2     -0.187200
      7 C7         -1.5150   -2.0350   -0.6540 c3        1 PG2     -0.033200
      8 C8         -0.8060   -2.8310    0.4290 c3        1 PG2     -0.050700
      9 C9         -1.5620   -4.1030    0.8710 c3        1 PG2      0.141100
     10 C10        -0.5010   -5.1750    1.1420 c3        1 PG2     -0.228400
     11 C11         0.7640   -4.7020    0.4770 c         1 PG2      0.587100
     12 C12         0.5940   -3.2790   -0.0200 c3        1 PG2     -0.121500
     13 C13         1.7130   -2.4200    0.4450 c2        1 PG2     -0.196200
     14 C14         1.6260   -1.1160    0.7130 c2        1 PG2     -0.170200
     15 C15         2.7840   -0.2750    1.1540 c3        1 PG2      0.166300
     16 C16         2.8130    1.0250    0.3580 c3        1 PG2     -0.132400
     17 C17         3.8680    1.9800    0.8690 c3        1 PG2     -0.055400
     18 C18         3.8120    3.2820    0.0970 c3        1 PG2     -0.105400
     19 C19         4.7280    4.3230    0.7000 c3        1 PG2     -0.065400
     20 C20         4.6780    5.6090   -0.0840 c3        1 PG2     -0.091100
     21 O1          0.8060    4.3350   -1.0130 o         1 PG2     -0.853300
     22 O2          0.3810    3.0880    0.7790 o         1 PG2     -0.853300
     23 O3         -2.4430   -4.5150   -0.1640 oh        1 PG2     -0.588800
     24 O4          1.7750   -5.3910    0.3440 o         1 PG2     -0.538100
     25 O5          4.0190   -0.9780    1.0820 oh        1 PG2     -0.610800
     26 H21        -0.5910    2.3720   -2.1420 hc        1 PG2      0.025200
     27 H22        -1.7690    3.5460   -1.4390 hc        1 PG2      0.025200
     28 H31        -2.2100    2.0930    0.4770 hc        1 PG2      0.044700
     29 H32        -0.8320    1.0150    0.0600 hc        1 PG2      0.044700
     30 H41        -1.9670    0.3280   -2.0640 hc        1 PG2      0.034200
     31 H42        -3.3290    1.4600   -1.7250 hc        1 PG2      0.034200
     32 H5         -4.2190    0.0810   -0.0100 ha        1 PG2      0.105000
     33 H6         -3.3990   -2.1630    0.4350 ha        1 PG2      0.107000
     34 H71        -0.8240   -1.2190   -1.0010 hc        1 PG2      0.060200
     35 H72        -1.7260   -2.7050   -1.5320 hc        1 PG2      0.060200
     36 H8         -0.7050   -2.1790    1.3420 hc        1 PG2      0.073700
     37 H9         -2.1620   -3.8910    1.7980 h1        1 PG2      0.037700
     38 H101       -0.3200   -5.2860    2.2410 hc        1 PG2      0.074200
     39 H102       -0.8090   -6.1700    0.7340 hc        1 PG2      0.074200
     40 H12         0.6280   -3.3150   -1.1490 hc        1 PG2      0.089700
     41 H13         2.6800   -2.9490    0.5330 ha        1 PG2      0.141000
     42 H14         0.6780   -0.5540    0.6310 ha        1 PG2      0.148000
     43 H15         2.6700   -0.0500    2.2560 h1        1 PG2      0.081700
     44 H161        1.8040    1.5310    0.4330 hc        1 PG2      0.082200
     45 H162        3.0010    0.7950   -0.7230 hc        1 PG2      0.082200
     46 H171        4.8840    1.5120    0.7810 hc        1 PG2      0.023200
     47 H172        3.6890    2.1830    1.9580 hc        1 PG2      0.023200
     48 H181        2.7460    3.6670    0.0840 hc        1 PG2      0.080200
     49 H182        4.1050    3.0980   -0.9700 hc        1 PG2      0.080200
     50 H191        5.7820    3.9370    0.7310 hc        1 PG2      0.018700
     51 H192        4.4180    4.5200    1.7610 hc        1 PG2      0.018700
     52 H201        5.2910    6.3980    0.4140 hc        1 PG2      0.029367
     53 H202        5.0740    5.4550   -1.1170 hc        1 PG2      0.029367
     54 H203        3.6230    5.9690   -0.1670 hc        1 PG2      0.029367
     55 HO3        -2.9130   -5.2880    0.1710 ho        1 PG2      0.391000
     56 HO5         4.2680   -1.0160    0.1510 ho        1 PG2      0.393000
@<TRIPOS>BOND
     1    1    2 1   
     2    1   21 1   
     3    1   22 1   
     4    2    3 1   
     5    2   26 1   
     6    2   27 1   
     7    3    4 1   
     8    3   28 1   
     9    3   29 1   
    10    4    5 1   
    11    4   30 1   
    12    4   31 1   
    13    5    6 2   
    14    5   32 1   
    15    6    7 1   
    16    6   33 1   
    17    7    8 1   
    18    7   34 1   
    19    7   35 1   
    20    8    9 1   
    21    8   12 1   
    22    8   36 1   
    23    9   10 1   
    24    9   23 1   
    25    9   37 1   
    26   10   11 1   
    27   10   38 1   
    28   10   39 1   
    29   11   12 1   
    30   11   24 2   
    31   12   13 1   
    32   12   40 1   
    33   13   14 2   
    34   13   41 1   
    35   14   15 1   
    36   14   42 1   
    37   15   16 1   
    38   15   25 1   
    39   15   43 1   
    40   16   17 1   
    41   16   44 1   
    42   16   45 1   
    43   17   18 1   
    44   17   46 1   
    45   17   47 1   
    46   18   19 1   
    47   18   48 1   
    48   18   49 1   
    49   19   20 1   
    50   19   50 1   
    51   19   51 1   
    52   20   52 1   
    53   20   53 1   
    54   20   54 1   
    55   23   55 1   
    56   25   56 1   
@<TRIPOS>SUBSTRUCTURE
     1 PG2         1 TEMP              0 ****  ****    0 ROOT
