@<TRIPOS>MOLECULE
PG2
   56    56     1     0     0
SMALL
bcc


@<TRIPOS>ATOM
      1 C1          4.6430    1.7440   -0.7510 c         1 PG2      0.914600
      2 C2          3.7900    0.5430   -0.3160 c3        1 PG2     -0.197400
      3 C3          4.0820    0.1570    1.1150 c3        1 PG2     -0.057400
      4 C4          3.5380   -1.2240    1.4390 c3        1 PG2     -0.061200
      5 C5          3.8010   -1.5980    2.8480 c2        1 PG2     -0.135200
      6 C6          4.6640   -2.5260    3.2720 c2        1 PG2     -0.207200
      7 C7          5.5330   -3.3660    2.4110 c3        1 PG2     -0.038200
      8 C8          6.6990   -2.5910    1.8270 c3        1 PG2     -0.093700
      9 C9          7.7470   -2.1240    2.8590 c3        1 PG2      0.152100
     10 C10         9.1050   -2.2000    2.1570 c3        1 PG2     -0.182400
     11 C11         8.9300   -3.1270    0.9860 c         1 PG2      0.604100
     12 C12         7.4570   -3.4150    0.7710 c3        1 PG2     -0.108500
     13 C13         6.9780   -3.1630   -0.6110 c2        1 PG2     -0.168200
     14 C14         7.0850   -2.0820   -1.3860 c2        1 PG2     -0.141200
     15 C15         7.7260   -0.7460   -1.1730 c3        1 PG2      0.171300
     16 C16         9.1800   -0.7700   -1.6570 c3        1 PG2     -0.092400
     17 C17         9.2620   -0.8230   -3.1660 c3        1 PG2     -0.076400
     18 C18        10.7010   -0.8470   -3.6340 c3        1 PG2     -0.078400
     19 C19        10.7880   -0.8960   -5.1450 c3        1 PG2     -0.081400
     20 C20        12.2190   -0.9180   -5.6180 c3        1 PG2     -0.090100
     21 O1          4.0560    2.7980   -1.1150 o         1 PG2     -0.854300
     22 O2          5.9080    1.6160   -0.7510 o         1 PG2     -0.854300
     23 O3          7.8310   -2.9460    4.0160 oh        1 PG2     -0.615800
     24 O4          9.8540   -3.6140    0.3320 o         1 PG2     -0.557100
     25 O5          7.7350   -0.3530    0.1900 oh        1 PG2     -0.652800
     26 H21         4.0260   -0.3120   -0.9990 hc        1 PG2      0.026200
     27 H22         2.7060    0.7940   -0.4360 hc        1 PG2      0.026200
     28 H31         3.6330    0.9120    1.8100 hc        1 PG2      0.042200
     29 H32         5.1940    0.1740    1.2760 hc        1 PG2      0.042200
     30 H41         2.4290   -1.2340    1.2610 hc        1 PG2      0.041200
     31 H42         3.9930   -1.9720    0.7350 hc        1 PG2      0.041200
     32 H5          3.2130   -1.0250    3.5870 ha        1 PG2      0.108000
     33 H6          4.7650   -2.7160    4.3550 ha        1 PG2      0.099000
     34 H71         4.9300   -3.7840    1.5580 hc        1 PG2      0.043200
     35 H72         5.9180   -4.2430    2.9990 hc        1 PG2      0.043200
     36 H8          6.2980   -1.6610    1.3260 hc        1 PG2      0.109700
     37 H9          7.5190   -1.0700    3.1790 h1        1 PG2      0.050700
     38 H101        9.3760   -1.1840    1.7620 hc        1 PG2      0.091700
     39 H102        9.9050   -2.5600    2.8480 hc        1 PG2      0.091700
     40 H12         7.3190   -4.5130    0.9970 hc        1 PG2      0.061700
     41 H13         6.4410   -4.0360   -1.0300 ha        1 PG2      0.099000
     42 H14         6.6380   -2.1470   -2.3990 ha        1 PG2      0.109000
     43 H15         7.1410    0.0220   -1.7700 h1        1 PG2      0.102700
     44 H161        9.7090   -1.6500   -1.2050 hc        1 PG2      0.050200
     45 H162        9.6860    0.1580   -1.2800 hc        1 PG2      0.050200
     46 H171        8.7370    0.0670   -3.6030 hc        1 PG2      0.040200
     47 H172        8.7300   -1.7390   -3.5390 hc        1 PG2      0.040200
     48 H181       11.2240   -1.7380   -3.1980 hc        1 PG2      0.038700
     49 H182       11.2320    0.0670   -3.2580 hc        1 PG2      0.038700
     50 H191       10.2540   -1.8090   -5.5200 hc        1 PG2      0.036700
     51 H192       10.2610   -0.0050   -5.5780 hc        1 PG2      0.036700
     52 H201       12.7530   -1.8110   -5.2140 hc        1 PG2      0.026700
     53 H202       12.2610   -0.9560   -6.7330 hc        1 PG2      0.026700
     54 H203       12.7600   -0.0030   -5.2760 hc        1 PG2      0.026700
     55 HO3         6.9680   -2.9060    4.4440 ho        1 PG2      0.399000
     56 HO5         7.1150    0.3960    0.2630 ho        1 PG2      0.464000
@<TRIPOS>BOND
     1    1    2 1   
     2    1   21 1   
     3    1   22 1   
     4    2    3 1   
     5    2   26 1   
     6    2   27 1   
     7    3    4 1   
     8    3   28 1   
     9    3   29 1   
    10    4    5 1   
    11    4   30 1   
    12    4   31 1   
    13    5    6 2   
    14    5   32 1   
    15    6    7 1   
    16    6   33 1   
    17    7    8 1   
    18    7   34 1   
    19    7   35 1   
    20    8    9 1   
    21    8   12 1   
    22    8   36 1   
    23    9   10 1   
    24    9   23 1   
    25    9   37 1   
    26   10   11 1   
    27   10   38 1   
    28   10   39 1   
    29   11   12 1   
    30   11   24 2   
    31   12   13 1   
    32   12   40 1   
    33   13   14 2   
    34   13   41 1   
    35   14   15 1   
    36   14   42 1   
    37   15   16 1   
    38   15   25 1   
    39   15   43 1   
    40   16   17 1   
    41   16   44 1   
    42   16   45 1   
    43   17   18 1   
    44   17   46 1   
    45   17   47 1   
    46   18   19 1   
    47   18   48 1   
    48   18   49 1   
    49   19   20 1   
    50   19   50 1   
    51   19   51 1   
    52   20   52 1   
    53   20   53 1   
    54   20   54 1   
    55   23   55 1   
    56   25   56 1   
@<TRIPOS>SUBSTRUCTURE
     1 PG2         1 TEMP              0 ****  ****    0 ROOT
