@<TRIPOS>MOLECULE
PG2
   56    56     1     0     0
SMALL
bcc


@<TRIPOS>ATOM
      1 C1         -0.8630    0.7890    1.5580 c         1 PG2      0.908600
      2 C2          0.3690   -0.0740    1.2270 c3        1 PG2     -0.197400
      3 C3          1.4760    0.1490    2.2260 c3        1 PG2     -0.065400
      4 C4          2.7690   -0.5110    1.7890 c3        1 PG2     -0.064200
      5 C5          3.8720   -0.2920    2.7530 c2        1 PG2     -0.110200
      6 C6          5.1010   -0.8080    2.6290 c2        1 PG2     -0.249200
      7 C7          5.5190   -1.6830    1.5080 c3        1 PG2     -0.041200
      8 C8          7.0250   -1.7200    1.3350 c3        1 PG2     -0.086700
      9 C9          7.7890   -2.4040    2.4900 c3        1 PG2      0.147100
     10 C10         8.9410   -3.1910    1.8570 c3        1 PG2     -0.189400
     11 C11         8.6530   -3.2810    0.3830 c         1 PG2      0.599100
     12 C12         7.4230   -2.4630    0.0460 c3        1 PG2     -0.139500
     13 C13         7.5270   -1.5480   -1.1150 c2        1 PG2     -0.127200
     14 C14         8.5390   -0.8060   -1.5690 c2        1 PG2     -0.205200
     15 C15         9.9350   -0.6260   -1.0740 c3        1 PG2      0.181300
     16 C16        10.9210   -1.5190   -1.8290 c3        1 PG2     -0.084400
     17 C17        11.1400   -1.0260   -3.2420 c3        1 PG2     -0.076400
     18 C18        12.1210   -1.9130   -3.9780 c3        1 PG2     -0.078400
     19 C19        12.3450   -1.4290   -5.3950 c3        1 PG2     -0.080400
     20 C20        13.3220   -2.3080   -6.1320 c3        1 PG2     -0.092100
     21 O1         -2.0020    0.2570    1.4310 o         1 PG2     -0.849800
     22 O2         -0.6790    1.9870    1.9200 o         1 PG2     -0.849800
     23 O3          7.0190   -3.3390    3.2260 oh        1 PG2     -0.603800
     24 O4          9.2870   -3.9710   -0.4140 o         1 PG2     -0.535100
     25 O5         10.1210   -0.9150    0.3070 oh        1 PG2     -0.609800
     26 H21         0.7150    0.2070    0.2000 hc        1 PG2      0.020200
     27 H22         0.0710   -1.1520    1.2060 hc        1 PG2      0.020200
     28 H31         1.1670   -0.2570    3.2240 hc        1 PG2      0.048200
     29 H32         1.6290    1.2550    2.3500 hc        1 PG2      0.048200
     30 H41         2.6030   -1.6150    1.6550 hc        1 PG2      0.042200
     31 H42         3.0720   -0.1060    0.7830 hc        1 PG2      0.042200
     32 H5          3.6280    0.3490    3.6180 ha        1 PG2      0.127000
     33 H6          5.8760   -0.5920    3.3820 ha        1 PG2      0.104000
     34 H71         5.1270   -2.7250    1.6740 hc        1 PG2      0.057200
     35 H72         5.0590   -1.3160    0.5480 hc        1 PG2      0.057200
     36 H8          7.3900   -0.6570    1.2720 hc        1 PG2      0.054700
     37 H9          8.1780   -1.6200    3.1990 h1        1 PG2      0.036700
     38 H101        9.0210   -4.2130    2.3070 hc        1 PG2      0.093700
     39 H102        9.9140   -2.6550    2.0060 hc        1 PG2      0.093700
     40 H12         6.6170   -3.2230   -0.1910 hc        1 PG2      0.090700
     41 H13         6.5690   -1.4840   -1.6710 ha        1 PG2      0.125000
     42 H14         8.3590   -0.2080   -2.4850 ha        1 PG2      0.124000
     43 H15        10.2180    0.4600   -1.2320 h1        1 PG2      0.033700
     44 H161       10.5330   -2.5720   -1.8340 hc        1 PG2      0.067200
     45 H162       11.8930   -1.5230   -1.2680 hc        1 PG2      0.067200
     46 H171       11.5270    0.0270   -3.2230 hc        1 PG2      0.037200
     47 H172       10.1620   -1.0110   -3.7920 hc        1 PG2      0.037200
     48 H181       13.0990   -1.9310   -3.4280 hc        1 PG2      0.042700
     49 H182       11.7340   -2.9660   -3.9970 hc        1 PG2      0.042700
     50 H191       11.3660   -1.4130   -5.9430 hc        1 PG2      0.037200
     51 H192       12.7280   -0.3750   -5.3740 hc        1 PG2      0.037200
     52 H201       12.9450   -3.3580   -6.1840 hc        1 PG2      0.031033
     53 H202       13.4720   -1.9350   -7.1740 hc        1 PG2      0.031033
     54 H203       14.3120   -2.3170   -5.6150 hc        1 PG2      0.031033
     55 HO3         6.2480   -2.8690    3.5690 ho        1 PG2      0.417000
     56 HO5         9.3660   -0.5440    0.7780 ho        1 PG2      0.403000
@<TRIPOS>BOND
     1    1    2 1   
     2    1   21 1   
     3    1   22 1   
     4    2    3 1   
     5    2   26 1   
     6    2   27 1   
     7    3    4 1   
     8    3   28 1   
     9    3   29 1   
    10    4    5 1   
    11    4   30 1   
    12    4   31 1   
    13    5    6 2   
    14    5   32 1   
    15    6    7 1   
    16    6   33 1   
    17    7    8 1   
    18    7   34 1   
    19    7   35 1   
    20    8    9 1   
    21    8   12 1   
    22    8   36 1   
    23    9   10 1   
    24    9   23 1   
    25    9   37 1   
    26   10   11 1   
    27   10   38 1   
    28   10   39 1   
    29   11   12 1   
    30   11   24 2   
    31   12   13 1   
    32   12   40 1   
    33   13   14 2   
    34   13   41 1   
    35   14   15 1   
    36   14   42 1   
    37   15   16 1   
    38   15   25 1   
    39   15   43 1   
    40   16   17 1   
    41   16   44 1   
    42   16   45 1   
    43   17   18 1   
    44   17   46 1   
    45   17   47 1   
    46   18   19 1   
    47   18   48 1   
    48   18   49 1   
    49   19   20 1   
    50   19   50 1   
    51   19   51 1   
    52   20   52 1   
    53   20   53 1   
    54   20   54 1   
    55   23   55 1   
    56   25   56 1   
@<TRIPOS>SUBSTRUCTURE
     1 PG2         1 TEMP              0 ****  ****    0 ROOT
