@<TRIPOS>MOLECULE
PG3
   20    19     1     0     0
SMALL
bcc


@<TRIPOS>ATOM
      1 OA          3.8980   -0.3320    0.0010 oh        1 PG3     -0.589800
      2 CB          2.7480    0.4930    0.0000 c3        1 PG3      0.139400
      3 CG          1.5590   -0.4590    0.0000 c3        1 PG3     -0.107400
      4 CD          0.2650    0.3510   -0.0000 c3        1 PG3      0.020300
      5 NE         -0.9070   -0.5030   -0.0000 nh        1 PG3     -0.400100
      6 CZ         -2.1960   -0.0190   -0.0010 cz        1 PG3      0.524300
      7 NH1        -2.4420    1.3350   -0.0010 nh        1 PG3     -0.505700
      8 NH2        -3.2550   -0.9030   -0.0000 nh        1 PG3     -0.505700
      9 HA          4.6660    0.2540    0.0010 ho        1 PG3      0.424000
     10 HB1         2.7350    1.1450    0.9150 h1        1 PG3      0.031700
     11 HB2         2.7360    1.1440   -0.9150 h1        1 PG3      0.031700
     12 HG1         1.6210   -1.1180    0.9060 hc        1 PG3      0.081700
     13 HG2         1.6220   -1.1180   -0.9050 hc        1 PG3      0.081700
     14 HD1         0.2420    1.0080   -0.9180 h1        1 PG3      0.067700
     15 HD2         0.2420    1.0090    0.9170 h1        1 PG3      0.067700
     16 HE         -0.7530   -1.4910    0.0000 hn        1 PG3      0.327700
     17 HH11       -1.6930    1.9890   -0.0010 hn        1 PG3      0.327950
     18 HH12       -3.3740    1.6850   -0.0020 hn        1 PG3      0.327950
     19 HH21       -4.1940   -0.5750   -0.0010 hn        1 PG3      0.327950
     20 HH22       -3.1020   -1.8860    0.0000 hn        1 PG3      0.327950
@<TRIPOS>BOND
     1    1    2 1   
     2    1    9 1   
     3    2    3 1   
     4    2   10 1   
     5    2   11 1   
     6    3    4 1   
     7    3   12 1   
     8    3   13 1   
     9    4    5 1   
    10    4   14 1   
    11    4   15 1   
    12    5    6 2   
    13    5   16 1   
    14    6    7 1   
    15    6    8 1   
    16    7   17 1   
    17    7   18 1   
    18    8   19 1   
    19    8   20 1   
@<TRIPOS>SUBSTRUCTURE
     1 PG3         1 TEMP              0 ****  ****    0 ROOT
