@<TRIPOS>MOLECULE
PG3
   20    19     1     0     0
SMALL
bcc


@<TRIPOS>ATOM
      1 OA          0.0050   -0.0000    0.0750 oh        1 PG3     -0.589800
      2 CB          1.4180    0.0000   -0.0090 c3        1 PG3      0.139400
      3 CG          1.9150    0.0000    1.4320 c3        1 PG3     -0.107400
      4 CD          3.4410    0.0000    1.4390 c3        1 PG3      0.020300
      5 NE          3.9750    0.0000    2.7870 nh        1 PG3     -0.400100
      6 CZ          5.3230   -0.0000    3.0670 cz        1 PG3      0.524300
      7 NH1         6.2550   -0.0000    2.0540 nh        1 PG3     -0.505700
      8 NH2         5.7460   -0.0000    4.3800 nh        1 PG3     -0.505700
      9 HA         -0.3310   -0.0000   -0.8310 ho        1 PG3      0.424000
     10 HB1         1.7770   -0.9150   -0.5520 h1        1 PG3      0.031700
     11 HB2         1.7770    0.9150   -0.5520 h1        1 PG3      0.031700
     12 HG1         1.5090    0.9060    1.9560 hc        1 PG3      0.081700
     13 HG2         1.5090   -0.9050    1.9560 hc        1 PG3      0.081700
     14 HD1         3.8120   -0.9180    0.8950 h1        1 PG3      0.067700
     15 HD2         3.8120    0.9180    0.8950 h1        1 PG3      0.067700
     16 HE          3.3160    0.0000    3.5400 hn        1 PG3      0.327700
     17 HH11        5.9710   -0.0000    1.1010 hn        1 PG3      0.327950
     18 HH12        7.2290   -0.0000    2.2570 hn        1 PG3      0.327950
     19 HH21        6.7150   -0.0000    4.6050 hn        1 PG3      0.327950
     20 HH22        5.0910   -0.0000    5.1290 hn        1 PG3      0.327950
@<TRIPOS>BOND
     1    1    2 1   
     2    1    9 1   
     3    2    3 1   
     4    2   10 1   
     5    2   11 1   
     6    3    4 1   
     7    3   12 1   
     8    3   13 1   
     9    4    5 1   
    10    4   14 1   
    11    4   15 1   
    12    5    6 2   
    13    5   16 1   
    14    6    7 1   
    15    6    8 1   
    16    7   17 1   
    17    7   18 1   
    18    8   19 1   
    19    8   20 1   
@<TRIPOS>SUBSTRUCTURE
     1 PG3         1 TEMP              0 ****  ****    0 ROOT
