@<TRIPOS>MOLECULE
PG4
   31    30     1     0     0
SMALL
bcc


@<TRIPOS>ATOM
      1 O1         -0.7280    0.2550    5.9360 oh        1 PG4     -0.599800
      2 C1          0.5120    0.5610    5.3340 c3        1 PG4      0.131400
      3 C2          0.8510   -0.4190    4.2150 c3        1 PG4      0.087400
      4 O2         -0.1160   -0.1990    3.1900 os        1 PG4     -0.438600
      5 C3          0.0460   -1.0930    2.0900 c3        1 PG4      0.129400
      6 C4         -0.9170   -0.6250    1.0050 c3        1 PG4      0.127400
      7 O3         -0.1220    0.0000   -0.0000 os        1 PG4     -0.427600
      8 C5         -0.9160    0.6270   -1.0050 c3        1 PG4      0.127400
      9 C6          0.0490    1.0930   -2.0900 c3        1 PG4      0.129400
     10 O4         -0.1140    0.1990   -3.1900 os        1 PG4     -0.438600
     11 C7          0.8530    0.4170   -4.2150 c3        1 PG4      0.087400
     12 C8          0.5120   -0.5620   -5.3340 c3        1 PG4      0.131400
     13 O5         -0.7270   -0.2540   -5.9360 oh        1 PG4     -0.599800
     14 HO1        -1.3910    0.2620    5.2330 ho        1 PG4      0.412000
     15 H11         0.5000    1.6100    4.9340 h1        1 PG4      0.053700
     16 H12         1.2680    0.4720    6.1590 h1        1 PG4      0.053700
     17 H21         1.8800   -0.2230    3.8170 h1        1 PG4      0.039200
     18 H22         0.7810   -1.4780    4.5790 h1        1 PG4      0.039200
     19 H31         1.1050   -1.0660    1.7210 h1        1 PG4      0.045700
     20 H32        -0.2130   -2.1330    2.4220 h1        1 PG4      0.045700
     21 H41        -1.4560   -1.5020    0.5560 h1        1 PG4      0.044200
     22 H42        -1.6630    0.1040    1.4200 h1        1 PG4      0.044200
     23 H51        -1.6630   -0.1000   -1.4200 h1        1 PG4      0.044200
     24 H52        -1.4520    1.5050   -0.5560 h1        1 PG4      0.044200
     25 H61        -0.2070    2.1340   -2.4220 h1        1 PG4      0.045700
     26 H62         1.1080    1.0640   -1.7210 h1        1 PG4      0.045700
     27 H71         0.7850    1.4760   -4.5790 h1        1 PG4      0.039200
     28 H72         1.8820    0.2190   -3.8160 h1        1 PG4      0.039200
     29 H81         1.2680   -0.4740   -6.1580 h1        1 PG4      0.053700
     30 H82         0.4970   -1.6110   -4.9340 h1        1 PG4      0.053700
     31 HO5        -1.3900   -0.2590   -5.2330 ho        1 PG4      0.412000
@<TRIPOS>BOND
     1    1    2 1   
     2    1   14 1   
     3    2    3 1   
     4    2   15 1   
     5    2   16 1   
     6    3    4 1   
     7    3   17 1   
     8    3   18 1   
     9    4    5 1   
    10    5    6 1   
    11    5   19 1   
    12    5   20 1   
    13    6    7 1   
    14    6   21 1   
    15    6   22 1   
    16    7    8 1   
    17    8    9 1   
    18    8   23 1   
    19    8   24 1   
    20    9   10 1   
    21    9   25 1   
    22    9   26 1   
    23   10   11 1   
    24   11   12 1   
    25   11   27 1   
    26   11   28 1   
    27   12   13 1   
    28   12   29 1   
    29   12   30 1   
    30   13   31 1   
@<TRIPOS>SUBSTRUCTURE
     1 PG4         1 TEMP              0 ****  ****    0 ROOT
