@<TRIPOS>MOLECULE
PG4
   31    30     1     0     0
SMALL
bcc


@<TRIPOS>ATOM
      1 O1         -0.6180    1.3350    1.3370 oh        1 PG4     -0.599800
      2 C1          0.1160    0.6050    0.3770 c3        1 PG4      0.131400
      3 C2          1.4750    0.1730    0.9160 c3        1 PG4      0.087400
      4 O2          1.2080   -0.7630    1.9590 os        1 PG4     -0.438600
      5 C3          2.3980   -1.2170    2.6000 c3        1 PG4      0.129400
      6 C4          1.9820   -2.3370    3.5470 c3        1 PG4      0.127400
      7 O3          2.4070   -3.5570    2.9440 os        1 PG4     -0.427600
      8 C5          1.9380   -4.7020    3.6520 c3        1 PG4      0.127400
      9 C6          2.6060   -5.9120    3.0080 c3        1 PG4      0.129400
     10 O4          3.6150   -6.3510    3.9140 os        1 PG4     -0.438600
     11 C7          4.4350   -7.3780    3.3590 c3        1 PG4      0.087400
     12 C8          5.4150   -7.7780    4.4580 c3        1 PG4      0.131400
     13 O5          4.7560   -8.3920    5.5460 oh        1 PG4     -0.599800
     14 HO1        -0.6990    0.7710    2.1170 ho        1 PG4      0.412000
     15 H11         0.2560    1.3110   -0.4840 h1        1 PG4      0.053700
     16 H12        -0.4690   -0.2940    0.0450 h1        1 PG4      0.053700
     17 H21         2.0820   -0.3170    0.1110 h1        1 PG4      0.039200
     18 H22         2.0360    1.0510    1.3320 h1        1 PG4      0.039200
     19 H31         2.8530   -0.3670    3.1740 h1        1 PG4      0.045700
     20 H32         3.1310   -1.5930    1.8370 h1        1 PG4      0.045700
     21 H41         0.8690   -2.3430    3.6940 h1        1 PG4      0.044200
     22 H42         2.4930   -2.2190    4.5390 h1        1 PG4      0.044200
     23 H51         2.2130   -4.6260    4.7380 h1        1 PG4      0.044200
     24 H52         0.8230   -4.7690    3.5490 h1        1 PG4      0.044200
     25 H61         3.0630   -5.6360    2.0210 h1        1 PG4      0.045700
     26 H62         1.8610   -6.7380    2.8610 h1        1 PG4      0.045700
     27 H71         3.7960   -8.2500    3.0590 h1        1 PG4      0.039200
     28 H72         4.9840   -6.9850    2.4640 h1        1 PG4      0.039200
     29 H81         5.9850   -6.8780    4.8090 h1        1 PG4      0.053700
     30 H82         6.1240   -8.5560    4.0690 h1        1 PG4      0.053700
     31 HO5         4.0910   -7.7650    5.8610 ho        1 PG4      0.412000
@<TRIPOS>BOND
     1    1    2 1   
     2    1   14 1   
     3    2    3 1   
     4    2   15 1   
     5    2   16 1   
     6    3    4 1   
     7    3   17 1   
     8    3   18 1   
     9    4    5 1   
    10    5    6 1   
    11    5   19 1   
    12    5   20 1   
    13    6    7 1   
    14    6   21 1   
    15    6   22 1   
    16    7    8 1   
    17    8    9 1   
    18    8   23 1   
    19    8   24 1   
    20    9   10 1   
    21    9   25 1   
    22    9   26 1   
    23   10   11 1   
    24   11   12 1   
    25   11   27 1   
    26   11   28 1   
    27   12   13 1   
    28   12   29 1   
    29   12   30 1   
    30   13   31 1   
@<TRIPOS>SUBSTRUCTURE
     1 PG4         1 TEMP              0 ****  ****    0 ROOT
