@<TRIPOS>MOLECULE
PG4
   31    30     1     0     0
SMALL
bcc


@<TRIPOS>ATOM
      1 O1         -0.6180    1.3390    1.3550 oh        1 PG4     -0.599800
      2 C1          0.1230    0.6180    0.3950 c3        1 PG4      0.131400
      3 C2          1.4800    0.1840    0.9400 c3        1 PG4      0.087400
      4 O2          1.2080   -0.7590    1.9740 os        1 PG4     -0.438600
      5 C3          2.3960   -1.2160    2.6190 c3        1 PG4      0.129400
      6 C4          1.9760   -2.3420    3.5560 c3        1 PG4      0.127400
      7 O3          2.4050   -3.5580    2.9450 os        1 PG4     -0.427600
      8 C5          1.9350   -4.7090    3.6440 c3        1 PG4      0.127400
      9 C6          2.6050   -5.9140    2.9920 c3        1 PG4      0.129400
     10 O4          3.6140   -6.3570    3.8990 os        1 PG4     -0.438600
     11 C7          4.4360   -7.3790    3.3390 c3        1 PG4      0.087400
     12 C8          5.4140   -7.7850    4.4360 c3        1 PG4      0.131400
     13 O5          4.7530   -8.4070    5.5190 oh        1 PG4     -0.599800
     14 HO1        -0.7020    0.7700    2.1310 ho        1 PG4      0.412000
     15 H11         0.2670    1.3300   -0.4600 h1        1 PG4      0.053700
     16 H12        -0.4570   -0.2810    0.0530 h1        1 PG4      0.053700
     17 H21         2.0930   -0.2980    0.1350 h1        1 PG4      0.039200
     18 H22         2.0360    1.0610    1.3650 h1        1 PG4      0.039200
     19 H31         2.8460   -0.3690    3.2010 h1        1 PG4      0.045700
     20 H32         3.1340   -1.5850    1.8570 h1        1 PG4      0.045700
     21 H41         0.8630   -2.3500    3.6970 h1        1 PG4      0.044200
     22 H42         2.4830   -2.2320    4.5510 h1        1 PG4      0.044200
     23 H51         2.2060   -4.6410    4.7310 h1        1 PG4      0.044200
     24 H52         0.8200   -4.7760    3.5360 h1        1 PG4      0.044200
     25 H61         3.0650   -5.6300    2.0090 h1        1 PG4      0.045700
     26 H62         1.8620   -6.7390    2.8380 h1        1 PG4      0.045700
     27 H71         3.7990   -8.2490    3.0300 h1        1 PG4      0.039200
     28 H72         4.9860   -6.9790    2.4480 h1        1 PG4      0.039200
     29 H81         5.9820   -6.8860    4.7950 h1        1 PG4      0.053700
     30 H82         6.1250   -8.5590    4.0440 h1        1 PG4      0.053700
     31 HO5         4.0870   -7.7840    5.8360 ho        1 PG4      0.412000
@<TRIPOS>BOND
     1    1    2 1   
     2    1   14 1   
     3    2    3 1   
     4    2   15 1   
     5    2   16 1   
     6    3    4 1   
     7    3   17 1   
     8    3   18 1   
     9    4    5 1   
    10    5    6 1   
    11    5   19 1   
    12    5   20 1   
    13    6    7 1   
    14    6   21 1   
    15    6   22 1   
    16    7    8 1   
    17    8    9 1   
    18    8   23 1   
    19    8   24 1   
    20    9   10 1   
    21    9   25 1   
    22    9   26 1   
    23   10   11 1   
    24   11   12 1   
    25   11   27 1   
    26   11   28 1   
    27   12   13 1   
    28   12   29 1   
    29   12   30 1   
    30   13   31 1   
@<TRIPOS>SUBSTRUCTURE
     1 PG4         1 TEMP              0 ****  ****    0 ROOT
