@<TRIPOS>MOLECULE
PG5
   30    29     1     0     0
SMALL
bcc


@<TRIPOS>ATOM
      1 C1          0.3460   -0.9140   -5.8810 c3        1 PG5      0.117700
      2 O1         -0.1410   -0.0770   -4.8480 os        1 PG5     -0.425600
      3 C2          0.7860    0.0600   -3.7710 c3        1 PG5      0.123400
      4 C3          0.0680    0.8460   -2.6790 c3        1 PG5      0.127400
      5 O2         -0.1470   -0.0630   -1.6020 os        1 PG5     -0.429600
      6 C4         -0.9610    0.5000   -0.5750 c3        1 PG5      0.127400
      7 C5         -0.9600   -0.5000    0.5760 c3        1 PG5      0.127400
      8 O3         -0.1450    0.0620    1.6020 os        1 PG5     -0.429600
      9 C6          0.0700   -0.8470    2.6800 c3        1 PG5      0.127400
     10 C7          0.7890   -0.0610    3.7710 c3        1 PG5      0.123400
     11 O4         -0.1370    0.0770    4.8480 os        1 PG5     -0.425600
     12 C8          0.3510    0.9150    5.8810 c3        1 PG5      0.117700
     13 H11         0.5310   -1.9490   -5.4980 h1        1 PG5      0.032700
     14 H12        -0.4710   -0.9190   -6.6450 h1        1 PG5      0.032700
     15 H13         1.2880   -0.4970   -6.3170 h1        1 PG5      0.032700
     16 H21         1.0970   -0.9510   -3.3960 h1        1 PG5      0.042700
     17 H22         1.6880    0.6220   -4.1320 h1        1 PG5      0.042700
     18 H31         0.7070    1.6960   -2.3220 h1        1 PG5      0.043200
     19 H32        -0.9130    1.2440   -3.0540 h1        1 PG5      0.043200
     20 H41        -0.5420    1.4880   -0.2450 h1        1 PG5      0.043700
     21 H42        -2.0020    0.6440   -0.9680 h1        1 PG5      0.043700
     22 H51        -2.0010   -0.6440    0.9700 h1        1 PG5      0.043700
     23 H52        -0.5420   -1.4880    0.2450 h1        1 PG5      0.043700
     24 H61        -0.9100   -1.2440    3.0550 h1        1 PG5      0.043200
     25 H62         0.7090   -1.6970    2.3210 h1        1 PG5      0.043200
     26 H71         1.6910   -0.6220    4.1310 h1        1 PG5      0.042700
     27 H72         1.1010    0.9500    3.3950 h1        1 PG5      0.042700
     28 H81        -0.4650    0.9200    6.6450 h1        1 PG5      0.032700
     29 H82         1.2930    0.4980    6.3160 h1        1 PG5      0.032700
     30 H83         0.5360    1.9490    5.4970 h1        1 PG5      0.032700
@<TRIPOS>BOND
     1    1    2 1   
     2    1   13 1   
     3    1   14 1   
     4    1   15 1   
     5    2    3 1   
     6    3    4 1   
     7    3   16 1   
     8    3   17 1   
     9    4    5 1   
    10    4   18 1   
    11    4   19 1   
    12    5    6 1   
    13    6    7 1   
    14    6   20 1   
    15    6   21 1   
    16    7    8 1   
    17    7   22 1   
    18    7   23 1   
    19    8    9 1   
    20    9   10 1   
    21    9   24 1   
    22    9   25 1   
    23   10   11 1   
    24   10   26 1   
    25   10   27 1   
    26   11   12 1   
    27   12   28 1   
    28   12   29 1   
    29   12   30 1   
@<TRIPOS>SUBSTRUCTURE
     1 PG5         1 TEMP              0 ****  ****    0 ROOT
