@<TRIPOS>MOLECULE
PG5
   30    29     1     0     0
SMALL
bcc


@<TRIPOS>ATOM
      1 C1          0.4330   -1.7000   -0.6410 c3        1 PG5      0.117700
      2 O1          1.5140   -1.3240    0.1940 os        1 PG5     -0.425600
      3 C2          1.3880    0.0100    0.6850 c3        1 PG5      0.123400
      4 C3          2.6840    0.3230    1.4250 c3        1 PG5      0.127400
      5 O2          3.3690    1.3020    0.6450 os        1 PG5     -0.429600
      6 C4          4.6810    1.5640    1.1400 c3        1 PG5      0.127400
      7 C5          5.2210    2.7390    0.3310 c3        1 PG5      0.127400
      8 O3          5.2060    3.8700    1.2000 os        1 PG5     -0.429600
      9 C6          5.5400    5.0780    0.5190 c3        1 PG5      0.127400
     10 C7          5.6660    6.1570    1.5900 c3        1 PG5      0.123400
     11 O4          7.0490    6.5030    1.6550 os        1 PG5     -0.425600
     12 C8          7.3360    7.3990    2.7140 c3        1 PG5      0.117700
     13 H11         0.6620   -2.7540   -0.9370 h1        1 PG5      0.032700
     14 H12        -0.5330   -1.6510   -0.0810 h1        1 PG5      0.032700
     15 H13         0.3830   -1.0420   -1.5430 h1        1 PG5      0.032700
     16 H21         0.5130    0.0630    1.3850 h1        1 PG5      0.042700
     17 H22         1.2330    0.7240   -0.1670 h1        1 PG5      0.042700
     18 H31         2.4660    0.7490    2.4400 h1        1 PG5      0.043200
     19 H32         3.3150   -0.6000    1.5320 h1        1 PG5      0.043200
     20 H41         5.3210    0.6560    0.9860 h1        1 PG5      0.043700
     21 H42         4.6410    1.8170    2.2320 h1        1 PG5      0.043700
     22 H51         6.2760    2.5380    0.0060 h1        1 PG5      0.043700
     23 H52         4.5790    2.9320   -0.5690 h1        1 PG5      0.043700
     24 H61         6.5070    4.9560   -0.0380 h1        1 PG5      0.043200
     25 H62         4.7190    5.3330   -0.2020 h1        1 PG5      0.043200
     26 H71         5.0730    7.0650    1.3050 h1        1 PG5      0.042700
     27 H72         5.3150    5.7740    2.5850 h1        1 PG5      0.042700
     28 H81         7.0860    6.9370    3.7010 h1        1 PG5      0.032700
     29 H82         8.4360    7.5830    2.6340 h1        1 PG5      0.032700
     30 H83         6.7690    8.3540    2.5870 h1        1 PG5      0.032700
@<TRIPOS>BOND
     1    1    2 1   
     2    1   13 1   
     3    1   14 1   
     4    1   15 1   
     5    2    3 1   
     6    3    4 1   
     7    3   16 1   
     8    3   17 1   
     9    4    5 1   
    10    4   18 1   
    11    4   19 1   
    12    5    6 1   
    13    6    7 1   
    14    6   20 1   
    15    6   21 1   
    16    7    8 1   
    17    7   22 1   
    18    7   23 1   
    19    8    9 1   
    20    9   10 1   
    21    9   24 1   
    22    9   25 1   
    23   10   11 1   
    24   10   26 1   
    25   10   27 1   
    26   11   12 1   
    27   12   28 1   
    28   12   29 1   
    29   12   30 1   
@<TRIPOS>SUBSTRUCTURE
     1 PG5         1 TEMP              0 ****  ****    0 ROOT
