@<TRIPOS>MOLECULE
PG5
   30    29     1     0     0
SMALL
bcc


@<TRIPOS>ATOM
      1 C1          0.3900   -1.6630   -0.6360 c3        1 PG5      0.117700
      2 O1          1.4870   -1.3030    0.1840 os        1 PG5     -0.425600
      3 C2          1.3770    0.0240    0.6960 c3        1 PG5      0.123400
      4 C3          2.6880    0.3200    1.4170 c3        1 PG5      0.127400
      5 O2          3.3630    1.3070    0.6390 os        1 PG5     -0.429600
      6 C4          4.6840    1.5580    1.1140 c3        1 PG5      0.127400
      7 C5          5.2150    2.7410    0.3120 c3        1 PG5      0.127400
      8 O3          5.2160    3.8610    1.1950 os        1 PG5     -0.429600
      9 C6          5.5420    5.0770    0.5250 c3        1 PG5      0.127400
     10 C7          5.6850    6.1420    1.6070 c3        1 PG5      0.123400
     11 O4          7.0690    6.4870    1.6570 os        1 PG5     -0.425600
     12 C8          7.3710    7.3690    2.7230 c3        1 PG5      0.117700
     13 H11         0.6090   -2.7140   -0.9510 h1        1 PG5      0.032700
     14 H12        -0.5660   -1.6180   -0.0590 h1        1 PG5      0.032700
     15 H13         0.3270   -0.9920   -1.5280 h1        1 PG5      0.032700
     16 H21         0.5150    0.0710    1.4120 h1        1 PG5      0.042700
     17 H22         1.2100    0.7500   -0.1430 h1        1 PG5      0.042700
     18 H31         2.4890    0.7330    2.4410 h1        1 PG5      0.043200
     19 H32         3.3160   -0.6070    1.4990 h1        1 PG5      0.043200
     20 H41         5.3180    0.6490    0.9360 h1        1 PG5      0.043700
     21 H42         4.6640    1.7960    2.2100 h1        1 PG5      0.043700
     22 H51         6.2640    2.5420   -0.0310 h1        1 PG5      0.043700
     23 H52         4.5600    2.9470   -0.5760 h1        1 PG5      0.043700
     24 H61         6.5010    4.9600   -0.0470 h1        1 PG5      0.043200
     25 H62         4.7120    5.3420   -0.1810 h1        1 PG5      0.043200
     26 H71         5.0880    7.0540    1.3420 h1        1 PG5      0.042700
     27 H72         5.3470    5.7480    2.6020 h1        1 PG5      0.042700
     28 H81         7.1350    6.8950    3.7080 h1        1 PG5      0.032700
     29 H82         8.4710    7.5530    2.6300 h1        1 PG5      0.032700
     30 H83         6.8040    8.3260    2.6160 h1        1 PG5      0.032700
@<TRIPOS>BOND
     1    1    2 1   
     2    1   13 1   
     3    1   14 1   
     4    1   15 1   
     5    2    3 1   
     6    3    4 1   
     7    3   16 1   
     8    3   17 1   
     9    4    5 1   
    10    4   18 1   
    11    4   19 1   
    12    5    6 1   
    13    6    7 1   
    14    6   20 1   
    15    6   21 1   
    16    7    8 1   
    17    7   22 1   
    18    7   23 1   
    19    8    9 1   
    20    9   10 1   
    21    9   24 1   
    22    9   25 1   
    23   10   11 1   
    24   10   26 1   
    25   10   27 1   
    26   11   12 1   
    27   12   28 1   
    28   12   29 1   
    29   12   30 1   
@<TRIPOS>SUBSTRUCTURE
     1 PG5         1 TEMP              0 ****  ****    0 ROOT
