@<TRIPOS>MOLECULE
PG6
   44    43     1     0     0
SMALL
bcc


@<TRIPOS>ATOM
      1 C1          0.0830   -0.6300   -9.1190 c3        1 PG6      0.117700
      2 O1          0.3070    0.2750   -8.0520 os        1 PG6     -0.425600
      3 C2          0.9850   -0.3310   -6.9530 c3        1 PG6      0.123400
      4 C3          1.0110    0.7060   -5.8350 c3        1 PG6      0.127400
      5 O2          0.1430    0.2200   -4.8130 os        1 PG6     -0.429600
      6 C4         -0.0560    1.1760   -3.7740 c3        1 PG6      0.127400
      7 C5         -0.8470    0.4680   -2.6790 c3        1 PG6      0.127400
      8 O3          0.0630    0.2390   -1.6050 os        1 PG6     -0.429600
      9 C6         -0.5090   -0.5630   -0.5740 c3        1 PG6      0.127400
     10 C7          0.4950   -0.5750    0.5740 c3        1 PG6      0.127400
     11 O4         -0.0600    0.2380    1.6050 os        1 PG6     -0.429600
     12 C8          0.8550    0.4460    2.6800 c3        1 PG6      0.127400
     13 C9          0.0790    1.1690    3.7760 c3        1 PG6      0.127400
     14 O5         -0.1410    0.2150    4.8130 os        1 PG6     -0.429600
     15 C10        -0.9980    0.7190    5.8360 c3        1 PG6      0.127400
     16 C11        -0.9950   -0.3210    6.9520 c3        1 PG6      0.123400
     17 O6         -0.3030    0.2690    8.0520 os        1 PG6     -0.425600
     18 C12        -0.0990   -0.6420    9.1180 c3        1 PG6      0.117700
     19 H11        -0.5630   -1.4800   -8.7870 h1        1 PG6      0.032700
     20 H12        -0.4400   -0.0200   -9.8980 h1        1 PG6      0.032700
     21 H13         1.0530   -1.0220   -9.5140 h1        1 PG6      0.032700
     22 H21         0.4430   -1.2580   -6.6250 h1        1 PG6      0.042700
     23 H22         2.0290   -0.5970   -7.2670 h1        1 PG6      0.042700
     24 H31         2.0480    0.8100   -5.4180 h1        1 PG6      0.043200
     25 H32         0.6530    1.7020   -6.2080 h1        1 PG6      0.043200
     26 H41         0.9330    1.5360   -3.3820 h1        1 PG6      0.043700
     27 H42        -0.6400    2.0440   -4.1800 h1        1 PG6      0.043700
     28 H51        -1.6850    1.1200   -2.3180 h1        1 PG6      0.043200
     29 H52        -1.2600   -0.5060   -3.0530 h1        1 PG6      0.043200
     30 H61        -1.4890   -0.1290   -0.2420 h1        1 PG6      0.043700
     31 H62        -0.6700   -1.6030   -0.9640 h1        1 PG6      0.043700
     32 H71         0.6340   -1.6180    0.9620 h1        1 PG6      0.043700
     33 H72         1.4840   -0.1610    0.2420 h1        1 PG6      0.043700
     34 H81         1.2470   -0.5370    3.0520 h1        1 PG6      0.043200
     35 H82         1.7070    1.0810    2.3200 h1        1 PG6      0.043200
     36 H91         0.6810    2.0230    4.1830 h1        1 PG6      0.043700
     37 H92        -0.9010    1.5510    3.3850 h1        1 PG6      0.043700
     38 H101       -0.6190    1.7060    6.2100 h1        1 PG6      0.043200
     39 H102       -2.0320    0.8460    5.4190 h1        1 PG6      0.043200
     40 H111       -2.0440   -0.5650    7.2650 h1        1 PG6      0.042700
     41 H112       -0.4720   -1.2580    6.6230 h1        1 PG6      0.042700
     42 H121        0.4360   -0.0450    9.8970 h1        1 PG6      0.032700
     43 H122       -1.0770   -1.0130    9.5120 h1        1 PG6      0.032700
     44 H123        0.5280   -1.5050    8.7850 h1        1 PG6      0.032700
@<TRIPOS>BOND
     1    1    2 1   
     2    1   19 1   
     3    1   20 1   
     4    1   21 1   
     5    2    3 1   
     6    3    4 1   
     7    3   22 1   
     8    3   23 1   
     9    4    5 1   
    10    4   24 1   
    11    4   25 1   
    12    5    6 1   
    13    6    7 1   
    14    6   26 1   
    15    6   27 1   
    16    7    8 1   
    17    7   28 1   
    18    7   29 1   
    19    8    9 1   
    20    9   10 1   
    21    9   30 1   
    22    9   31 1   
    23   10   11 1   
    24   10   32 1   
    25   10   33 1   
    26   11   12 1   
    27   12   13 1   
    28   12   34 1   
    29   12   35 1   
    30   13   14 1   
    31   13   36 1   
    32   13   37 1   
    33   14   15 1   
    34   15   16 1   
    35   15   38 1   
    36   15   39 1   
    37   16   17 1   
    38   16   40 1   
    39   16   41 1   
    40   17   18 1   
    41   18   42 1   
    42   18   43 1   
    43   18   44 1   
@<TRIPOS>SUBSTRUCTURE
     1 PG6         1 TEMP              0 ****  ****    0 ROOT
