@<TRIPOS>MOLECULE
PG6
   44    43     1     0     0
SMALL
bcc


@<TRIPOS>ATOM
      1 C1          0.1380   -1.5650   -2.0400 c3        1 PG6      0.117700
      2 O1          0.5180   -1.1390   -0.7440 os        1 PG6     -0.425600
      3 C2          0.6900    0.2750   -0.6590 c3        1 PG6      0.123400
      4 C3          1.2470    0.5620    0.7310 c3        1 PG6      0.127400
      5 O2          2.5920    0.9960    0.5460 os        1 PG6     -0.429600
      6 C4          3.2880    1.1410    1.7830 c3        1 PG6      0.127400
      7 C5          4.6350    1.7720    1.4510 c3        1 PG6      0.127400
      8 O3          4.5730    3.1230    1.9060 os        1 PG6     -0.429600
      9 C6          5.7160    3.8780    1.5120 c3        1 PG6      0.127400
     10 C7          5.6040    5.2300    2.2090 c3        1 PG6      0.127400
     11 O4          6.5900    5.2380    3.2390 os        1 PG6     -0.429600
     12 C8          6.4850    6.3860    4.0780 c3        1 PG6      0.127400
     13 C9          7.6940    6.3560    5.0080 c3        1 PG6      0.127400
     14 O5          8.5740    7.3850    4.5620 os        1 PG6     -0.429600
     15 C10         9.8240    7.3620    5.2490 c3        1 PG6      0.127400
     16 C11        10.5810    8.6110    4.8110 c3        1 PG6      0.123400
     17 O6         10.6350    9.4730    5.9470 os        1 PG6     -0.425600
     18 C12        11.1910   10.7400    5.6440 c3        1 PG6      0.117700
     19 H11         0.0340   -2.6750   -1.9500 h1        1 PG6      0.032700
     20 H12         0.9260   -1.3040   -2.7890 h1        1 PG6      0.032700
     21 H13        -0.8360   -1.1020   -2.3370 h1        1 PG6      0.032700
     22 H21         1.4000    0.6270   -1.4540 h1        1 PG6      0.042700
     23 H22        -0.3050    0.7750   -0.7960 h1        1 PG6      0.042700
     24 H31         1.2200   -0.3620    1.3690 h1        1 PG6      0.043200
     25 H32         0.6610    1.3790    1.2290 h1        1 PG6      0.043200
     26 H41         2.7030    1.7940    2.4830 h1        1 PG6      0.043700
     27 H42         3.4330    0.1280    2.2440 h1        1 PG6      0.043700
     28 H51         4.8280    1.7430    0.3460 h1        1 PG6      0.043200
     29 H52         5.4610    1.2400    1.9920 h1        1 PG6      0.043200
     30 H61         6.6570    3.3490    1.8190 h1        1 PG6      0.043700
     31 H62         5.7040    4.0100    0.3980 h1        1 PG6      0.043700
     32 H71         4.5810    5.3670    2.6500 h1        1 PG6      0.043700
     33 H72         5.8190    6.0620    1.4880 h1        1 PG6      0.043700
     34 H81         6.4830    7.3220    3.4580 h1        1 PG6      0.043200
     35 H82         5.5350    6.3240    4.6700 h1        1 PG6      0.043200
     36 H91         8.2070    5.3590    4.9620 h1        1 PG6      0.043700
     37 H92         7.3810    6.5710    6.0630 h1        1 PG6      0.043700
     38 H101        9.6560    7.3670    6.3590 h1        1 PG6      0.043200
     39 H102       10.3870    6.4370    4.9570 h1        1 PG6      0.043200
     40 H111       10.0520    9.1210    3.9630 h1        1 PG6      0.042700
     41 H112       11.6260    8.3480    4.4990 h1        1 PG6      0.042700
     42 H121       12.2390   10.6310    5.2700 h1        1 PG6      0.032700
     43 H122       10.5690   11.2720    4.8820 h1        1 PG6      0.032700
     44 H123       11.1770   11.2910    6.6170 h1        1 PG6      0.032700
@<TRIPOS>BOND
     1    1    2 1   
     2    1   19 1   
     3    1   20 1   
     4    1   21 1   
     5    2    3 1   
     6    3    4 1   
     7    3   22 1   
     8    3   23 1   
     9    4    5 1   
    10    4   24 1   
    11    4   25 1   
    12    5    6 1   
    13    6    7 1   
    14    6   26 1   
    15    6   27 1   
    16    7    8 1   
    17    7   28 1   
    18    7   29 1   
    19    8    9 1   
    20    9   10 1   
    21    9   30 1   
    22    9   31 1   
    23   10   11 1   
    24   10   32 1   
    25   10   33 1   
    26   11   12 1   
    27   12   13 1   
    28   12   34 1   
    29   12   35 1   
    30   13   14 1   
    31   13   36 1   
    32   13   37 1   
    33   14   15 1   
    34   15   16 1   
    35   15   38 1   
    36   15   39 1   
    37   16   17 1   
    38   16   40 1   
    39   16   41 1   
    40   17   18 1   
    41   18   42 1   
    42   18   43 1   
    43   18   44 1   
@<TRIPOS>SUBSTRUCTURE
     1 PG6         1 TEMP              0 ****  ****    0 ROOT
