@<TRIPOS>MOLECULE
PG6
   44    43     1     0     0
SMALL
bcc


@<TRIPOS>ATOM
      1 C1          0.1790   -1.6270   -2.0150 c3        1 PG6      0.117700
      2 O1          0.5330   -1.1660   -0.7240 os        1 PG6     -0.425600
      3 C2          0.7200    0.2480   -0.6780 c3        1 PG6      0.123400
      4 C3          1.2460    0.5710    0.7170 c3        1 PG6      0.127400
      5 O2          2.6010    0.9850    0.5510 os        1 PG6     -0.429600
      6 C4          3.2680    1.1580    1.7990 c3        1 PG6      0.127400
      7 C5          4.6300    1.7660    1.4820 c3        1 PG6      0.127400
      8 O3          4.5740    3.1280    1.9000 os        1 PG6     -0.429600
      9 C6          5.7350    3.8600    1.5130 c3        1 PG6      0.127400
     10 C7          5.6230    5.2300    2.1740 c3        1 PG6      0.127400
     11 O4          6.5830    5.2510    3.2280 os        1 PG6     -0.429600
     12 C8          6.4710    6.4200    4.0370 c3        1 PG6      0.127400
     13 C9          7.6540    6.3960    5.0000 c3        1 PG6      0.127400
     14 O5          8.5590    7.4050    4.5550 os        1 PG6     -0.429600
     15 C10         9.7890    7.3820    5.2760 c3        1 PG6      0.127400
     16 C11        10.5730    8.6120    4.8320 c3        1 PG6      0.123400
     17 O6         10.6100    9.4960    5.9510 os        1 PG6     -0.425600
     18 C12        11.1900   10.7490    5.6370 c3        1 PG6      0.117700
     19 H11         0.0600   -2.7330   -1.8950 h1        1 PG6      0.032700
     20 H12         0.9880   -1.3970   -2.7520 h1        1 PG6      0.032700
     21 H13        -0.7820   -1.1630   -2.3500 h1        1 PG6      0.032700
     22 H21         1.4520    0.5680   -1.4650 h1        1 PG6      0.042700
     23 H22        -0.2660    0.7540   -0.8530 h1        1 PG6      0.042700
     24 H31         1.1940   -0.3330    1.3810 h1        1 PG6      0.043200
     25 H32         0.6580    1.4090    1.1750 h1        1 PG6      0.043200
     26 H41         2.6750    1.8370    2.4670 h1        1 PG6      0.043700
     27 H42         3.3920    0.1580    2.2920 h1        1 PG6      0.043700
     28 H51         4.8470    1.7050    0.3820 h1        1 PG6      0.043200
     29 H52         5.4380    1.2380    2.0550 h1        1 PG6      0.043200
     30 H61         6.6620    3.3270    1.8550 h1        1 PG6      0.043700
     31 H62         5.7500    3.9640    0.3960 h1        1 PG6      0.043700
     32 H71         4.5910    5.3910    2.5840 h1        1 PG6      0.043700
     33 H72         5.8670    6.0410    1.4380 h1        1 PG6      0.043700
     34 H81         6.4990    7.3410    3.3950 h1        1 PG6      0.043200
     35 H82         5.5040    6.3850    4.6040 h1        1 PG6      0.043200
     36 H91         8.1550    5.3920    4.9890 h1        1 PG6      0.043700
     37 H92         7.3160    6.6390    6.0410 h1        1 PG6      0.043700
     38 H101        9.5930    7.4130    6.3810 h1        1 PG6      0.043200
     39 H102       10.3490    6.4440    5.0190 h1        1 PG6      0.043200
     40 H111       10.0730    9.1110    3.9600 h1        1 PG6      0.042700
     41 H112       11.6220    8.3300    4.5520 h1        1 PG6      0.042700
     42 H121       12.2460   10.6200    5.2930 h1        1 PG6      0.032700
     43 H122       10.5960   11.2730    4.8480 h1        1 PG6      0.032700
     44 H123       11.1580   11.3210    6.5970 h1        1 PG6      0.032700
@<TRIPOS>BOND
     1    1    2 1   
     2    1   19 1   
     3    1   20 1   
     4    1   21 1   
     5    2    3 1   
     6    3    4 1   
     7    3   22 1   
     8    3   23 1   
     9    4    5 1   
    10    4   24 1   
    11    4   25 1   
    12    5    6 1   
    13    6    7 1   
    14    6   26 1   
    15    6   27 1   
    16    7    8 1   
    17    7   28 1   
    18    7   29 1   
    19    8    9 1   
    20    9   10 1   
    21    9   30 1   
    22    9   31 1   
    23   10   11 1   
    24   10   32 1   
    25   10   33 1   
    26   11   12 1   
    27   12   13 1   
    28   12   34 1   
    29   12   35 1   
    30   13   14 1   
    31   13   36 1   
    32   13   37 1   
    33   14   15 1   
    34   15   16 1   
    35   15   38 1   
    36   15   39 1   
    37   16   17 1   
    38   16   40 1   
    39   16   41 1   
    40   17   18 1   
    41   18   42 1   
    42   18   43 1   
    43   18   44 1   
@<TRIPOS>SUBSTRUCTURE
     1 PG6         1 TEMP              0 ****  ****    0 ROOT
