@<TRIPOS>MOLECULE
PG7
   35    37     1     0     0
SMALL
bcc


@<TRIPOS>ATOM
      1 P           4.4700    0.1030   -1.1890 p5        1 PG7      1.330900
      2 OP1         3.8860   -1.2350   -1.5990 o         1 PG7     -0.929500
      3 OP2         3.8860    1.2720   -1.9290 o         1 PG7     -0.929500
      4 O5'         3.6630    0.2470    0.3560 os        1 PG7     -0.552200
      5 O3'         2.1240   -3.0970   -0.5910 oh        1 PG7     -0.670800
      6 C1'        -0.6940   -1.3660    0.6200 c3        1 PG7      0.253800
      7 C2'        -0.1350   -2.3160   -0.4590 c3        1 PG7     -0.130400
      8 C3'         1.3440   -1.9240   -0.6050 c3        1 PG7      0.156100
      9 C4'         1.6500   -1.0330    0.6160 c3        1 PG7      0.051100
     10 C5'         2.3030    0.3230    0.2540 c3        1 PG7      0.227400
     11 O4'         0.4000   -0.8060    1.3230 os        1 PG7     -0.434600
     12 C6         -4.6360    1.4180   -0.4810 ca        1 PG7      0.718600
     13 C5         -3.2620    1.0910   -0.4480 ca        1 PG7     -0.253200
     14 N7         -2.0930    1.7470   -0.8590 nc        1 PG7     -0.590100
     15 C8         -1.0930    0.9110   -0.5270 cd        1 PG7      0.467700
     16 N9         -1.5310   -0.2890    0.0810 na        1 PG7     -0.263000
     17 C4         -2.9240   -0.2000    0.1590 ca        1 PG7      0.466800
     18 N3         -3.8500   -1.0620    0.6670 nb        1 PG7     -0.753000
     19 C2         -5.1480   -0.6200    0.5450 ca        1 PG7      0.846900
     20 N1         -5.5870    0.5960    0.0120 nb        1 PG7     -0.789000
     21 OP3         5.9230    0.1350   -0.8350 o         1 PG7     -0.929500
     22 HO3'        3.0130   -2.8160   -0.9140 ho        1 PG7      0.501000
     23 H1'        -1.3270   -1.9080    1.3820 h2        1 PG7      0.071700
     24 H2'        -0.2230   -3.3680   -0.0930 hc        1 PG7      0.054700
     25 H2''       -0.6700   -2.2360   -1.4330 hc        1 PG7      0.054700
     26 H3'         1.5280   -1.3630   -1.5630 h1        1 PG7      0.104700
     27 H4'         2.3040   -1.5790    1.3480 h1        1 PG7      0.081700
     28 H5'         1.9050    1.0830    0.9910 h1        1 PG7     -0.004800
     29 H5''        1.9940    0.6290   -0.7880 h1        1 PG7     -0.004800
     30 HN2        -5.8620   -2.1930    1.6220 hn        1 PG7      0.393800
     31 H21        -7.0160   -1.0640    1.2220 hn        1 PG7      0.393800
     32 H6         -4.3170    3.0900   -1.3230 ho        1 PG7      0.448000
     33 H8         -0.0100    1.0930   -0.6830 h5        1 PG7      0.130800
     34 O6         -5.0960    2.6040   -1.0050 oh        1 PG7     -0.613300
     35 N2         -6.1700   -1.5200    0.9540 nh        1 PG7     -0.902500
@<TRIPOS>BOND
     1    1    2 1   
     2    1    3 1   
     3    1    4 1   
     4    1   21 1   
     5    4   10 1   
     6    5    8 1   
     7    5   22 1   
     8    6    7 1   
     9    6   11 1   
    10    6   16 1   
    11    6   23 1   
    12    7    8 1   
    13    7   24 1   
    14    7   25 1   
    15    8    9 1   
    16    8   26 1   
    17    9   10 1   
    18    9   11 1   
    19    9   27 1   
    20   10   28 1   
    21   10   29 1   
    22   12   13 ar  
    23   12   20 ar  
    24   12   34 1   
    25   13   14 1   
    26   13   17 ar  
    27   14   15 2   
    28   15   16 1   
    29   15   33 1   
    30   16   17 1   
    31   17   18 ar  
    32   18   19 ar  
    33   19   20 ar  
    34   19   35 1   
    35   30   35 1   
    36   31   35 1   
    37   32   34 1   
@<TRIPOS>SUBSTRUCTURE
     1 PG7         1 TEMP              0 ****  ****    0 ROOT
