@<TRIPOS>MOLECULE
PG8
   75    74     1     0     0
SMALL
bcc


@<TRIPOS>ATOM
      1 O1          0.3580    2.2830    1.6320 o         1 PG8     -0.820000
      2 O2         -0.0870    3.8310   -0.4510 o         1 PG8     -0.820000
      3 P1          0.3490    2.5800    0.1880 p5        1 PG8      1.421800
      4 O3          1.8970    2.2550   -0.3400 os        1 PG8     -0.581200
      5 C1          2.8070    3.1570    0.2140 c3        1 PG8      0.135400
      6 C2          4.2200    2.7250   -0.1780 c3        1 PG8      0.105100
      7 C3          5.2630    3.5580    0.5700 c3        1 PG8      0.128400
      8 O4          6.5820    3.1890    0.2150 oh        1 PG8     -0.619800
      9 O5          4.4690    1.3660    0.1560 oh        1 PG8     -0.649800
     10 O6         -0.3630    1.3040   -0.5810 os        1 PG8     -0.561200
     11 C4         -0.1290    0.0440   -0.0370 c3        1 PG8      0.199400
     12 C5          0.2700   -0.9080   -1.1810 c3        1 PG8      0.100100
     13 C6          1.7370   -0.7930   -1.5810 c3        1 PG8      0.112400
     14 O7          2.6150   -0.9530   -0.4620 os        1 PG8     -0.425900
     15 C7          3.1170   -2.1820   -0.1630 c         1 PG8      0.644100
     16 O8          2.8220   -3.1550   -0.8640 o         1 PG8     -0.575000
     17 C8          4.0030   -2.1280    1.0450 c3        1 PG8     -0.137400
     18 C9          5.0630   -3.2060    0.9990 c3        1 PG8     -0.075400
     19 C10         5.8740   -3.2170    2.2770 c3        1 PG8     -0.079400
     20 C11         6.9500   -4.2810    2.2310 c3        1 PG8     -0.078400
     21 C12         7.7600   -4.2980    3.5090 c3        1 PG8     -0.079400
     22 C13         8.8380   -5.3610    3.4650 c3        1 PG8     -0.080400
     23 C14         9.6460   -5.3820    4.7360 c3        1 PG8     -0.092100
     24 O9          0.0030   -2.2360   -0.6900 os        1 PG8     -0.437900
     25 C15        -0.1990   -3.2260   -1.6070 c         1 PG8      0.648100
     26 O10        -0.3210   -2.9380   -2.8000 o         1 PG8     -0.561000
     27 C16        -0.2220   -4.5810   -0.9670 c3        1 PG8     -0.133400
     28 C17        -0.9450   -5.5900   -1.8320 c3        1 PG8     -0.076400
     29 C18        -0.8420   -6.9790   -1.2400 c3        1 PG8     -0.078400
     30 C19        -1.5750   -7.9920   -2.0930 c3        1 PG8     -0.078400
     31 C20        -1.4700   -9.3830   -1.5060 c3        1 PG8     -0.079400
     32 C21        -2.2040  -10.3970   -2.3580 c3        1 PG8     -0.080400
     33 C22        -2.1030  -11.7840   -1.7780 c3        1 PG8     -0.091100
     34 H1          2.5890    4.1880   -0.1780 h1        1 PG8      0.040200
     35 H2          2.6910    3.1480    1.3350 h1        1 PG8      0.040200
     36 H3          4.3600    2.8390   -1.2900 h1        1 PG8      0.044700
     37 H4          5.1710    4.6390    0.2860 h1        1 PG8      0.043200
     38 H5          5.1270    3.4400    1.6780 h1        1 PG8      0.043200
     39 H6          6.6200    2.2250    0.2470 ho        1 PG8      0.413000
     40 H7          3.6320    0.8910    0.0270 ho        1 PG8      0.450000
     41 H8          0.6820    0.0870    0.7400 h1        1 PG8      0.046200
     42 H9         -1.0780   -0.3480    0.4260 h1        1 PG8      0.046200
     43 H10        -0.3620   -0.6980   -2.0890 h1        1 PG8      0.092700
     44 H11         1.9830   -1.5370   -2.3820 h1        1 PG8      0.087700
     45 H12         1.9440    0.2660   -1.9090 h1        1 PG8      0.087700
     46 H13         4.4720   -1.1070    1.1090 hc        1 PG8      0.088200
     47 H14         3.3470   -2.2560    1.9480 hc        1 PG8      0.088200
     48 H15         4.5760   -4.2050    0.8420 hc        1 PG8      0.051200
     49 H16         5.7400   -3.0290    0.1210 hc        1 PG8      0.051200
     50 H17         5.1970   -3.4050    3.1510 hc        1 PG8      0.042700
     51 H18         6.3450   -2.2110    2.4330 hc        1 PG8      0.042700
     52 H19         7.6290   -4.0910    1.3580 hc        1 PG8      0.038700
     53 H20         6.4790   -5.2860    2.0700 hc        1 PG8      0.038700
     54 H21         7.0810   -4.4880    4.3820 hc        1 PG8      0.040200
     55 H22         8.2300   -3.2930    3.6700 hc        1 PG8      0.040200
     56 H23         9.5140   -5.1700    2.5910 hc        1 PG8      0.037200
     57 H24         8.3650   -6.3660    3.3020 hc        1 PG8      0.037200
     58 H25         8.9920   -5.5960    5.6160 hc        1 PG8      0.030033
     59 H26        10.1440   -4.3960    4.9030 hc        1 PG8      0.030033
     60 H27        10.4340   -6.1710    4.6830 hc        1 PG8      0.030033
     61 H28         0.8530   -4.8780   -0.8170 hc        1 PG8      0.082700
     62 H29        -0.7020   -4.5080    0.0440 hc        1 PG8      0.082700
     63 H30        -2.0230   -5.2970   -1.9310 hc        1 PG8      0.054200
     64 H31        -0.5050   -5.5770   -2.8650 hc        1 PG8      0.054200
     65 H32        -1.2700   -6.9800   -0.2030 hc        1 PG8      0.038700
     66 H33         0.2380   -7.2710   -1.1520 hc        1 PG8      0.038700
     67 H34        -2.6550   -7.6990   -2.1790 hc        1 PG8      0.040700
     68 H35        -1.1480   -7.9870   -3.1300 hc        1 PG8      0.040700
     69 H36        -1.8970   -9.3860   -0.4680 hc        1 PG8      0.038200
     70 H37        -0.3910   -9.6750   -1.4200 hc        1 PG8      0.038200
     71 H38        -3.2830  -10.1020   -2.4440 hc        1 PG8      0.038200
     72 H39        -1.7770  -10.3900   -3.3960 hc        1 PG8      0.038200
     73 H40        -1.0350  -12.1050   -1.7080 hc        1 PG8      0.029700
     74 H41        -2.6490  -12.5150   -2.4210 hc        1 PG8      0.029700
     75 H42        -2.5450  -11.8160   -0.7530 hc        1 PG8      0.029700
@<TRIPOS>BOND
     1    1    3 1   
     2    2    3 1   
     3    3    4 1   
     4    3   10 1   
     5    4    5 1   
     6    5    6 1   
     7    5   34 1   
     8    5   35 1   
     9    6    7 1   
    10    6    9 1   
    11    6   36 1   
    12    7    8 1   
    13    7   37 1   
    14    7   38 1   
    15    8   39 1   
    16    9   40 1   
    17   10   11 1   
    18   11   12 1   
    19   11   41 1   
    20   11   42 1   
    21   12   13 1   
    22   12   24 1   
    23   12   43 1   
    24   13   14 1   
    25   13   44 1   
    26   13   45 1   
    27   14   15 1   
    28   15   16 2   
    29   15   17 1   
    30   17   18 1   
    31   17   46 1   
    32   17   47 1   
    33   18   19 1   
    34   18   48 1   
    35   18   49 1   
    36   19   20 1   
    37   19   50 1   
    38   19   51 1   
    39   20   21 1   
    40   20   52 1   
    41   20   53 1   
    42   21   22 1   
    43   21   54 1   
    44   21   55 1   
    45   22   23 1   
    46   22   56 1   
    47   22   57 1   
    48   23   58 1   
    49   23   59 1   
    50   23   60 1   
    51   24   25 1   
    52   25   26 2   
    53   25   27 1   
    54   27   28 1   
    55   27   61 1   
    56   27   62 1   
    57   28   29 1   
    58   28   63 1   
    59   28   64 1   
    60   29   30 1   
    61   29   65 1   
    62   29   66 1   
    63   30   31 1   
    64   30   67 1   
    65   30   68 1   
    66   31   32 1   
    67   31   69 1   
    68   31   70 1   
    69   32   33 1   
    70   32   71 1   
    71   32   72 1   
    72   33   73 1   
    73   33   74 1   
    74   33   75 1   
@<TRIPOS>SUBSTRUCTURE
     1 PG8         1 TEMP              0 ****  ****    0 ROOT
