@<TRIPOS>MOLECULE
PG8
   75    74     1     0     0
SMALL
bcc


@<TRIPOS>ATOM
      1 O1          0.7620   -3.5150    2.5240 o         1 PG8     -0.817000
      2 O2          2.5960   -2.1830    3.8770 o         1 PG8     -0.817000
      3 P1          1.5500   -2.3120    2.8550 p5        1 PG8      1.426800
      4 O3          2.1770   -1.7600    1.4120 os        1 PG8     -0.591200
      5 C1          2.2710   -2.7020    0.3900 c3        1 PG8      0.145400
      6 C2          2.3150   -1.9610   -0.9510 c3        1 PG8      0.093100
      7 C3          2.2530   -2.9570   -2.1110 c3        1 PG8      0.131400
      8 O4          2.2990   -2.3020   -3.3650 oh        1 PG8     -0.619800
      9 O5          1.2140   -1.0780   -1.1190 oh        1 PG8     -0.642800
     10 O6          0.4640   -1.0840    3.0660 os        1 PG8     -0.560200
     11 C4         -0.6310   -1.1600    2.2080 c3        1 PG8      0.193400
     12 C5         -1.3620    0.1910    2.2220 c3        1 PG8      0.137100
     13 C6         -0.4270    1.3930    2.1580 c3        1 PG8      0.132400
     14 O7          0.4930    1.1880    1.0770 os        1 PG8     -0.436900
     15 C7          1.6650    1.8960    1.1330 c         1 PG8      0.649100
     16 O8          1.7260    2.8660    1.8920 o         1 PG8     -0.564000
     17 C8          2.7040    1.3390    0.2150 c3        1 PG8     -0.153400
     18 C9          3.9240    2.2290    0.1440 c3        1 PG8     -0.071400
     19 C10         4.9860    1.6090   -0.7390 c3        1 PG8     -0.081400
     20 C11         6.2220    2.4800   -0.8000 c3        1 PG8     -0.077400
     21 C12         7.2840    1.8630   -1.6850 c3        1 PG8     -0.080400
     22 C13         8.5220    2.7320   -1.7480 c3        1 PG8     -0.080400
     23 C14         9.5820    2.1220   -2.6280 c3        1 PG8     -0.091100
     24 O9         -2.2170    0.1540    1.0600 os        1 PG8     -0.426900
     25 C15        -3.3280    0.9390    1.0510 c         1 PG8      0.634100
     26 O10        -3.5920    1.6410    2.0320 o         1 PG8     -0.563000
     27 C16        -4.0900    0.8240   -0.2360 c3        1 PG8     -0.131400
     28 C17        -5.5810    0.9240    0.0030 c3        1 PG8     -0.078400
     29 C18        -6.3360    0.9500   -1.3080 c3        1 PG8     -0.078400
     30 C19        -7.8300    1.0300   -1.0760 c3        1 PG8     -0.079400
     31 C20        -8.5880    1.0610   -2.3860 c3        1 PG8     -0.079400
     32 C21       -10.0820    1.1410   -2.1550 c3        1 PG8     -0.080400
     33 C22       -10.8420    1.1720   -3.4560 c3        1 PG8     -0.092100
     34 H1          3.2230   -3.2930    0.4980 h1        1 PG8      0.043700
     35 H2          1.3870   -3.4000    0.4290 h1        1 PG8      0.043700
     36 H3          3.2600   -1.3490   -1.0170 h1        1 PG8      0.036700
     37 H4          3.1520   -3.6270   -2.0940 h1        1 PG8      0.044200
     38 H5          1.3160   -3.5700   -2.0400 h1        1 PG8      0.044200
     39 H6          1.6450   -1.5920   -3.3320 ho        1 PG8      0.415000
     40 H7          1.0350   -0.6750   -0.2550 ho        1 PG8      0.446000
     41 H8         -1.3260   -1.9720    2.5530 h1        1 PG8      0.040700
     42 H9         -0.2820   -1.3980    1.1640 h1        1 PG8      0.040700
     43 H10        -1.9910    0.2940    3.1490 h1        1 PG8      0.075700
     44 H11         0.1390    1.4700    3.1240 h1        1 PG8      0.067200
     45 H12        -0.9990    2.3360    1.9570 h1        1 PG8      0.067200
     46 H13         2.2560    1.1900   -0.8040 hc        1 PG8      0.103200
     47 H14         2.9750    0.3130    0.6080 hc        1 PG8      0.103200
     48 H15         4.3290    2.3880    1.1790 hc        1 PG8      0.049700
     49 H16         3.6350    3.2370   -0.2530 hc        1 PG8      0.049700
     50 H17         4.5770    1.4610   -1.7730 hc        1 PG8      0.044700
     51 H18         5.2560    0.5940   -0.3430 hc        1 PG8      0.044700
     52 H19         6.6310    2.6230    0.2350 hc        1 PG8      0.037700
     53 H20         5.9490    3.4950   -1.1910 hc        1 PG8      0.037700
     54 H21         6.8740    1.7170   -2.7190 hc        1 PG8      0.040700
     55 H22         7.5570    0.8480   -1.2920 hc        1 PG8      0.040700
     56 H23         8.9300    2.8770   -0.7130 hc        1 PG8      0.036200
     57 H24         8.2460    3.7470   -2.1390 hc        1 PG8      0.036200
     58 H25        10.4860    2.7770   -2.6610 hc        1 PG8      0.029033
     59 H26         9.8870    1.1200   -2.2400 hc        1 PG8      0.029033
     60 H27         9.2020    1.9920   -3.6710 hc        1 PG8      0.029033
     61 H28        -3.7420    1.6560   -0.9040 hc        1 PG8      0.077200
     62 H29        -3.8340   -0.1470   -0.7380 hc        1 PG8      0.077200
     63 H30        -5.9220    0.0520    0.6200 hc        1 PG8      0.055200
     64 H31        -5.8030    1.8530    0.5940 hc        1 PG8      0.055200
     65 H32        -6.0020    1.8300   -1.9190 hc        1 PG8      0.039700
     66 H33        -6.0960    0.0270   -1.9000 hc        1 PG8      0.039700
     67 H34        -8.1640    0.1480   -0.4690 hc        1 PG8      0.041200
     68 H35        -8.0680    1.9510   -0.4810 hc        1 PG8      0.041200
     69 H36        -8.2550    1.9440   -2.9930 hc        1 PG8      0.039200
     70 H37        -8.3490    0.1410   -2.9810 hc        1 PG8      0.039200
     71 H38       -10.4140    0.2580   -1.5460 hc        1 PG8      0.038200
     72 H39       -10.3200    2.0600   -1.5580 hc        1 PG8      0.038200
     73 H40       -10.6370    0.2520   -4.0540 hc        1 PG8      0.030367
     74 H41       -11.9410    1.2300   -3.2640 hc        1 PG8      0.030367
     75 H42       -10.5430    2.0590   -4.0660 hc        1 PG8      0.030367
@<TRIPOS>BOND
     1    1    3 1   
     2    2    3 1   
     3    3    4 1   
     4    3   10 1   
     5    4    5 1   
     6    5    6 1   
     7    5   34 1   
     8    5   35 1   
     9    6    7 1   
    10    6    9 1   
    11    6   36 1   
    12    7    8 1   
    13    7   37 1   
    14    7   38 1   
    15    8   39 1   
    16    9   40 1   
    17   10   11 1   
    18   11   12 1   
    19   11   41 1   
    20   11   42 1   
    21   12   13 1   
    22   12   24 1   
    23   12   43 1   
    24   13   14 1   
    25   13   44 1   
    26   13   45 1   
    27   14   15 1   
    28   15   16 2   
    29   15   17 1   
    30   17   18 1   
    31   17   46 1   
    32   17   47 1   
    33   18   19 1   
    34   18   48 1   
    35   18   49 1   
    36   19   20 1   
    37   19   50 1   
    38   19   51 1   
    39   20   21 1   
    40   20   52 1   
    41   20   53 1   
    42   21   22 1   
    43   21   54 1   
    44   21   55 1   
    45   22   23 1   
    46   22   56 1   
    47   22   57 1   
    48   23   58 1   
    49   23   59 1   
    50   23   60 1   
    51   24   25 1   
    52   25   26 2   
    53   25   27 1   
    54   27   28 1   
    55   27   61 1   
    56   27   62 1   
    57   28   29 1   
    58   28   63 1   
    59   28   64 1   
    60   29   30 1   
    61   29   65 1   
    62   29   66 1   
    63   30   31 1   
    64   30   67 1   
    65   30   68 1   
    66   31   32 1   
    67   31   69 1   
    68   31   70 1   
    69   32   33 1   
    70   32   71 1   
    71   32   72 1   
    72   33   73 1   
    73   33   74 1   
    74   33   75 1   
@<TRIPOS>SUBSTRUCTURE
     1 PG8         1 TEMP              0 ****  ****    0 ROOT
