@<TRIPOS>MOLECULE
PG8
   75    74     1     0     0
SMALL
bcc


@<TRIPOS>ATOM
      1 O1          1.1580    1.6350   -0.3730 o         1 PG8     -0.817000
      2 O2          3.4900    2.2680   -1.4360 o         1 PG8     -0.817000
      3 P1          2.5090    1.3270   -0.8820 p5        1 PG8      1.426800
      4 O3          3.2650    0.4520    0.3190 os        1 PG8     -0.591200
      5 C1          2.7510    0.6110    1.6030 c3        1 PG8      0.145400
      6 C2          3.1440   -0.6120    2.4390 c3        1 PG8      0.093100
      7 C3          2.4640   -0.5610    3.8080 c3        1 PG8      0.131400
      8 O4          2.8120   -1.6760    4.6070 oh        1 PG8     -0.619800
      9 O5          2.7410   -1.8340    1.8350 oh        1 PG8     -0.642800
     10 O6          2.3350    0.0730   -1.9440 os        1 PG8     -0.560200
     11 C4          1.3530   -0.8410   -1.5660 c3        1 PG8      0.193400
     12 C5          1.5320   -2.1240   -2.3920 c3        1 PG8      0.137100
     13 C6          2.9820   -2.5750   -2.5170 c3        1 PG8      0.132400
     14 O7          3.5620   -2.5860   -1.2040 os        1 PG8     -0.436900
     15 C7          4.9290   -2.5150   -1.1430 c         1 PG8      0.649100
     16 O8          5.5740   -2.7630   -2.1650 o         1 PG8     -0.564000
     17 C8          5.4130   -2.1360    0.2190 c3        1 PG8     -0.153400
     18 C9          6.9170   -2.2400    0.3280 c3        1 PG8     -0.071400
     19 C10         7.3850   -1.7870    1.6940 c3        1 PG8     -0.081400
     20 C11         8.8920   -1.8640    1.8090 c3        1 PG8     -0.077400
     21 C12         9.3620   -1.4150    3.1760 c3        1 PG8     -0.080400
     22 C13        10.8690   -1.4910    3.2940 c3        1 PG8     -0.080400
     23 C14        11.3420   -1.0450    4.6530 c3        1 PG8     -0.091100
     24 O9          0.7530   -3.1170   -1.6920 os        1 PG8     -0.426900
     25 C15         0.2950   -4.1900   -2.3930 c         1 PG8      0.634100
     26 O10         0.5320   -4.2800   -3.6010 o         1 PG8     -0.563000
     27 C16        -0.4580   -5.1520   -1.5230 c3        1 PG8     -0.131400
     28 C17        -1.5980   -5.7950   -2.2820 c3        1 PG8     -0.078400
     29 C18        -2.2660   -6.8660   -1.4460 c3        1 PG8     -0.078400
     30 C19        -3.4200   -7.5000   -2.1920 c3        1 PG8     -0.078400
     31 C20        -4.0870   -8.5750   -1.3620 c3        1 PG8     -0.079400
     32 C21        -5.2420   -9.2100   -2.1070 c3        1 PG8     -0.080400
     33 C22        -5.9090  -10.2820   -1.2840 c3        1 PG8     -0.092100
     34 H1          1.6300    0.7170    1.5570 h1        1 PG8      0.043700
     35 H2          3.1960    1.5260    2.0850 h1        1 PG8      0.043700
     36 H3          4.2640   -0.6430    2.5650 h1        1 PG8      0.036700
     37 H4          2.8160    0.3360    4.3820 h1        1 PG8      0.044200
     38 H5          1.3490   -0.5230    3.6820 h1        1 PG8      0.044200
     39 H6          2.6860   -2.4610    4.0590 ho        1 PG8      0.415000
     40 H7          2.8690   -1.7370    0.8780 ho        1 PG8      0.446000
     41 H8          0.3370   -0.4030   -1.7580 h1        1 PG8      0.040700
     42 H9          1.4490   -1.0730   -0.4690 h1        1 PG8      0.040700
     43 H10         1.1230   -1.9890   -3.4310 h1        1 PG8      0.075700
     44 H11         3.0460   -3.6120   -2.9370 h1        1 PG8      0.067200
     45 H12         3.5380   -1.8480   -3.1670 h1        1 PG8      0.067200
     46 H13         4.9090   -2.7850    0.9840 hc        1 PG8      0.103200
     47 H14         5.0660   -1.0760    0.4080 hc        1 PG8      0.103200
     48 H15         7.3930   -1.6090   -0.4700 hc        1 PG8      0.049700
     49 H16         7.2390   -3.2980    0.1430 hc        1 PG8      0.049700
     50 H17         6.9130   -2.4270    2.4860 hc        1 PG8      0.044700
     51 H18         7.0450   -0.7330    1.8760 hc        1 PG8      0.044700
     52 H19         9.3620   -1.2200    1.0190 hc        1 PG8      0.037700
     53 H20         9.2310   -2.9170    1.6210 hc        1 PG8      0.037700
     54 H21         8.8910   -2.0570    3.9660 hc        1 PG8      0.040700
     55 H22         9.0230   -0.3620    3.3620 hc        1 PG8      0.040700
     56 H23        11.2060   -2.5450    3.1050 hc        1 PG8      0.035700
     57 H24        11.3380   -0.8490    2.5020 hc        1 PG8      0.035700
     58 H25        10.9040   -1.6890    5.4540 hc        1 PG8      0.029033
     59 H26        12.4550   -1.1080    4.7190 hc        1 PG8      0.029033
     60 H27        11.0360    0.0110    4.8490 hc        1 PG8      0.029033
     61 H28        -0.8390   -4.6160   -0.6140 hc        1 PG8      0.077200
     62 H29         0.2730   -5.9310   -1.1780 hc        1 PG8      0.077200
     63 H30        -2.3500   -5.0110   -2.5650 hc        1 PG8      0.055200
     64 H31        -1.2080   -6.2380   -3.2360 hc        1 PG8      0.055200
     65 H32        -2.6380   -6.4180   -0.4870 hc        1 PG8      0.039700
     66 H33        -1.5160   -7.6540   -1.1740 hc        1 PG8      0.039700
     67 H34        -4.1720   -6.7120   -2.4620 hc        1 PG8      0.041200
     68 H35        -3.0470   -7.9430   -3.1540 hc        1 PG8      0.041200
     69 H36        -3.3350   -9.3630   -1.0930 hc        1 PG8      0.039200
     70 H37        -4.4580   -8.1320   -0.4000 hc        1 PG8      0.039200
     71 H38        -4.8690   -9.6500   -3.0690 hc        1 PG8      0.038200
     72 H39        -5.9920   -8.4190   -2.3750 hc        1 PG8      0.038200
     73 H40        -5.1830  -11.0910   -1.0270 hc        1 PG8      0.030367
     74 H41        -6.7570  -10.7360   -1.8510 hc        1 PG8      0.030367
     75 H42        -6.3090   -9.8560   -0.3320 hc        1 PG8      0.030367
@<TRIPOS>BOND
     1    1    3 1   
     2    2    3 1   
     3    3    4 1   
     4    3   10 1   
     5    4    5 1   
     6    5    6 1   
     7    5   34 1   
     8    5   35 1   
     9    6    7 1   
    10    6    9 1   
    11    6   36 1   
    12    7    8 1   
    13    7   37 1   
    14    7   38 1   
    15    8   39 1   
    16    9   40 1   
    17   10   11 1   
    18   11   12 1   
    19   11   41 1   
    20   11   42 1   
    21   12   13 1   
    22   12   24 1   
    23   12   43 1   
    24   13   14 1   
    25   13   44 1   
    26   13   45 1   
    27   14   15 1   
    28   15   16 2   
    29   15   17 1   
    30   17   18 1   
    31   17   46 1   
    32   17   47 1   
    33   18   19 1   
    34   18   48 1   
    35   18   49 1   
    36   19   20 1   
    37   19   50 1   
    38   19   51 1   
    39   20   21 1   
    40   20   52 1   
    41   20   53 1   
    42   21   22 1   
    43   21   54 1   
    44   21   55 1   
    45   22   23 1   
    46   22   56 1   
    47   22   57 1   
    48   23   58 1   
    49   23   59 1   
    50   23   60 1   
    51   24   25 1   
    52   25   26 2   
    53   25   27 1   
    54   27   28 1   
    55   27   61 1   
    56   27   62 1   
    57   28   29 1   
    58   28   63 1   
    59   28   64 1   
    60   29   30 1   
    61   29   65 1   
    62   29   66 1   
    63   30   31 1   
    64   30   67 1   
    65   30   68 1   
    66   31   32 1   
    67   31   69 1   
    68   31   70 1   
    69   32   33 1   
    70   32   71 1   
    71   32   72 1   
    72   33   73 1   
    73   33   74 1   
    74   33   75 1   
@<TRIPOS>SUBSTRUCTURE
     1 PG8         1 TEMP              0 ****  ****    0 ROOT
