@<TRIPOS>MOLECULE
PG9
   19    19     1     0     0
SMALL
bcc


@<TRIPOS>ATOM
      1 N          -1.2180    1.3430    1.5630 n3        1 PG9     -0.882800
      2 CA         -0.9780    0.1320    0.7820 c3        1 PG9      0.045800
      3 CB          0.4610    0.0200    0.3640 ca        1 PG9     -0.014300
      4 CG1         0.9630    0.8510   -0.6480 ca        1 PG9     -0.124000
      5 CD1         2.2950    0.7540   -1.0390 ca        1 PG9     -0.147000
      6 CE          3.1420   -0.1730   -0.4280 ca        1 PG9     -0.161000
      7 CD2         2.6460   -1.0070    0.5720 ca        1 PG9     -0.147000
      8 CG2         1.3130   -0.9110    0.9690 ca        1 PG9     -0.124000
      9 C          -1.8950    0.0470   -0.4940 c         1 PG9      0.893600
     10 O          -2.0720    1.1150   -1.1470 o         1 PG9     -0.833300
     11 OXT        -2.4190   -1.0650   -0.7590 o         1 PG9     -0.833300
     12 H          -0.9410    2.1340    1.0050 hn        1 PG9      0.331300
     13 H2         -2.2110    1.4220    1.6940 hn        1 PG9      0.331300
     14 HA         -1.2390   -0.7450    1.4440 h1        1 PG9      0.052700
     15 HG1         0.2660    1.5500   -1.1450 ha        1 PG9      0.147000
     16 HD1         2.6800    1.4050   -1.8370 ha        1 PG9      0.107500
     17 HE          4.1930   -0.2480   -0.7390 ha        1 PG9      0.104000
     18 HD2         3.3070   -1.7440    1.0490 ha        1 PG9      0.107500
     19 HG2         0.9250   -1.5720    1.7570 ha        1 PG9      0.147000
@<TRIPOS>BOND
     1    1    2 1   
     2    1   12 1   
     3    1   13 1   
     4    2    3 1   
     5    2    9 1   
     6    2   14 1   
     7    3    4 ar  
     8    3    8 ar  
     9    4    5 ar  
    10    4   15 1   
    11    5    6 ar  
    12    5   16 1   
    13    6    7 ar  
    14    6   17 1   
    15    7    8 ar  
    16    7   18 1   
    17    8   19 1   
    18    9   10 1   
    19    9   11 1   
@<TRIPOS>SUBSTRUCTURE
     1 PG9         1 TEMP              0 ****  ****    0 ROOT
