@<TRIPOS>MOLECULE
PGA
   11    10     1     0     0
SMALL
bcc


@<TRIPOS>ATOM
      1 P          -0.1040   -0.0490   -1.5880 p5        1 PGA      1.321900
      2 O1P         0.5040   -0.2780   -0.0020 os        1 PGA     -0.569200
      3 O2P        -0.3550    1.4380   -1.7140 o         1 PGA     -0.958167
      4 O3P         1.0340   -0.5610   -2.4470 o         1 PGA     -0.958167
      5 O4P        -1.3630   -0.8860   -1.6630 o         1 PGA     -0.958167
      6 C2         -0.3950    0.1330    0.9680 c3        1 PGA      0.116400
      7 C1          0.0930   -0.0470    2.4160 c         1 PGA      0.894600
      8 O1          0.6820    0.9080    3.0260 o         1 PGA     -0.928300
      9 O2         -0.1910   -1.1070    3.0710 o         1 PGA     -0.928300
     10 H21        -1.3540   -0.4490    0.8440 h1        1 PGA     -0.016300
     11 H22        -0.6280    1.2260    0.8080 h1        1 PGA     -0.016300
@<TRIPOS>BOND
     1    1    2 1   
     2    1    3 1   
     3    1    4 1   
     4    1    5 1   
     5    2    6 1   
     6    6    7 1   
     7    6   10 1   
     8    6   11 1   
     9    7    8 1   
    10    7    9 1   
@<TRIPOS>SUBSTRUCTURE
     1 PGA         1 TEMP              0 ****  ****    0 ROOT
