@<TRIPOS>MOLECULE
PGA
   11    10     1     0     0
SMALL
bcc


@<TRIPOS>ATOM
      1 P          -0.1680   -0.0710   -0.0850 p5        1 PGA      1.321900
      2 O1P         1.5380   -0.2000   -0.1940 os        1 PGA     -0.569200
      3 O2P        -0.4470    0.4190    1.3200 o         1 PGA     -0.958167
      4 O3P        -0.4860    0.9380   -1.1690 o         1 PGA     -0.958167
      5 O4P        -0.6960   -1.4630   -0.3580 o         1 PGA     -0.958167
      6 C2          2.0570   -1.0920    0.7290 c3        1 PGA      0.116400
      7 C1          3.5860   -1.2520    0.6810 c         1 PGA      0.894600
      8 O1          4.3370   -0.5450    1.4350 o         1 PGA     -0.928300
      9 O2          4.1210   -2.1760   -0.0200 o         1 PGA     -0.928300
     10 H21         1.5900   -2.1050    0.5570 h1        1 PGA     -0.016300
     11 H22         1.7700   -0.7490    1.7660 h1        1 PGA     -0.016300
@<TRIPOS>BOND
     1    1    2 1   
     2    1    3 1   
     3    1    4 1   
     4    1    5 1   
     5    2    6 1   
     6    6    7 1   
     7    6   10 1   
     8    6   11 1   
     9    7    8 1   
    10    7    9 1   
@<TRIPOS>SUBSTRUCTURE
     1 PGA         1 TEMP              0 ****  ****    0 ROOT
