@<TRIPOS>MOLECULE
PGC
   14    13     1     0     0
SMALL
bcc


@<TRIPOS>ATOM
      1 C1          0.0770   -0.6600    0.3280 c         1 PGC      0.566100
      2 C2          1.4390   -1.1750   -0.1740 c3        1 PGC      0.157400
      3 N2          0.0450    0.6470    0.8360 n         1 PGC     -0.417400
      4 O2         -1.1460    1.2480    0.8870 oh        1 PGC     -0.457100
      5 O1         -0.9440   -1.3920    0.4090 o         1 PGC     -0.733100
      6 O1P         1.9050   -0.4230   -1.2160 os        1 PGC     -0.559200
      7 O2P         3.9790   -0.1020    0.1760 o         1 PGC     -0.913833
      8 O3P         3.8310    0.9520   -2.1570 o         1 PGC     -0.913833
      9 O4P         2.3510    1.8050   -0.2440 o         1 PGC     -0.913833
     10 P           3.1900    0.6860   -0.8310 p5        1 PGC      1.322900
     11 H21         1.2570   -2.2350   -0.5180 h1        1 PGC      0.028200
     12 H22         2.1670   -1.1730    0.6900 h1        1 PGC      0.028200
     13 HN          0.7810    1.2890    0.4230 hn        1 PGC      0.423500
     14 HO2        -1.7360    0.6360    1.3660 ho        1 PGC      0.383000
@<TRIPOS>BOND
     1    1    2 1   
     2    1    3 1   
     3    1    5 2   
     4    2    6 1   
     5    2   11 1   
     6    2   12 1   
     7    3    4 1   
     8    3   13 1   
     9    4   14 1   
    10    6   10 1   
    11    7   10 1   
    12    8   10 1   
    13    9   10 1   
@<TRIPOS>SUBSTRUCTURE
     1 PGC         1 TEMP              0 ****  ****    0 ROOT
