@<TRIPOS>MOLECULE
PGC
   14    13     1     0     0
SMALL
bcc


@<TRIPOS>ATOM
      1 C1          0.1820    0.6520    1.9750 c         1 PGC      0.566100
      2 C2          0.2340    1.1400    0.5150 c3        1 PGC      0.157400
      3 N2          0.6420   -0.6500    2.2210 n         1 PGC     -0.417400
      4 O2          0.2370   -1.2310    3.3530 oh        1 PGC     -0.457100
      5 O1         -0.1300    1.4010    2.9370 o         1 PGC     -0.733100
      6 O1P        -0.5510    0.3720   -0.2970 os        1 PGC     -0.559200
      7 O2P         0.5190   -1.8550   -0.3000 o         1 PGC     -0.913833
      8 O3P        -0.6900   -1.0420   -2.4110 o         1 PGC     -0.913833
      9 O4P         1.5240    0.0280   -1.6820 o         1 PGC     -0.913833
     10 P           0.2930   -0.7550   -1.3200 p5        1 PGC      1.322900
     11 H21        -0.1530    2.2000    0.5330 h1        1 PGC      0.028200
     12 H22         1.3110    1.1330    0.1700 h1        1 PGC      0.028200
     13 HN          0.5390   -1.3080    1.3960 hn        1 PGC      0.423500
     14 HO2         0.4560   -0.6060    4.0700 ho        1 PGC      0.383000
@<TRIPOS>BOND
     1    1    2 1   
     2    1    3 1   
     3    1    5 2   
     4    2    6 1   
     5    2   11 1   
     6    2   12 1   
     7    3    4 1   
     8    3   13 1   
     9    4   14 1   
    10    6   10 1   
    11    7   10 1   
    12    8   10 1   
    13    9   10 1   
@<TRIPOS>SUBSTRUCTURE
     1 PGC         1 TEMP              0 ****  ****    0 ROOT
