@<TRIPOS>MOLECULE
PGE
   24    23     1     0     0
SMALL
bcc


@<TRIPOS>ATOM
      1 C1          0.2450   -0.1990    0.0060 c3        1 PGE      0.131400
      2 O1          1.3810   -0.9260    0.4240 oh        1 PGE     -0.599800
      3 C2         -0.6820    0.1180    1.1760 c3        1 PGE      0.087400
      4 O2          0.0350    1.0190    2.0160 os        1 PGE     -0.437600
      5 C3         -0.6950    1.3630    3.1920 c3        1 PGE      0.128400
      6 C4          0.1000    2.4610    3.8910 c3        1 PGE      0.128400
      7 O4         -1.9500    5.9730    4.7100 oh        1 PGE     -0.599800
      8 C6         -0.7980    6.0200    3.8950 c3        1 PGE      0.131400
      9 C5          0.1110    4.8180    4.1360 c3        1 PGE      0.087400
     10 O3         -0.6120    3.6780    3.6760 os        1 PGE     -0.437600
     11 H1          0.5580    0.7510   -0.5030 h1        1 PGE      0.053700
     12 H12        -0.2810   -0.8710   -0.7230 h1        1 PGE      0.053700
     13 HO1         1.8210   -0.3940    1.1000 ho        1 PGE      0.412000
     14 H2         -0.9330   -0.8140    1.7480 h1        1 PGE      0.039700
     15 H22        -1.6250    0.6040    0.8120 h1        1 PGE      0.039700
     16 H3         -0.7770    0.4590    3.8510 h1        1 PGE      0.044700
     17 H32        -1.7210    1.7270    2.9180 h1        1 PGE      0.044700
     18 H4          0.1600    2.2600    4.9930 h1        1 PGE      0.044700
     19 H42         1.1350    2.5370    3.4640 h1        1 PGE      0.044700
     20 HO4        -2.3970    5.1380    4.5170 ho        1 PGE      0.412000
     21 H6         -1.0910    6.0680    2.8130 h1        1 PGE      0.053700
     22 H62        -0.2670    6.9630    4.1930 h1        1 PGE      0.053700
     23 H5          0.3400    4.7050    5.2280 h1        1 PGE      0.039700
     24 H52         1.0650    4.9230    3.5570 h1        1 PGE      0.039700
@<TRIPOS>BOND
     1    1    2 1   
     2    1    3 1   
     3    1   11 1   
     4    1   12 1   
     5    2   13 1   
     6    3    4 1   
     7    3   14 1   
     8    3   15 1   
     9    4    5 1   
    10    5    6 1   
    11    5   16 1   
    12    5   17 1   
    13    6   10 1   
    14    6   18 1   
    15    6   19 1   
    16    7    8 1   
    17    7   20 1   
    18    8    9 1   
    19    8   21 1   
    20    8   22 1   
    21    9   10 1   
    22    9   23 1   
    23    9   24 1   
@<TRIPOS>SUBSTRUCTURE
     1 PGE         1 TEMP              0 ****  ****    0 ROOT
