@<TRIPOS>MOLECULE
PGE
   24    23     1     0     0
SMALL
bcc


@<TRIPOS>ATOM
      1 C1          0.3640   -0.1890    0.0260 c3        1 PGE      0.131400
      2 O1          1.4950   -0.9020    0.4810 oh        1 PGE     -0.599800
      3 C2         -0.6050    0.1150    1.1640 c3        1 PGE      0.087400
      4 O2          0.0730    1.0230    2.0290 os        1 PGE     -0.437600
      5 C3         -0.7010    1.3570    3.1800 c3        1 PGE      0.128400
      6 C4          0.0580    2.4620    3.9070 c3        1 PGE      0.128400
      7 O4         -2.0550    5.9560    4.6430 oh        1 PGE     -0.599800
      8 C6         -0.8730    6.0130    3.8730 c3        1 PGE      0.131400
      9 C5          0.0360    4.8200    4.1500 c3        1 PGE      0.087400
     10 O3         -0.6570    3.6720    3.6650 os        1 PGE     -0.437600
     11 H1          0.6830    0.7660   -0.4710 h1        1 PGE      0.053700
     12 H12        -0.1280   -0.8660   -0.7220 h1        1 PGE      0.053700
     13 HO1         1.9060   -0.3670    1.1710 ho        1 PGE      0.412000
     14 H2         -0.8640   -0.8210    1.7260 h1        1 PGE      0.039700
     15 H22        -1.5400    0.5910    0.7700 h1        1 PGE      0.039700
     16 H3         -0.7950    0.4510    3.8340 h1        1 PGE      0.044700
     17 H32        -1.7210    1.7100    2.8720 h1        1 PGE      0.044700
     18 H4          0.0780    2.2630    5.0110 h1        1 PGE      0.044700
     19 H42         1.1070    2.5480    3.5190 h1        1 PGE      0.044700
     20 HO4        -2.4860    5.1180    4.4340 ho        1 PGE      0.412000
     21 H6         -1.1250    6.0580    2.7800 h1        1 PGE      0.053700
     22 H62        -0.3620    6.9610    4.1900 h1        1 PGE      0.053700
     23 H5          0.2250    4.7100    5.2500 h1        1 PGE      0.039700
     24 H52         1.0120    4.9330    3.6080 h1        1 PGE      0.039700
@<TRIPOS>BOND
     1    1    2 1   
     2    1    3 1   
     3    1   11 1   
     4    1   12 1   
     5    2   13 1   
     6    3    4 1   
     7    3   14 1   
     8    3   15 1   
     9    4    5 1   
    10    5    6 1   
    11    5   16 1   
    12    5   17 1   
    13    6   10 1   
    14    6   18 1   
    15    6   19 1   
    16    7    8 1   
    17    7   20 1   
    18    8    9 1   
    19    8   21 1   
    20    8   22 1   
    21    9   10 1   
    22    9   23 1   
    23    9   24 1   
@<TRIPOS>SUBSTRUCTURE
     1 PGE         1 TEMP              0 ****  ****    0 ROOT
