@<TRIPOS>MOLECULE
PGE
   24    23     1     0     0
SMALL
bcc


@<TRIPOS>ATOM
      1 C1          0.8140   -0.2760    3.6940 c3        1 PGE      0.131400
      2 O1          0.0870    0.7580    4.3230 oh        1 PGE     -0.599800
      3 C2         -0.0190   -0.9820    2.6280 c3        1 PGE      0.087400
      4 O2         -0.2440   -0.0190    1.6000 os        1 PGE     -0.437600
      5 C3         -1.0650   -0.5270    0.5510 c3        1 PGE      0.128400
      6 C4         -1.0650    0.5280   -0.5500 c3        1 PGE      0.128400
      7 O4          0.0850   -0.7580   -4.3230 oh        1 PGE     -0.599800
      8 C6          0.8130    0.2750   -3.6940 c3        1 PGE      0.131400
      9 C5         -0.0190    0.9820   -2.6280 c3        1 PGE      0.087400
     10 O3         -0.2440    0.0190   -1.6000 os        1 PGE     -0.437600
     11 H1          1.7530    0.1340    3.2360 h1        1 PGE      0.053700
     12 H12         1.0680   -0.9970    4.5150 h1        1 PGE      0.053700
     13 HO1        -0.1980    1.3650    3.6270 ho        1 PGE      0.412000
     14 H2          0.5360   -1.8620    2.2110 h1        1 PGE      0.039700
     15 H22        -1.0020   -1.3190    3.0500 h1        1 PGE      0.039700
     16 H3         -0.6520   -1.4990    0.1710 h1        1 PGE      0.044700
     17 H32        -2.1050   -0.6850    0.9420 h1        1 PGE      0.044700
     18 H4         -2.1040    0.6870   -0.9410 h1        1 PGE      0.044700
     19 H42        -0.6510    1.5000   -0.1710 h1        1 PGE      0.044700
     20 HO4        -0.2000   -1.3640   -3.6270 ho        1 PGE      0.412000
     21 H6          1.0680    0.9960   -4.5160 h1        1 PGE      0.053700
     22 H62         1.7520   -0.1360   -3.2370 h1        1 PGE      0.053700
     23 H5         -1.0020    1.3200   -3.0500 h1        1 PGE      0.039700
     24 H52         0.5370    1.8610   -2.2120 h1        1 PGE      0.039700
@<TRIPOS>BOND
     1    1    2 1   
     2    1    3 1   
     3    1   11 1   
     4    1   12 1   
     5    2   13 1   
     6    3    4 1   
     7    3   14 1   
     8    3   15 1   
     9    4    5 1   
    10    5    6 1   
    11    5   16 1   
    12    5   17 1   
    13    6   10 1   
    14    6   18 1   
    15    6   19 1   
    16    7    8 1   
    17    7   20 1   
    18    8    9 1   
    19    8   21 1   
    20    8   22 1   
    21    9   10 1   
    22    9   23 1   
    23    9   24 1   
@<TRIPOS>SUBSTRUCTURE
     1 PGE         1 TEMP              0 ****  ****    0 ROOT
