@<TRIPOS>MOLECULE
PGF
   33    32     1     0     0
SMALL
bcc


@<TRIPOS>ATOM
      1 C7         -0.1910    1.7340    0.3380 c3        1 PGF     -0.097100
      2 C8          0.6250    0.4840    0.1030 c3        1 PGF      0.131400
      3 O5          1.7180    0.5240    1.0190 os        1 PGF     -0.428600
      4 C9          2.5800   -0.6030    0.8810 c3        1 PGF      0.126400
      5 C10         3.5960   -0.5110    2.0150 c3        1 PGF      0.127400
      6 O6          3.3090   -1.5900    2.9030 os        1 PGF     -0.428600
      7 C11         4.0810   -1.5230    4.1000 c3        1 PGF      0.127400
      8 C12         3.8080   -2.8150    4.8630 c3        1 PGF      0.128400
      9 O7          5.0010   -3.5930    4.7770 os        1 PGF     -0.430600
     10 C13         4.8330   -4.8930    5.3390 c3        1 PGF      0.129400
     11 C14         6.1810   -5.5890    5.1840 c3        1 PGF      0.125400
     12 O8          6.0400   -6.8570    5.8220 os        1 PGF     -0.425600
     13 C15         7.2240   -7.6310    5.7500 c3        1 PGF      0.118700
     14 H71        -1.0630    1.7420   -0.3580 hc        1 PGF      0.045033
     15 H72         0.4300    2.6430    0.1590 hc        1 PGF      0.045033
     16 H73        -0.5610    1.7640    1.3910 hc        1 PGF      0.045033
     17 H81         1.0190    0.4500   -0.9480 h1        1 PGF      0.024700
     18 H82         0.0130   -0.4390    0.2900 h1        1 PGF      0.024700
     19 H91         3.0960   -0.5540   -0.1140 h1        1 PGF      0.041700
     20 H92         1.9900   -1.5560    0.9520 h1        1 PGF      0.041700
     21 H101        3.5050    0.4700    2.5530 h1        1 PGF      0.043200
     22 H102        4.6390   -0.6280    1.6190 h1        1 PGF      0.043200
     23 H111        5.1720   -1.4270    3.8550 h1        1 PGF      0.043700
     24 H112        3.7500   -0.6360    4.7020 h1        1 PGF      0.043700
     25 H121        3.5880   -2.5960    5.9410 h1        1 PGF      0.044700
     26 H122        2.9470   -3.3730    4.4080 h1        1 PGF      0.044700
     27 H131        4.5510   -4.8120    6.4210 h1        1 PGF      0.040700
     28 H132        4.0320   -5.4510    4.7870 h1        1 PGF      0.040700
     29 H141        6.9940   -4.9970    5.6810 h1        1 PGF      0.039700
     30 H142        6.4340   -5.7290    4.1010 h1        1 PGF      0.039700
     31 H151        7.4950   -7.8390    4.6850 h1        1 PGF      0.033700
     32 H152        8.0700   -7.1080    6.2610 h1        1 PGF      0.033700
     33 H153        6.9690   -8.5810    6.2830 h1        1 PGF      0.033700
@<TRIPOS>BOND
     1    1    2 1   
     2    1   14 1   
     3    1   15 1   
     4    1   16 1   
     5    2    3 1   
     6    2   17 1   
     7    2   18 1   
     8    3    4 1   
     9    4    5 1   
    10    4   19 1   
    11    4   20 1   
    12    5    6 1   
    13    5   21 1   
    14    5   22 1   
    15    6    7 1   
    16    7    8 1   
    17    7   23 1   
    18    7   24 1   
    19    8    9 1   
    20    8   25 1   
    21    8   26 1   
    22    9   10 1   
    23   10   11 1   
    24   10   27 1   
    25   10   28 1   
    26   11   12 1   
    27   11   29 1   
    28   11   30 1   
    29   12   13 1   
    30   13   31 1   
    31   13   32 1   
    32   13   33 1   
@<TRIPOS>SUBSTRUCTURE
     1 PGF         1 TEMP              0 ****  ****    0 ROOT
