@<TRIPOS>MOLECULE
PGF
   33    32     1     0     0
SMALL
bcc


@<TRIPOS>ATOM
      1 C7         -6.4600   -0.0970   -0.9290 c3        1 PGF     -0.097100
      2 C8         -5.3680    0.8170   -0.4250 c3        1 PGF      0.131400
      3 O5         -4.3110   -0.0190    0.0430 os        1 PGF     -0.428600
      4 C9         -3.2190    0.7330    0.5660 c3        1 PGF      0.126400
      5 C10        -2.1130   -0.2710    0.8770 c3        1 PGF      0.127400
      6 O6         -1.0600   -0.0120   -0.0500 os        1 PGF     -0.429600
      7 C11        -0.0260   -0.9910    0.0210 c3        1 PGF      0.127400
      8 C12         1.0990   -0.5000   -0.8840 c3        1 PGF      0.127400
      9 O7          2.1470   -0.0570   -0.0240 os        1 PGF     -0.429600
     10 C13         3.2030    0.5780   -0.7420 c3        1 PGF      0.127400
     11 C14         4.3210    0.8290    0.2650 c3        1 PGF      0.123400
     12 O8          5.3930   -0.0410   -0.0950 os        1 PGF     -0.425600
     13 C15         6.4520   -0.0170    0.8460 c3        1 PGF      0.117700
     14 H71        -6.0760   -0.7430   -1.7540 hc        1 PGF      0.045033
     15 H72        -6.8250   -0.7580   -0.1080 hc        1 PGF      0.045033
     16 H73        -7.3100    0.5170   -1.3100 hc        1 PGF      0.045033
     17 H81        -4.9850    1.4810   -1.2460 h1        1 PGF      0.024700
     18 H82        -5.7370    1.4610    0.4180 h1        1 PGF      0.024700
     19 H91        -2.8700    1.4890   -0.1870 h1        1 PGF      0.041700
     20 H92        -3.5460    1.2590    1.5010 h1        1 PGF      0.041700
     21 H101       -1.7290   -0.1230    1.9200 h1        1 PGF      0.043200
     22 H102       -2.4850   -1.3230    0.7580 h1        1 PGF      0.043200
     23 H111        0.3330   -1.1010    1.0790 h1        1 PGF      0.043700
     24 H112       -0.4230   -1.9740   -0.3470 h1        1 PGF      0.043700
     25 H121        1.4790   -1.3370   -1.5260 h1        1 PGF      0.043700
     26 H122        0.7480    0.3450   -1.5340 h1        1 PGF      0.043700
     27 H131        3.5590   -0.0840   -1.5750 h1        1 PGF      0.043200
     28 H132        2.8290    1.5480   -1.1640 h1        1 PGF      0.043200
     29 H141        4.6740    1.8920    0.2040 h1        1 PGF      0.042700
     30 H142        3.9740    0.6070    1.3090 h1        1 PGF      0.042700
     31 H151        6.8830    1.0110    0.9280 h1        1 PGF      0.032700
     32 H152        6.0970   -0.3620    1.8490 h1        1 PGF      0.032700
     33 H153        7.2090   -0.7290    0.4320 h1        1 PGF      0.032700
@<TRIPOS>BOND
     1    1    2 1   
     2    1   14 1   
     3    1   15 1   
     4    1   16 1   
     5    2    3 1   
     6    2   17 1   
     7    2   18 1   
     8    3    4 1   
     9    4    5 1   
    10    4   19 1   
    11    4   20 1   
    12    5    6 1   
    13    5   21 1   
    14    5   22 1   
    15    6    7 1   
    16    7    8 1   
    17    7   23 1   
    18    7   24 1   
    19    8    9 1   
    20    8   25 1   
    21    8   26 1   
    22    9   10 1   
    23   10   11 1   
    24   10   27 1   
    25   10   28 1   
    26   11   12 1   
    27   11   29 1   
    28   11   30 1   
    29   12   13 1   
    30   13   31 1   
    31   13   32 1   
    32   13   33 1   
@<TRIPOS>SUBSTRUCTURE
     1 PGF         1 TEMP              0 ****  ****    0 ROOT
