@<TRIPOS>MOLECULE
PGF
   33    32     1     0     0
SMALL
bcc


@<TRIPOS>ATOM
      1 C7         -0.0620    1.9750    0.5390 c3        1 PGF     -0.097100
      2 C8          0.6950    0.7110    0.2060 c3        1 PGF      0.131400
      3 O5          1.7790    0.6220    1.1290 os        1 PGF     -0.428600
      4 C9          2.5880   -0.5300    0.9040 c3        1 PGF      0.126400
      5 C10         3.5970   -0.5800    2.0470 c3        1 PGF      0.127400
      6 O6          3.2560   -1.7180    2.8370 os        1 PGF     -0.429600
      7 C11         4.0240   -1.7900    4.0370 c3        1 PGF      0.127400
      8 C12         3.6860   -3.1280    4.6870 c3        1 PGF      0.127400
      9 O7          4.8220   -3.9680    4.4990 os        1 PGF     -0.429600
     10 C13         4.5780   -5.3080    4.9220 c3        1 PGF      0.127400
     11 C14         5.9140   -6.0390    4.8350 c3        1 PGF      0.123400
     12 O8          6.3130   -6.3140    6.1780 os        1 PGF     -0.425600
     13 C15         7.6140   -6.8690    6.2560 c3        1 PGF      0.117700
     14 H71        -0.9260    2.0830   -0.1590 hc        1 PGF      0.045033
     15 H72         0.6030    2.8650    0.4410 hc        1 PGF      0.045033
     16 H73        -0.4420    1.9350    1.5880 hc        1 PGF      0.045033
     17 H81         1.0990    0.7460   -0.8420 h1        1 PGF      0.024700
     18 H82         0.0390   -0.1940    0.3110 h1        1 PGF      0.024700
     19 H91         3.1140   -0.4250   -0.0810 h1        1 PGF      0.041700
     20 H92         1.9530   -1.4560    0.8930 h1        1 PGF      0.041700
     21 H101        3.5430    0.3540    2.6670 h1        1 PGF      0.043200
     22 H102        4.6380   -0.7080    1.6480 h1        1 PGF      0.043200
     23 H111        5.1190   -1.7270    3.8020 h1        1 PGF      0.043700
     24 H112        3.7320   -0.9430    4.7120 h1        1 PGF      0.043700
     25 H121        3.5050   -2.9940    5.7860 h1        1 PGF      0.043700
     26 H122        2.7800   -3.5860    4.2080 h1        1 PGF      0.043700
     27 H131        4.1860   -5.3190    5.9730 h1        1 PGF      0.043200
     28 H132        3.8270   -5.7800    4.2350 h1        1 PGF      0.043200
     29 H141        6.6850   -5.4020    4.3250 h1        1 PGF      0.042700
     30 H142        5.7990   -7.0060    4.2800 h1        1 PGF      0.042700
     31 H151        7.6650   -7.8370    5.6980 h1        1 PGF      0.032700
     32 H152        8.3730   -6.1550    5.8480 h1        1 PGF      0.032700
     33 H153        7.7810   -7.0360    7.3490 h1        1 PGF      0.032700
@<TRIPOS>BOND
     1    1    2 1   
     2    1   14 1   
     3    1   15 1   
     4    1   16 1   
     5    2    3 1   
     6    2   17 1   
     7    2   18 1   
     8    3    4 1   
     9    4    5 1   
    10    4   19 1   
    11    4   20 1   
    12    5    6 1   
    13    5   21 1   
    14    5   22 1   
    15    6    7 1   
    16    7    8 1   
    17    7   23 1   
    18    7   24 1   
    19    8    9 1   
    20    8   25 1   
    21    8   26 1   
    22    9   10 1   
    23   10   11 1   
    24   10   27 1   
    25   10   28 1   
    26   11   12 1   
    27   11   29 1   
    28   11   30 1   
    29   12   13 1   
    30   13   31 1   
    31   13   32 1   
    32   13   33 1   
@<TRIPOS>SUBSTRUCTURE
     1 PGF         1 TEMP              0 ****  ****    0 ROOT
