@<TRIPOS>MOLECULE
PGG
   36    36     1     0     0
SMALL
bcc


@<TRIPOS>ATOM
      1 C1          0.4730   -0.0420   -3.0580 ca        1 PGG      0.345100
      2 C2          0.2140    1.1410   -3.8060 ca        1 PGG     -0.230500
      3 C3          0.1790    1.1100   -5.1850 ca        1 PGG     -0.037000
      4 C4          0.4060   -0.1020   -5.8730 ca        1 PGG     -0.280200
      5 C5          0.6390   -1.2900   -5.1480 ca        1 PGG     -0.037000
      6 C6          0.6740   -1.2590   -3.7700 ca        1 PGG     -0.230500
      7 P1         -0.6000    0.2190   -0.5530 p5        1 PGG      1.367600
      8 O1          0.6430   -0.0370   -1.7510 os        1 PGG     -0.475500
      9 O2         -1.0910    1.5520   -0.9450 o         1 PGG     -0.832500
     10 O3         -1.3930   -1.0150   -0.6560 o         1 PGG     -0.832500
     11 C8          0.4220    0.2520    0.7680 c3        1 PGG     -0.356600
     12 C9         -0.4200    0.1700    2.0110 c3        1 PGG     -0.061400
     13 C10         0.4310    0.0790    3.2570 c3        1 PGG     -0.141400
     14 C11        -0.3900    0.1690    4.5360 c         1 PGG      0.637100
     15 N2          0.1770   -0.3540    5.6730 n         1 PGG     -0.533900
     16 O6         -1.5360    0.6750    4.5400 o         1 PGG     -0.654100
     17 C12        -0.3700   -0.1500    6.9870 c3        1 PGG     -0.042000
     18 C13         0.6790   -0.2590    8.1280 c         1 PGG      0.905600
     19 O7          0.2360   -0.1450    9.3060 o         1 PGG     -0.847800
     20 O8          1.8960   -0.4500    7.8400 o         1 PGG     -0.847800
     21 N1          0.3940   -0.1280   -7.3370 no        1 PGG      0.327200
     22 O4          0.5890   -1.1670   -7.9230 o         1 PGG     -0.265500
     23 O5          0.1980    0.8900   -7.9580 o         1 PGG     -0.265500
     24 H21         0.0120    2.0790   -3.2610 ha        1 PGG      0.165000
     25 H31        -0.0240    2.0310   -5.7550 ha        1 PGG      0.141500
     26 H51         0.7940   -2.2390   -5.6880 ha        1 PGG      0.141500
     27 H61         0.8440   -2.1780   -3.1900 ha        1 PGG      0.165000
     28 H81         1.0370    1.1840    0.7820 hc        1 PGG      0.076700
     29 H82         1.1450   -0.6000    0.7390 hc        1 PGG      0.076700
     30 H91        -1.0900   -0.7290    1.9360 hc        1 PGG      0.066700
     31 H92        -1.0840    1.0740    2.0700 hc        1 PGG      0.066700
     32 H101        1.1660    0.9290    3.2730 hc        1 PGG      0.049200
     33 H102        1.0190   -0.8750    3.2340 hc        1 PGG      0.049200
     34 HN21        1.1490   -0.5870    5.6640 hn        1 PGG      0.320500
     35 H121       -1.1680   -0.9230    7.1690 h1        1 PGG      0.035200
     36 H122       -0.8600    0.8610    7.0500 h1        1 PGG      0.035200
@<TRIPOS>BOND
     1    1    2 ar  
     2    1    6 ar  
     3    1    8 1   
     4    2    3 ar  
     5    2   24 1   
     6    3    4 ar  
     7    3   25 1   
     8    4    5 ar  
     9    4   21 1   
    10    5    6 ar  
    11    5   26 1   
    12    6   27 1   
    13    7    8 1   
    14    7    9 1   
    15    7   10 1   
    16    7   11 1   
    17   11   12 1   
    18   11   28 1   
    19   11   29 1   
    20   12   13 1   
    21   12   30 1   
    22   12   31 1   
    23   13   14 1   
    24   13   32 1   
    25   13   33 1   
    26   14   15 1   
    27   14   16 2   
    28   15   17 1   
    29   15   34 1   
    30   17   18 1   
    31   17   35 1   
    32   17   36 1   
    33   18   19 1   
    34   18   20 1   
    35   21   22 1   
    36   21   23 1   
@<TRIPOS>SUBSTRUCTURE
     1 PGG         1 TEMP              0 ****  ****    0 ROOT
