@<TRIPOS>MOLECULE
PGG
   37    37     1     0     0
SMALL
bcc


@<TRIPOS>ATOM
      1 C1         -0.2990   -0.8190   -0.1290 ca        1 PGG      0.293100
      2 C2          1.0120   -0.8380   -0.6650 ca        1 PGG     -0.203000
      3 C3          2.0730   -0.3220    0.0580 ca        1 PGG     -0.044500
      4 C4          1.8470    0.2330    1.3320 ca        1 PGG     -0.244200
      5 C5          0.5500    0.2460    1.8840 ca        1 PGG     -0.044500
      6 C6         -0.5100   -0.2700    1.1590 ca        1 PGG     -0.203000
      7 P1         -1.9680   -2.7930   -0.8530 p5        1 PGG      1.352600
      8 O1         -1.3350   -1.2080   -0.8790 os        1 PGG     -0.498500
      9 O2         -0.9410   -3.6130   -1.5270 o         1 PGG     -0.831500
     10 O3         -2.4390   -2.9880    0.5250 o         1 PGG     -0.831500
     11 C8         -3.2750   -2.5200   -1.9050 c3        1 PGG     -0.343600
     12 C9         -3.0430   -3.3770   -3.1100 c3        1 PGG     -0.067400
     13 C10        -4.1440   -3.2580   -4.1400 c3        1 PGG     -0.161400
     14 C11        -4.0690   -4.3540   -5.1690 c         1 PGG      0.545100
     15 N2         -2.7420   -4.5210   -5.8310 ny        1 PGG     -0.661800
     16 O6         -4.9920   -5.0940   -5.4890 o         1 PGG     -0.459100
     17 C12        -2.6530   -5.5620   -6.8850 c3        1 PGG     -0.075200
     18 C13        -2.2000   -4.9220   -8.2590 c         1 PGG      0.927600
     19 O7         -2.0270   -5.7260   -9.1930 o         1 PGG     -0.775300
     20 O8         -2.0690   -3.6650   -8.2550 o         1 PGG     -0.775300
     21 N1          2.9720    0.7990    2.0950 no        1 PGG      0.322200
     22 O4          2.7730    1.2780    3.1840 o         1 PGG     -0.244500
     23 O5          4.0810    0.7840    1.6210 o         1 PGG     -0.244500
     24 H21         1.1750   -1.2860   -1.6570 ha        1 PGG      0.161500
     25 H31         3.0930   -0.3420   -0.3610 ha        1 PGG      0.152500
     26 H51         0.3840    0.6670    2.8890 ha        1 PGG      0.152500
     27 H61        -1.5250   -0.2830    1.5850 ha        1 PGG      0.161500
     28 H81        -4.2380   -2.7770   -1.4010 hc        1 PGG      0.086700
     29 H82        -3.3420   -1.4420   -2.1910 hc        1 PGG      0.086700
     30 H91        -2.9430   -4.4440   -2.7670 hc        1 PGG      0.067700
     31 H92        -2.0480   -3.0830   -3.5470 hc        1 PGG      0.067700
     32 H101       -5.1500   -3.3280   -3.6430 hc        1 PGG      0.095700
     33 H102       -4.0880   -2.2640   -4.6610 hc        1 PGG      0.095700
     34 HN21       -2.5080   -3.6140   -6.3210 hn        1 PGG      0.475800
     35 H121       -1.9050   -6.3360   -6.5770 hx        1 PGG      0.094200
     36 H122       -3.6510   -6.0480   -7.0420 hx        1 PGG      0.094200
     37 H22        -2.0360   -4.6780   -5.1050 hn        1 PGG      0.475800
@<TRIPOS>BOND
     1    1    2 ar  
     2    1    6 ar  
     3    1    8 1   
     4    2    3 ar  
     5    2   24 1   
     6    3    4 ar  
     7    3   25 1   
     8    4    5 ar  
     9    4   21 1   
    10    5    6 ar  
    11    5   26 1   
    12    6   27 1   
    13    7    8 1   
    14    7    9 1   
    15    7   10 1   
    16    7   11 1   
    17   11   12 1   
    18   11   28 1   
    19   11   29 1   
    20   12   13 1   
    21   12   30 1   
    22   12   31 1   
    23   13   14 1   
    24   13   32 1   
    25   13   33 1   
    26   14   15 1   
    27   14   16 2   
    28   15   17 1   
    29   15   34 1   
    30   15   37 1   
    31   17   18 1   
    32   17   35 1   
    33   17   36 1   
    34   18   19 1   
    35   18   20 1   
    36   21   22 1   
    37   21   23 1   
@<TRIPOS>SUBSTRUCTURE
     1 PGG         1 TEMP              0 ****  ****    0 ROOT
