@<TRIPOS>MOLECULE
PGG
   36    36     1     0     0
SMALL
bcc


@<TRIPOS>ATOM
      1 C1          0.0540   -0.5540    0.1740 ca        1 PGG      0.345100
      2 C2          1.4700   -0.4320    0.2620 ca        1 PGG     -0.230500
      3 C3          2.0580    0.1710    1.3540 ca        1 PGG     -0.037000
      4 C4          1.2580    0.6810    2.4000 ca        1 PGG     -0.280200
      5 C5         -0.1450    0.5460    2.3420 ca        1 PGG     -0.037000
      6 C6         -0.7340   -0.0570    1.2500 ca        1 PGG     -0.230500
      7 P1         -0.5720   -2.6590   -1.4620 p5        1 PGG      1.367600
      8 O1         -0.5570   -1.0050   -0.9040 os        1 PGG     -0.475500
      9 O2          0.8700   -2.9060   -1.6310 o         1 PGG     -0.832500
     10 O3         -1.4100   -3.3220   -0.4520 o         1 PGG     -0.832500
     11 C8         -1.3660   -2.3590   -2.9010 c3        1 PGG     -0.356600
     12 C9         -1.7880   -3.6790   -3.4840 c3        1 PGG     -0.061400
     13 C10        -2.6160   -3.4980   -4.7370 c3        1 PGG     -0.141400
     14 C11        -2.9110   -4.8150   -5.4410 c         1 PGG      0.637100
     15 N2         -3.9990   -4.8370   -6.2790 n         1 PGG     -0.533900
     16 O6         -2.2050   -5.8310   -5.2430 o         1 PGG     -0.654100
     17 C12        -4.2730   -5.9270   -7.1760 c3        1 PGG     -0.042000
     18 C13        -5.1170   -5.5220   -8.4170 c         1 PGG      0.905600
     19 O7         -5.4350   -6.4560   -9.2050 o         1 PGG     -0.847800
     20 O8         -5.4410   -4.3100   -8.5820 o         1 PGG     -0.847800
     21 N1          1.8840    1.3440    3.5460 no        1 PGG      0.327200
     22 O4          1.1960    1.7800    4.4400 o         1 PGG     -0.265500
     23 O5          3.0860    1.4620    3.5940 o         1 PGG     -0.265500
     24 H21         2.0890   -0.8560   -0.5470 ha        1 PGG      0.165000
     25 H31         3.1550    0.2600    1.4130 ha        1 PGG      0.141500
     26 H51        -0.7650    0.9260    3.1710 ha        1 PGG      0.141500
     27 H61        -1.8250   -0.1790    1.1950 ha        1 PGG      0.165000
     28 H81        -2.2600   -1.7080   -2.7410 hc        1 PGG      0.076700
     29 H82        -0.7080   -1.8140   -3.6220 hc        1 PGG      0.076700
     30 H91        -2.3770   -4.2440   -2.7110 hc        1 PGG      0.066700
     31 H92        -0.8760   -4.2910   -3.7180 hc        1 PGG      0.066700
     32 H101       -3.5710   -2.9700   -4.4740 hc        1 PGG      0.049200
     33 H102       -2.0590   -2.8480   -5.4640 hc        1 PGG      0.049200
     34 HN21       -4.4240   -3.9720   -6.5410 hn        1 PGG      0.320500
     35 H121       -3.3110   -6.3850   -7.5370 h1        1 PGG      0.035200
     36 H122       -4.8360   -6.7230   -6.6150 h1        1 PGG      0.035200
@<TRIPOS>BOND
     1    1    2 ar  
     2    1    6 ar  
     3    1    8 1   
     4    2    3 ar  
     5    2   24 1   
     6    3    4 ar  
     7    3   25 1   
     8    4    5 ar  
     9    4   21 1   
    10    5    6 ar  
    11    5   26 1   
    12    6   27 1   
    13    7    8 1   
    14    7    9 1   
    15    7   10 1   
    16    7   11 1   
    17   11   12 1   
    18   11   28 1   
    19   11   29 1   
    20   12   13 1   
    21   12   30 1   
    22   12   31 1   
    23   13   14 1   
    24   13   32 1   
    25   13   33 1   
    26   14   15 1   
    27   14   16 2   
    28   15   17 1   
    29   15   34 1   
    30   17   18 1   
    31   17   35 1   
    32   17   36 1   
    33   18   19 1   
    34   18   20 1   
    35   21   22 1   
    36   21   23 1   
@<TRIPOS>SUBSTRUCTURE
     1 PGG         1 TEMP              0 ****  ****    0 ROOT
