@<TRIPOS>MOLECULE
PGG
   37    37     1     0     0
SMALL
bcc


@<TRIPOS>ATOM
      1 C1          0.0720   -0.8120   -0.3490 ca        1 PGG      0.293100
      2 C2          1.3100   -0.3490    0.1620 ca        1 PGG     -0.203000
      3 C3          1.3750    0.2460    1.4090 ca        1 PGG     -0.044500
      4 C4          0.2020    0.4010    2.1730 ca        1 PGG     -0.244200
      5 C5         -1.0330   -0.0660    1.6840 ca        1 PGG     -0.044500
      6 C6         -1.0970   -0.6620    0.4370 ca        1 PGG     -0.203000
      7 P1          0.1980   -2.9210   -2.0030 p5        1 PGG      1.352600
      8 O1         -0.0150   -1.2770   -1.5980 os        1 PGG     -0.498500
      9 O2          1.5800   -3.2290   -1.6090 o         1 PGG     -0.831500
     10 O3         -1.0070   -3.5920   -1.4780 o         1 PGG     -0.831500
     11 C8          0.0770   -2.7450   -3.6900 c3        1 PGG     -0.343600
     12 C9         -1.1310   -3.5200   -4.1160 c3        1 PGG     -0.067400
     13 C10        -1.3640   -3.4750   -5.6100 c3        1 PGG     -0.161400
     14 C11        -2.3620   -4.5110   -6.0510 c         1 PGG      0.545100
     15 N2         -3.6600   -4.5040   -5.3150 n4        1 PGG     -0.661800
     16 O6         -2.1880   -5.3330   -6.9440 o         1 PGG     -0.459100
     17 C12        -4.6820   -5.4830   -5.7640 c3        1 PGG     -0.075200
     18 C13        -6.0080   -4.7390   -6.2020 c         1 PGG      0.927600
     19 O7         -6.9530   -5.4790   -6.5290 o         1 PGG     -0.775300
     20 O8         -5.9560   -3.4770   -6.1740 o         1 PGG     -0.775300
     21 N1          0.2690    1.0520    3.4930 no        1 PGG      0.322200
     22 O4         -0.7380    1.1800    4.1450 o         1 PGG     -0.244500
     23 O5          1.3280    1.4560    3.9050 o         1 PGG     -0.244500
     24 H21         2.2210   -0.4930   -0.4380 ha        1 PGG      0.161500
     25 H31         2.3410    0.6010    1.8060 ha        1 PGG      0.152500
     26 H51        -1.9450    0.0450    2.2940 ha        1 PGG      0.152500
     27 H61        -2.0530   -1.0430    0.0470 ha        1 PGG      0.161500
     28 H81         1.0020   -3.1260   -4.1870 hc        1 PGG      0.086700
     29 H82        -0.0190   -1.6690   -3.9760 hc        1 PGG      0.086700
     30 H91        -1.0040   -4.5830   -3.7720 hc        1 PGG      0.067700
     31 H92        -2.0150   -3.1020   -3.5580 hc        1 PGG      0.067700
     32 H101       -1.7300   -2.4600   -5.9210 hc        1 PGG      0.095700
     33 H102       -0.4030   -3.6750   -6.1580 hc        1 PGG      0.095700
     34 HN21       -3.4650   -4.6160   -4.3160 hn        1 PGG      0.475800
     35 H121       -4.3060   -6.0670   -6.6440 hx        1 PGG      0.094200
     36 H122       -4.9160   -6.1840   -4.9230 hx        1 PGG      0.094200
     37 H22        -4.1080   -3.5580   -5.4570 hn        1 PGG      0.475800
@<TRIPOS>BOND
     1    1    2 ar  
     2    1    6 ar  
     3    1    8 1   
     4    2    3 ar  
     5    2   24 1   
     6    3    4 ar  
     7    3   25 1   
     8    4    5 ar  
     9    4   21 1   
    10    5    6 ar  
    11    5   26 1   
    12    6   27 1   
    13    7    8 1   
    14    7    9 1   
    15    7   10 1   
    16    7   11 1   
    17   11   12 1   
    18   11   28 1   
    19   11   29 1   
    20   12   13 1   
    21   12   30 1   
    22   12   31 1   
    23   13   14 1   
    24   13   32 1   
    25   13   33 1   
    26   14   15 1   
    27   14   16 2   
    28   15   17 1   
    29   15   34 1   
    30   15   37 1   
    31   17   18 1   
    32   17   35 1   
    33   17   36 1   
    34   18   19 1   
    35   18   20 1   
    36   21   22 1   
    37   21   23 1   
@<TRIPOS>SUBSTRUCTURE
     1 PGG         1 TEMP              0 ****  ****    0 ROOT
