@<TRIPOS>MOLECULE
PGI
   43    45     1     0     0
SMALL
bcc


@<TRIPOS>ATOM
      1 O6         -2.0710    3.4900    0.7640 oh        1 PGI     -0.598800
      2 C6         -3.0230    2.4850    1.0200 c3        1 PGI      0.122400
      3 C5         -2.8270    1.3080    0.0360 c3        1 PGI     -0.006000
      4 C4         -4.0270    0.3320    0.1720 c3        1 PGI      0.105100
      5 O4         -5.1120    0.9940   -0.4510 oh        1 PGI     -0.584800
      6 C3         -3.7560   -0.9950   -0.5620 c3        1 PGI      0.073100
      7 O3         -4.8620   -1.8640   -0.4020 oh        1 PGI     -0.590800
      8 C2         -2.5630   -1.7250    0.0870 c3        1 PGI      0.214400
      9 O2         -2.1190   -2.8110   -0.6990 oh        1 PGI     -0.591800
     10 N1         -1.5580    0.6180    0.2160 na        1 PGI     -0.009100
     11 C8         -0.2920    1.1980    0.3680 cc        1 PGI     -0.109300
     12 C7          0.6460    0.1490    0.4290 cd        1 PGI     -0.058600
     13 N2         -0.0790   -1.0520    0.3220 na        1 PGI     -0.113100
     14 C1         -1.4150   -0.7550    0.1960 cc        1 PGI     -0.001900
     15 C9          2.1110    0.2370    0.5990 c3        1 PGI     -0.034100
     16 C10         2.8730   -0.6230   -0.3990 c3        1 PGI     -0.029100
     17 C14         4.3390   -0.3980   -0.2680 ca        1 PGI     -0.112300
     18 C13         5.1230   -1.2710    0.4940 ca        1 PGI     -0.122000
     19 C12         6.4970   -1.0630    0.6040 ca        1 PGI     -0.120000
     20 C15         4.9440    0.6830   -0.9200 ca        1 PGI     -0.122000
     21 C16         6.3180    0.8890   -0.8080 ca        1 PGI     -0.120000
     22 C11         7.0960    0.0170   -0.0450 ca        1 PGI     -0.111000
     23 H6         -2.4500    4.1130    0.1310 ho        1 PGI      0.428000
     24 H6C1       -2.8500    2.1630    2.0830 h1        1 PGI      0.086700
     25 H6C2       -4.0770    2.8510    0.8970 h1        1 PGI      0.086700
     26 H5         -2.8240    1.7260   -1.0190 h1        1 PGI      0.114700
     27 H4         -4.2470    0.1310    1.2560 h1        1 PGI      0.077700
     28 HA         -5.9230    0.6030   -0.0960 ho        1 PGI      0.437000
     29 H3         -3.5510   -0.8040   -1.6520 h1        1 PGI      0.088700
     30 HB         -5.5170   -1.6220   -1.0710 ho        1 PGI      0.438000
     31 H2         -2.8430   -2.0840    1.1220 h1        1 PGI      0.104700
     32 HC         -2.8900   -3.3820   -0.8440 ho        1 PGI      0.461000
     33 H8         -0.1600    2.2860    0.4360 h4        1 PGI      0.250000
     34 HD          0.3030   -1.9730    0.2770 hn        1 PGI      0.362700
     35 H9C1        2.4160    1.3130    0.4750 hc        1 PGI      0.093200
     36 H9C2        2.3830   -0.0700    1.6470 hc        1 PGI      0.093200
     37 H101        2.6400   -1.7070   -0.2250 hc        1 PGI      0.051200
     38 H102        2.5450   -0.3690   -1.4430 hc        1 PGI      0.051200
     39 H13         4.6580   -2.1290    1.0020 ha        1 PGI      0.129000
     40 H12         7.1100   -1.7540    1.2020 ha        1 PGI      0.144000
     41 H15         4.3350    1.3680   -1.5280 ha        1 PGI      0.129000
     42 H16         6.7890    1.7380   -1.3250 ha        1 PGI      0.144000
     43 H11         8.1810    0.1790    0.0410 ha        1 PGI      0.146000
@<TRIPOS>BOND
     1    1    2 1   
     2    1   23 1   
     3    2    3 1   
     4    2   24 1   
     5    2   25 1   
     6    3    4 1   
     7    3   10 1   
     8    3   26 1   
     9    4    5 1   
    10    4    6 1   
    11    4   27 1   
    12    5   28 1   
    13    6    7 1   
    14    6    8 1   
    15    6   29 1   
    16    7   30 1   
    17    8    9 1   
    18    8   14 1   
    19    8   31 1   
    20    9   32 1   
    21   10   11 1   
    22   10   14 2   
    23   11   12 2   
    24   11   33 1   
    25   12   13 1   
    26   12   15 1   
    27   13   14 1   
    28   13   34 1   
    29   15   16 1   
    30   15   35 1   
    31   15   36 1   
    32   16   17 1   
    33   16   37 1   
    34   16   38 1   
    35   17   18 ar  
    36   17   20 ar  
    37   18   19 ar  
    38   18   39 1   
    39   19   22 ar  
    40   19   40 1   
    41   20   21 ar  
    42   20   41 1   
    43   21   22 ar  
    44   21   42 1   
    45   22   43 1   
@<TRIPOS>SUBSTRUCTURE
     1 PGI         1 TEMP              0 ****  ****    0 ROOT
