@<TRIPOS>MOLECULE
PGI
   43    45     1     0     0
SMALL
bcc


@<TRIPOS>ATOM
      1 O6          0.5220   -0.2360   -0.7600 oh        1 PGI     -0.598800
      2 C6          1.8880   -0.2500   -0.4220 c3        1 PGI      0.122400
      3 C5          2.0560   -0.1170    1.1100 c3        1 PGI     -0.006000
      4 C4          3.5560    0.1100    1.4360 c3        1 PGI      0.105100
      5 O4          3.8200    1.4450    1.0450 oh        1 PGI     -0.584800
      6 C3          3.8320   -0.0380    2.9450 c3        1 PGI      0.073100
      7 O3          5.2090    0.1580    3.2010 oh        1 PGI     -0.590800
      8 C2          3.5310   -1.4810    3.3980 c3        1 PGI      0.214400
      9 O2          3.5230   -1.6000    4.8060 oh        1 PGI     -0.591800
     10 N1          1.5190   -1.2550    1.8430 na        1 PGI     -0.009100
     11 C8          0.2800   -1.8800    1.6510 cc        1 PGI     -0.109300
     12 C7          0.1540   -2.8770    2.6370 cd        1 PGI     -0.058600
     13 N2          1.3330   -2.8410    3.4050 na        1 PGI     -0.113100
     14 C1          2.1540   -1.8550    2.9120 cc        1 PGI     -0.001900
     15 C9         -0.9620   -3.8210    2.8510 c3        1 PGI     -0.034100
     16 C10        -1.4080   -3.8870    4.3040 c3        1 PGI     -0.029100
     17 C14        -2.6120   -4.7520    4.4410 ca        1 PGI     -0.112300
     18 C13        -2.4820   -6.0920    4.8190 ca        1 PGI     -0.122000
     19 C12        -3.6140   -6.8940    4.9570 ca        1 PGI     -0.120000
     20 C15        -3.8860   -4.2220    4.2040 ca        1 PGI     -0.122000
     21 C16        -5.0160   -5.0260    4.3420 ca        1 PGI     -0.120000
     22 C11        -4.8820   -6.3630    4.7170 ca        1 PGI     -0.111000
     23 H6          0.2620    0.6790   -0.9310 ho        1 PGI      0.428000
     24 H6C1        2.2860   -1.2330   -0.7940 h1        1 PGI      0.086700
     25 H6C2        2.4570    0.5970   -0.8930 h1        1 PGI      0.086700
     26 H5          1.4730    0.7940    1.4520 h1        1 PGI      0.114700
     27 H4          4.1960   -0.6130    0.8590 h1        1 PGI      0.077700
     28 HA          4.7750    1.5140    0.9030 ho        1 PGI      0.437000
     29 H3          3.2070    0.6930    3.5290 h1        1 PGI      0.088700
     30 HB          5.3570    1.1120    3.2630 ho        1 PGI      0.438000
     31 H2          4.2860   -2.1940    2.9530 h1        1 PGI      0.104700
     32 HC          4.3800   -1.2660    5.1170 ho        1 PGI      0.461000
     33 H8         -0.3950   -1.5840    0.8360 h4        1 PGI      0.250000
     34 HD          1.5290   -3.3880    4.2160 hn        1 PGI      0.362700
     35 H9C1       -1.8270   -3.4950    2.2090 hc        1 PGI      0.093200
     36 H9C2       -0.6540   -4.8460    2.5030 hc        1 PGI      0.093200
     37 H101       -1.6420   -2.8530    4.6750 hc        1 PGI      0.051200
     38 H102       -0.5770   -4.2940    4.9400 hc        1 PGI      0.051200
     39 H13        -1.4860   -6.5150    5.0160 ha        1 PGI      0.129000
     40 H12        -3.5060   -7.9470    5.2580 ha        1 PGI      0.144000
     41 H15        -3.9970   -3.1660    3.9150 ha        1 PGI      0.129000
     42 H16        -6.0160   -4.6040    4.1570 ha        1 PGI      0.144000
     43 H11        -5.7750   -6.9970    4.8280 ha        1 PGI      0.146000
@<TRIPOS>BOND
     1    1    2 1   
     2    1   23 1   
     3    2    3 1   
     4    2   24 1   
     5    2   25 1   
     6    3    4 1   
     7    3   10 1   
     8    3   26 1   
     9    4    5 1   
    10    4    6 1   
    11    4   27 1   
    12    5   28 1   
    13    6    7 1   
    14    6    8 1   
    15    6   29 1   
    16    7   30 1   
    17    8    9 1   
    18    8   14 1   
    19    8   31 1   
    20    9   32 1   
    21   10   11 1   
    22   10   14 2   
    23   11   12 2   
    24   11   33 1   
    25   12   13 1   
    26   12   15 1   
    27   13   14 1   
    28   13   34 1   
    29   15   16 1   
    30   15   35 1   
    31   15   36 1   
    32   16   17 1   
    33   16   37 1   
    34   16   38 1   
    35   17   18 ar  
    36   17   20 ar  
    37   18   19 ar  
    38   18   39 1   
    39   19   22 ar  
    40   19   40 1   
    41   20   21 ar  
    42   20   41 1   
    43   21   22 ar  
    44   21   42 1   
    45   22   43 1   
@<TRIPOS>SUBSTRUCTURE
     1 PGI         1 TEMP              0 ****  ****    0 ROOT
