@<TRIPOS>MOLECULE
PGI
   43    45     1     0     0
SMALL
bcc


@<TRIPOS>ATOM
      1 O6          0.5130   -0.2350   -0.7580 oh        1 PGI     -0.598800
      2 C6          1.8800   -0.2460   -0.4220 c3        1 PGI      0.122400
      3 C5          2.0500   -0.1150    1.1100 c3        1 PGI     -0.006000
      4 C4          3.5500    0.1160    1.4340 c3        1 PGI      0.105100
      5 O4          3.8100    1.4520    1.0430 oh        1 PGI     -0.584800
      6 C3          3.8280   -0.0330    2.9420 c3        1 PGI      0.073100
      7 O3          5.2050    0.1670    3.1960 oh        1 PGI     -0.590800
      8 C2          3.5310   -1.4760    3.3950 c3        1 PGI      0.214400
      9 O2          3.5260   -1.5970    4.8020 oh        1 PGI     -0.591800
     10 N1          1.5170   -1.2540    1.8420 na        1 PGI     -0.010100
     11 C8          0.2790   -1.8820    1.6520 cc        1 PGI     -0.109300
     12 C7          0.1570   -2.8800    2.6370 cd        1 PGI     -0.058600
     13 N2          1.3370   -2.8420    3.4040 na        1 PGI     -0.113100
     14 C1          2.1550   -1.8540    2.9100 cc        1 PGI     -0.001900
     15 C9         -0.9570   -3.8270    2.8530 c3        1 PGI     -0.034100
     16 C10        -1.4080   -3.8860    4.3040 c3        1 PGI     -0.028100
     17 C14        -2.6090   -4.7550    4.4420 ca        1 PGI     -0.111300
     18 C13        -2.4770   -6.0830    4.8620 ca        1 PGI     -0.122000
     19 C12        -3.6070   -6.8880    5.0000 ca        1 PGI     -0.120000
     20 C15        -3.8810   -4.2410    4.1660 ca        1 PGI     -0.122000
     21 C16        -5.0080   -5.0480    4.3060 ca        1 PGI     -0.120000
     22 C11        -4.8730   -6.3730    4.7220 ca        1 PGI     -0.111000
     23 H6          0.2510    0.6790   -0.9280 ho        1 PGI      0.428000
     24 H6C1        2.2790   -1.2280   -0.7950 h1        1 PGI      0.086700
     25 H6C2        2.4460    0.6020   -0.8930 h1        1 PGI      0.086700
     26 H5          1.4650    0.7950    1.4530 h1        1 PGI      0.114700
     27 H4          4.1910   -0.6050    0.8550 h1        1 PGI      0.077700
     28 HA          4.7640    1.5240    0.9000 ho        1 PGI      0.437000
     29 H3          3.2020    0.6970    3.5270 h1        1 PGI      0.088700
     30 HB          5.3510    1.1210    3.2580 ho        1 PGI      0.438000
     31 H2          4.2880   -2.1870    2.9480 h1        1 PGI      0.104700
     32 HC          4.3830   -1.2610    5.1120 ho        1 PGI      0.461000
     33 H8         -0.3980   -1.5870    0.8380 h4        1 PGI      0.250000
     34 HD          1.5360   -3.3890    4.2140 hn        1 PGI      0.362700
     35 H9C1       -0.6430   -4.8540    2.5130 hc        1 PGI      0.093200
     36 H9C2       -1.8200   -3.5090    2.2040 hc        1 PGI      0.093200
     37 H101       -1.6490   -2.8500    4.6660 hc        1 PGI      0.051200
     38 H102       -0.5770   -4.2830    4.9470 hc        1 PGI      0.051200
     39 H13        -1.4820   -6.4940    5.0890 ha        1 PGI      0.129000
     40 H12        -3.4980   -7.9320    5.3330 ha        1 PGI      0.144000
     41 H15        -3.9930   -3.1940    3.8460 ha        1 PGI      0.129000
     42 H16        -6.0070   -4.6380    4.0900 ha        1 PGI      0.144000
     43 H11        -5.7640   -7.0100    4.8330 ha        1 PGI      0.146000
@<TRIPOS>BOND
     1    1    2 1   
     2    1   23 1   
     3    2    3 1   
     4    2   24 1   
     5    2   25 1   
     6    3    4 1   
     7    3   10 1   
     8    3   26 1   
     9    4    5 1   
    10    4    6 1   
    11    4   27 1   
    12    5   28 1   
    13    6    7 1   
    14    6    8 1   
    15    6   29 1   
    16    7   30 1   
    17    8    9 1   
    18    8   14 1   
    19    8   31 1   
    20    9   32 1   
    21   10   11 1   
    22   10   14 2   
    23   11   12 2   
    24   11   33 1   
    25   12   13 1   
    26   12   15 1   
    27   13   14 1   
    28   13   34 1   
    29   15   16 1   
    30   15   35 1   
    31   15   36 1   
    32   16   17 1   
    33   16   37 1   
    34   16   38 1   
    35   17   18 ar  
    36   17   20 ar  
    37   18   19 ar  
    38   18   39 1   
    39   19   22 ar  
    40   19   40 1   
    41   20   21 ar  
    42   20   41 1   
    43   21   22 ar  
    44   21   42 1   
    45   22   43 1   
@<TRIPOS>SUBSTRUCTURE
     1 PGI         1 TEMP              0 ****  ****    0 ROOT
