@<TRIPOS>MOLECULE
PGJ
   49    52     1     0     0
SMALL
bcc


@<TRIPOS>ATOM
      1 C1         -0.0050    0.2700   -0.3020 cc        1 PGJ     -0.009800
      2 N2          1.4110    0.4420   -0.5520 na        1 PGJ     -0.369900
      3 O3          2.0500    0.2680    0.6390 os        1 PGJ     -0.205400
      4 C4          1.1010    0.0810    1.6780 c         1 PGJ      0.705800
      5 C5         -0.2440    0.0950    1.0420 cd        1 PGJ     -0.130400
      6 C6          2.0360   -0.3770   -1.6130 c3        1 PGJ      0.360600
      7 O7          2.2810   -1.7310   -1.3000 os        1 PGJ     -0.415600
      8 C10         1.1580   -2.6040   -1.4650 c3        1 PGJ      0.117400
      9 C11         1.6570   -4.0000   -1.1760 c3        1 PGJ     -0.096100
     10 C17        -0.9640    0.4650   -1.4040 ca        1 PGJ      0.512100
     11 C18        -1.4150    1.7740   -1.6780 ca        1 PGJ     -0.374600
     12 C19        -2.3300    1.9220   -2.7400 ca        1 PGJ      0.457200
     13 N20        -2.7740    0.8890   -3.4750 nb        1 PGJ     -0.710000
     14 C21        -2.2660   -0.3410   -3.1220 ca        1 PGJ      0.857300
     15 N22        -1.3680   -0.6170   -2.1160 nb        1 PGJ     -0.682000
     16 O23        -2.6250   -1.4880   -3.8210 os        1 PGJ     -0.317400
     17 C24        -3.6650   -1.3590   -4.7460 ca        1 PGJ      0.060100
     18 C25        -3.3610   -1.5370   -6.0990 ca        1 PGJ     -0.084000
     19 C26        -4.3960   -1.5680   -7.0320 ca        1 PGJ     -0.157000
     20 C27        -5.7200   -1.4070   -6.6220 ca        1 PGJ     -0.085000
     21 C28        -6.0300   -1.2160   -5.2780 ca        1 PGJ     -0.205000
     22 C29        -4.9990   -1.1900   -4.3260 ca        1 PGJ      0.135100
     23 O34        -5.2220   -1.0060   -2.9850 oh        1 PGJ     -0.485100
     24 C35        -1.4640   -0.0460    1.7950 ca        1 PGJ     -0.047800
     25 C36        -1.4250   -0.6060    3.0860 ca        1 PGJ     -0.084500
     26 C37        -2.5870   -0.7640    3.8290 ca        1 PGJ     -0.167000
     27 C38        -3.8210   -0.3560    3.2880 ca        1 PGJ      0.136900
     28 C39        -3.8730    0.2140    2.0030 ca        1 PGJ     -0.167000
     29 C40        -2.7000    0.3640    1.2730 ca        1 PGJ     -0.084500
     30 F45        -4.9590   -0.5080    4.0060 f         1 PGJ     -0.137900
     31 O47         1.5670   -0.0180    2.8010 o         1 PGJ     -0.545500
     32 H61         1.3990   -0.2640   -2.5320 h2        1 PGJ      0.087200
     33 H62         3.0710    0.0550   -1.7560 h2        1 PGJ      0.087200
     34 H101        0.7690   -2.5200   -2.5150 h1        1 PGJ      0.042700
     35 H102        0.3480   -2.3080   -0.7470 h1        1 PGJ      0.042700
     36 H111        2.4650   -4.2830   -1.8920 hc        1 PGJ      0.047700
     37 H112        0.8090   -4.7190   -1.2760 hc        1 PGJ      0.047700
     38 H113        2.0690   -4.0610   -0.1400 hc        1 PGJ      0.047700
     39 H18        -1.0650    2.6340   -1.0960 ha        1 PGJ      0.174000
     40 H19        -2.7260    2.9170   -3.0190 h4        1 PGJ      0.039100
     41 H25        -2.3130   -1.6630   -6.4080 ha        1 PGJ      0.153000
     42 H26        -4.1650   -1.7170   -8.0970 ha        1 PGJ      0.142000
     43 H27        -6.5310   -1.4290   -7.3670 ha        1 PGJ      0.139000
     44 H28        -7.0740   -1.0870   -4.9580 ha        1 PGJ      0.140000
     45 H34        -6.1750   -0.8830   -2.8550 ho        1 PGJ      0.425000
     46 H36        -0.4590   -0.9170    3.5180 ha        1 PGJ      0.151000
     47 H37        -2.5530   -1.2050    4.8360 ha        1 PGJ      0.152500
     48 H39        -4.8380    0.5350    1.5870 ha        1 PGJ      0.152500
     49 H40        -2.7490    0.8160    0.2700 ha        1 PGJ      0.151000
@<TRIPOS>BOND
     1    1    2 1   
     2    1    5 2   
     3    1   10 1   
     4    2    3 1   
     5    2    6 1   
     6    3    4 1   
     7    4    5 1   
     8    4   31 2   
     9    5   24 1   
    10    6    7 1   
    11    6   32 1   
    12    6   33 1   
    13    7    8 1   
    14    8    9 1   
    15    8   34 1   
    16    8   35 1   
    17    9   36 1   
    18    9   37 1   
    19    9   38 1   
    20   10   11 ar  
    21   10   15 ar  
    22   11   12 ar  
    23   11   39 1   
    24   12   13 ar  
    25   12   40 1   
    26   13   14 ar  
    27   14   15 ar  
    28   14   16 1   
    29   16   17 1   
    30   17   18 ar  
    31   17   22 ar  
    32   18   19 ar  
    33   18   41 1   
    34   19   20 ar  
    35   19   42 1   
    36   20   21 ar  
    37   20   43 1   
    38   21   22 ar  
    39   21   44 1   
    40   22   23 1   
    41   23   45 1   
    42   24   25 ar  
    43   24   29 ar  
    44   25   26 ar  
    45   25   46 1   
    46   26   27 ar  
    47   26   47 1   
    48   27   28 ar  
    49   27   30 1   
    50   28   29 ar  
    51   28   48 1   
    52   29   49 1   
@<TRIPOS>SUBSTRUCTURE
     1 PGJ         1 TEMP              0 ****  ****    0 ROOT
