@<TRIPOS>MOLECULE
PGJ
   49    52     1     0     0
SMALL
bcc


@<TRIPOS>ATOM
      1 C1          0.0020    0.2620   -0.3060 cc        1 PGJ     -0.009800
      2 N2          1.4210    0.4140   -0.5530 na        1 PGJ     -0.369900
      3 O3          2.0540    0.2460    0.6430 os        1 PGJ     -0.205400
      4 C4          1.0980    0.0840    1.6800 c         1 PGJ      0.705800
      5 C5         -0.2440    0.1060    1.0390 cd        1 PGJ     -0.130400
      6 C6          2.0400   -0.4260   -1.6000 c3        1 PGJ      0.360600
      7 O7          2.2660   -1.7800   -1.2700 os        1 PGJ     -0.415600
      8 C10         1.1330   -2.6410   -1.4290 c3        1 PGJ      0.117400
      9 C11         1.6140   -4.0390   -1.1200 c3        1 PGJ     -0.096100
     10 C17        -0.9500    0.4550   -1.4150 ca        1 PGJ      0.512100
     11 C18        -1.3840    1.7670   -1.7060 ca        1 PGJ     -0.374600
     12 C19        -2.2920    1.9130   -2.7740 ca        1 PGJ      0.457200
     13 N20        -2.7450    0.8770   -3.4990 nb        1 PGJ     -0.710000
     14 C21        -2.2540   -0.3550   -3.1290 ca        1 PGJ      0.857300
     15 N22        -1.3640   -0.6290   -2.1160 nb        1 PGJ     -0.682000
     16 O23        -2.6240   -1.5050   -3.8170 os        1 PGJ     -0.317400
     17 C24        -3.6580   -1.3740   -4.7480 ca        1 PGJ      0.060100
     18 C25        -3.3500   -1.5720   -6.0970 ca        1 PGJ     -0.084000
     19 C26        -4.3810   -1.6010   -7.0350 ca        1 PGJ     -0.157000
     20 C27        -5.7050   -1.4190   -6.6330 ca        1 PGJ     -0.085000
     21 C28        -6.0190   -1.2090   -5.2920 ca        1 PGJ     -0.205000
     22 C29        -4.9920   -1.1840   -4.3360 ca        1 PGJ      0.135100
     23 O34        -5.2180   -0.9820   -2.9980 oh        1 PGJ     -0.485100
     24 C35        -1.4690   -0.0100    1.7880 ca        1 PGJ     -0.047800
     25 C36        -1.4430   -0.5530    3.0860 ca        1 PGJ     -0.084500
     26 C37        -2.6100   -0.6890    3.8260 ca        1 PGJ     -0.167000
     27 C38        -3.8360   -0.2730    3.2750 ca        1 PGJ      0.136900
     28 C39        -3.8750    0.2810    1.9830 ca        1 PGJ     -0.167000
     29 C40        -2.6980    0.4070    1.2550 ca        1 PGJ     -0.084500
     30 F45        -4.9780   -0.4030    3.9900 f         1 PGJ     -0.137900
     31 O47         1.5580   -0.0070    2.8060 o         1 PGJ     -0.545500
     32 H61         1.4090   -0.3170   -2.5240 h2        1 PGJ      0.087200
     33 H62         3.0810   -0.0090   -1.7440 h2        1 PGJ      0.087200
     34 H101        0.7510   -2.5650   -2.4810 h1        1 PGJ      0.042200
     35 H102        0.3240   -2.3250   -0.7180 h1        1 PGJ      0.042200
     36 H111        2.4210   -4.3410   -1.8280 hc        1 PGJ      0.047700
     37 H112        0.7570   -4.7480   -1.2150 hc        1 PGJ      0.047700
     38 H113        2.0200   -4.0920   -0.0820 hc        1 PGJ      0.047700
     39 H18        -1.0260    2.6290   -1.1330 ha        1 PGJ      0.174000
     40 H19        -2.6740    2.9100   -3.0660 h4        1 PGJ      0.039100
     41 H25        -2.3020   -1.7140   -6.4000 ha        1 PGJ      0.152000
     42 H26        -4.1460   -1.7650   -8.0960 ha        1 PGJ      0.142000
     43 H27        -6.5120   -1.4390   -7.3810 ha        1 PGJ      0.139000
     44 H28        -7.0620   -1.0630   -4.9790 ha        1 PGJ      0.140000
     45 H34        -6.1700   -0.8460   -2.8740 ho        1 PGJ      0.425000
     46 H36        -0.4820   -0.8710    3.5270 ha        1 PGJ      0.151000
     47 H37        -2.5840   -1.1160    4.8390 ha        1 PGJ      0.152500
     48 H39        -4.8350    0.6080    1.5580 ha        1 PGJ      0.152500
     49 H40        -2.7380    0.8480    0.2460 ha        1 PGJ      0.151000
@<TRIPOS>BOND
     1    1    2 1   
     2    1    5 2   
     3    1   10 1   
     4    2    3 1   
     5    2    6 1   
     6    3    4 1   
     7    4    5 1   
     8    4   31 2   
     9    5   24 1   
    10    6    7 1   
    11    6   32 1   
    12    6   33 1   
    13    7    8 1   
    14    8    9 1   
    15    8   34 1   
    16    8   35 1   
    17    9   36 1   
    18    9   37 1   
    19    9   38 1   
    20   10   11 ar  
    21   10   15 ar  
    22   11   12 ar  
    23   11   39 1   
    24   12   13 ar  
    25   12   40 1   
    26   13   14 ar  
    27   14   15 ar  
    28   14   16 1   
    29   16   17 1   
    30   17   18 ar  
    31   17   22 ar  
    32   18   19 ar  
    33   18   41 1   
    34   19   20 ar  
    35   19   42 1   
    36   20   21 ar  
    37   20   43 1   
    38   21   22 ar  
    39   21   44 1   
    40   22   23 1   
    41   23   45 1   
    42   24   25 ar  
    43   24   29 ar  
    44   25   26 ar  
    45   25   46 1   
    46   26   27 ar  
    47   26   47 1   
    48   27   28 ar  
    49   27   30 1   
    50   28   29 ar  
    51   28   48 1   
    52   29   49 1   
@<TRIPOS>SUBSTRUCTURE
     1 PGJ         1 TEMP              0 ****  ****    0 ROOT
