@<TRIPOS>MOLECULE
PGJ
   49    52     1     0     0
SMALL
bcc


@<TRIPOS>ATOM
      1 C1         -1.1240    0.7560   -1.7060 cc        1 PGJ     -0.016800
      2 N2         -2.4170    0.9270   -2.3370 na        1 PGJ     -0.368900
      3 O3         -2.2890    0.5020   -3.6260 os        1 PGJ     -0.204400
      4 C4         -0.9400    0.1500   -3.8920 c         1 PGJ      0.705800
      5 C5         -0.1880    0.3360   -2.6210 cd        1 PGJ     -0.126400
      6 C6         -3.5940    0.3100   -1.6890 c3        1 PGJ      0.359600
      7 O7         -3.7360   -1.0860   -1.8390 os        1 PGJ     -0.413600
      8 C10        -2.9760   -1.8750   -0.9170 c3        1 PGJ      0.117400
      9 C11        -3.3510   -3.3150   -1.1790 c3        1 PGJ     -0.096100
     10 C17        -0.9350    1.1840   -0.3090 ca        1 PGJ      0.514100
     11 C18        -0.6710    2.5460   -0.0510 ca        1 PGJ     -0.367600
     12 C19        -0.4880    2.9160    1.2960 ca        1 PGJ      0.457200
     13 N20        -0.5590    2.0400    2.3130 nb        1 PGJ     -0.708000
     14 C21        -0.8290    0.7410    1.9480 ca        1 PGJ      0.839300
     15 N22        -1.0240    0.2550    0.6760 nb        1 PGJ     -0.685000
     16 O23        -0.9740   -0.2590    2.9050 os        1 PGJ     -0.340400
     17 C24        -0.5200    0.0310    4.1970 ca        1 PGJ     -0.005900
     18 C25        -1.2260    0.8790    5.0540 ca        1 PGJ     -0.071000
     19 C26        -0.7960    1.0170    6.3710 ca        1 PGJ     -0.161000
     20 C27         0.3270    0.3190    6.8250 ca        1 PGJ     -0.088000
     21 C28         1.0340   -0.5280    5.9790 ca        1 PGJ     -0.156000
     22 C29         0.6130   -0.6770    4.6460 ca        1 PGJ      0.143100
     23 O34         1.3310   -1.5280    3.8480 oh        1 PGJ     -0.488100
     24 C35         1.2290    0.1040   -2.5110 ca        1 PGJ     -0.050800
     25 C36         1.8730   -0.7340   -3.4400 ca        1 PGJ     -0.085000
     26 C37         3.2350   -0.9850   -3.3490 ca        1 PGJ     -0.167000
     27 C38         3.9860   -0.3880   -2.3180 ca        1 PGJ      0.139900
     28 C39         3.3570    0.4620   -1.3900 ca        1 PGJ     -0.167000
     29 C40         1.9920    0.7000   -1.4950 ca        1 PGJ     -0.085000
     30 F45         5.3140   -0.6280   -2.2210 f         1 PGJ     -0.134900
     31 O47        -0.7010   -0.1850   -5.0390 o         1 PGJ     -0.541500
     32 H61        -4.4920    0.7300   -2.2330 h2        1 PGJ      0.087200
     33 H62        -3.5700    0.6190   -0.6080 h2        1 PGJ      0.087200
     34 H101       -3.2310   -1.5730    0.1330 h1        1 PGJ      0.040700
     35 H102       -1.8820   -1.7030   -1.0970 h1        1 PGJ      0.040700
     36 H111       -2.7690   -3.9740   -0.4920 hc        1 PGJ      0.048367
     37 H112       -4.4420   -3.4730   -1.0050 hc        1 PGJ      0.048367
     38 H113       -3.1210   -3.5920   -2.2360 hc        1 PGJ      0.048367
     39 H18        -0.6140    3.2820   -0.8630 ha        1 PGJ      0.177000
     40 H19        -0.2770    3.9650    1.5790 h4        1 PGJ      0.043100
     41 H25        -2.1030    1.4280    4.6830 ha        1 PGJ      0.150000
     42 H26        -1.3430    1.6810    7.0560 ha        1 PGJ      0.141000
     43 H27         0.6580    0.4400    7.8680 ha        1 PGJ      0.140000
     44 H28         1.9170   -1.0840    6.3270 ha        1 PGJ      0.157000
     45 H34         0.8910   -1.5730    2.9830 ho        1 PGJ      0.437000
     46 H36         1.2890   -1.1920   -4.2570 ha        1 PGJ      0.149000
     47 H37         3.7340   -1.6430   -4.0750 ha        1 PGJ      0.154000
     48 H39         3.9490    0.9310   -0.5910 ha        1 PGJ      0.154000
     49 H40         1.5080    1.3750   -0.7710 ha        1 PGJ      0.149000
@<TRIPOS>BOND
     1    1    2 1   
     2    1    5 2   
     3    1   10 1   
     4    2    3 1   
     5    2    6 1   
     6    3    4 1   
     7    4    5 1   
     8    4   31 2   
     9    5   24 1   
    10    6    7 1   
    11    6   32 1   
    12    6   33 1   
    13    7    8 1   
    14    8    9 1   
    15    8   34 1   
    16    8   35 1   
    17    9   36 1   
    18    9   37 1   
    19    9   38 1   
    20   10   11 ar  
    21   10   15 ar  
    22   11   12 ar  
    23   11   39 1   
    24   12   13 ar  
    25   12   40 1   
    26   13   14 ar  
    27   14   15 ar  
    28   14   16 1   
    29   16   17 1   
    30   17   18 ar  
    31   17   22 ar  
    32   18   19 ar  
    33   18   41 1   
    34   19   20 ar  
    35   19   42 1   
    36   20   21 ar  
    37   20   43 1   
    38   21   22 ar  
    39   21   44 1   
    40   22   23 1   
    41   23   45 1   
    42   24   25 ar  
    43   24   29 ar  
    44   25   26 ar  
    45   25   46 1   
    46   26   27 ar  
    47   26   47 1   
    48   27   28 ar  
    49   27   30 1   
    50   28   29 ar  
    51   28   48 1   
    52   29   49 1   
@<TRIPOS>SUBSTRUCTURE
     1 PGJ         1 TEMP              0 ****  ****    0 ROOT
