@<TRIPOS>MOLECULE
PGK
  129   128     1     0     0
SMALL
bcc


@<TRIPOS>ATOM
      1 C48         0.2160   -3.0910    1.9430 c3        1 PGK     -0.092100
      2 C47         1.6330   -2.6340    1.7110 c3        1 PGK     -0.080400
      3 C46         2.2100   -1.9660    2.9410 c3        1 PGK     -0.079400
      4 C45         3.6330   -1.5090    2.7040 c3        1 PGK     -0.079400
      5 C44         4.2080   -0.8410    3.9340 c3        1 PGK     -0.078400
      6 C43         5.6320   -0.3840    3.6950 c3        1 PGK     -0.078400
      7 C42         6.2050    0.2840    4.9280 c3        1 PGK     -0.083400
      8 C41         7.6280    0.7410    4.6780 c3        1 PGK     -0.082400
      9 C40         8.2560    1.3610    5.9130 c3        1 PGK      0.015700
     10 Br2         7.4910    3.1060    6.3190 br        1 PGK     -0.162400
     11 C39         9.7710    1.4180    5.8020 c3        1 PGK      0.014700
     12 Br1        10.3510    2.7100    4.4640 br        1 PGK     -0.160400
     13 C38        10.4240    1.6660    7.1490 c3        1 PGK     -0.082400
     14 C37        11.8850    1.2660    7.1570 c3        1 PGK     -0.084400
     15 C36        12.4880    1.4550    8.5330 c3        1 PGK     -0.077400
     16 C35        13.9320    1.0000    8.5630 c3        1 PGK     -0.079400
     17 C34        14.5350    1.1820    9.9390 c3        1 PGK     -0.078400
     18 C33        15.9580    0.6680    9.9810 c3        1 PGK     -0.079400
     19 C32        16.5640    0.8680   11.3540 c3        1 PGK     -0.129400
     20 C31        17.8990    0.1900   11.4560 c         1 PGK      0.634100
     21 O31        18.2410   -0.8880   10.9620 o         1 PGK     -0.560000
     22 O2         18.7780    0.8980   12.2140 os        1 PGK     -0.425900
     23 C2         20.1080    0.3680   12.3860 c3        1 PGK      0.133100
     24 C1         20.9750    1.5850   12.7580 c3        1 PGK      0.182400
     25 O3P        22.2890    1.1480   12.8900 os        1 PGK     -0.581200
     26 P          23.4770    2.1790   12.3670 p5        1 PGK      1.423800
     27 O1P        24.7320    1.4110   12.4010 o         1 PGK     -0.811000
     28 O2P        22.9250    2.9870   11.2680 o         1 PGK     -0.811000
     29 O4P        23.4500    3.1310   13.7290 os        1 PGK     -0.581200
     30 C4         23.9500    2.5560   14.8940 c3        1 PGK      0.160400
     31 C5         22.8140    2.4560   15.9240 c3        1 PGK      0.072100
     32 O5         22.1810    3.7160   16.1180 oh        1 PGK     -0.644800
     33 C6         23.3480    2.0190   17.2870 c3        1 PGK      0.130400
     34 O6         22.3160    1.9640   18.2570 oh        1 PGK     -0.625800
     35 C3         20.1260   -0.7120   13.4610 c3        1 PGK      0.123400
     36 O3         19.7600   -0.0970   14.7080 os        1 PGK     -0.432900
     37 C11        19.9940   -0.8210   15.8420 c         1 PGK      0.636100
     38 O11        20.3020   -2.0110   15.7330 o         1 PGK     -0.561000
     39 C12        19.8340    0.0030   17.0800 c3        1 PGK     -0.141400
     40 C13        19.7000   -0.8590   18.3160 c3        1 PGK     -0.071400
     41 C14        19.8090   -0.0100   19.5660 c3        1 PGK     -0.087400
     42 C15        19.7480   -0.8650   20.8130 c3        1 PGK     -0.075400
     43 C16        19.8540   -0.0180   22.0630 c3        1 PGK     -0.079400
     44 C17        19.8010   -0.8710   23.3120 c3        1 PGK     -0.078400
     45 C18        19.9090   -0.0230   24.5620 c3        1 PGK     -0.079400
     46 C19        19.8580   -0.8760   25.8110 c3        1 PGK     -0.078400
     47 C20        19.9670   -0.0290   27.0610 c3        1 PGK     -0.079400
     48 C21        19.9180   -0.8810   28.3100 c3        1 PGK     -0.078400
     49 C22        20.0280   -0.0340   29.5590 c3        1 PGK     -0.079400
     50 C23        19.9790   -0.8860   30.8090 c3        1 PGK     -0.079400
     51 C24        20.0900   -0.0380   32.0580 c3        1 PGK     -0.079400
     52 C25        20.0410   -0.8900   33.3090 c3        1 PGK     -0.080400
     53 C26        20.1510   -0.0500   34.5550 c3        1 PGK     -0.092100
     54 H481        0.1710   -3.8250    2.7830 hc        1 PGK      0.032033
     55 H482       -0.1890   -3.5800    1.0250 hc        1 PGK      0.032033
     56 H483       -0.4400   -2.2250    2.2000 hc        1 PGK      0.032033
     57 H471        1.6620   -1.9170    0.8490 hc        1 PGK      0.038700
     58 H472        2.2720   -3.5130    1.4300 hc        1 PGK      0.038700
     59 H461        2.1840   -2.6820    3.8040 hc        1 PGK      0.039700
     60 H462        1.5740   -1.0850    3.2230 hc        1 PGK      0.039700
     61 H451        4.2690   -2.3890    2.4220 hc        1 PGK      0.039700
     62 H452        3.6590   -0.7930    1.8400 hc        1 PGK      0.039700
     63 H441        4.1830   -1.5570    4.7980 hc        1 PGK      0.040700
     64 H442        3.5730    0.0400    4.2160 hc        1 PGK      0.040700
     65 H431        6.2670   -1.2640    3.4130 hc        1 PGK      0.041700
     66 H432        5.6570    0.3340    2.8330 hc        1 PGK      0.041700
     67 H421        6.1830   -0.4350    5.7880 hc        1 PGK      0.047700
     68 H422        5.5640    1.1610    5.2100 hc        1 PGK      0.047700
     69 H411        7.6480    1.4660    3.8220 hc        1 PGK      0.060700
     70 H412        8.2440   -0.1480    4.3720 hc        1 PGK      0.060700
     71 H40         7.9910    0.7390    6.8090 h1        1 PGK      0.083700
     72 H39        10.1320    0.4350    5.3970 h1        1 PGK      0.084700
     73 H381        9.8810    1.0620    7.9270 hc        1 PGK      0.060200
     74 H382       10.3250    2.7440    7.4430 hc        1 PGK      0.060200
     75 H371       11.9850    0.1910    6.8490 hc        1 PGK      0.048200
     76 H372       12.4560    1.8790    6.4110 hc        1 PGK      0.048200
     77 H361       11.8960    0.8750    9.2880 hc        1 PGK      0.040200
     78 H362       12.4270    2.5370    8.8240 hc        1 PGK      0.040200
     79 H351       13.9920   -0.0800    8.2660 hc        1 PGK      0.043700
     80 H352       14.5270    1.5830    7.8110 hc        1 PGK      0.043700
     81 H341       13.9150    0.6340   10.6970 hc        1 PGK      0.038700
     82 H342       14.5170    2.2680   10.2190 hc        1 PGK      0.038700
     83 H331       15.9810   -0.4230    9.7190 hc        1 PGK      0.057700
     84 H332       16.5780    1.2050    9.2160 hc        1 PGK      0.057700
     85 H321       16.6800    1.9610   11.5790 hc        1 PGK      0.074200
     86 H322       15.9020    0.4230   12.1440 hc        1 PGK      0.074200
     87 H2         20.4590   -0.0950   11.4240 h1        1 PGK      0.083700
     88 H11        20.6050    1.9940   13.7410 h1        1 PGK      0.052200
     89 H12        20.8950    2.3720   11.9570 h1        1 PGK      0.052200
     90 H41        24.3780    1.5370   14.6860 h1        1 PGK      0.043700
     91 H42        24.7540    3.2300   15.3060 h1        1 PGK      0.043700
     92 H5         22.0320    1.7280   15.5630 h1        1 PGK      0.060700
     93 HO5        22.1740    4.1540   15.2550 ho        1 PGK      0.439000
     94 H61        24.1480    2.7250   17.6360 h1        1 PGK      0.044200
     95 H62        23.7550    0.9770   17.2280 h1        1 PGK      0.044200
     96 HO6        21.8270    2.7940   18.1930 ho        1 PGK      0.415000
     97 H31        21.1640   -1.1310   13.5440 h1        1 PGK      0.070200
     98 H32        19.3870   -1.5240   13.2360 h1        1 PGK      0.070200
     99 H121       20.7470    0.6630   17.1640 hc        1 PGK      0.090200
    100 H122       18.9450    0.6760   16.9650 hc        1 PGK      0.090200
    101 H131       20.5050   -1.6410   18.3130 hc        1 PGK      0.048700
    102 H132       18.7170   -1.3970   18.3010 hc        1 PGK      0.048700
    103 H141       20.7760    0.5640   19.5420 hc        1 PGK      0.051200
    104 H142       18.9780    0.7420   19.5830 hc        1 PGK      0.051200
    105 H151       20.5830   -1.6150   20.7950 hc        1 PGK      0.037200
    106 H152       18.7860   -1.4420   20.8290 hc        1 PGK      0.037200
    107 H161       19.0190    0.7310   22.0830 hc        1 PGK      0.040700
    108 H162       20.8150    0.5610   22.0430 hc        1 PGK      0.040700
    109 H171       18.8400   -1.4500   23.3320 hc        1 PGK      0.037700
    110 H172       20.6370   -1.6190   23.2920 hc        1 PGK      0.037700
    111 H181       20.8690    0.5560   24.5410 hc        1 PGK      0.039700
    112 H182       19.0730    0.7250   24.5820 hc        1 PGK      0.039700
    113 H191       20.6940   -1.6240   25.7900 hc        1 PGK      0.038700
    114 H192       18.8970   -1.4550   25.8330 hc        1 PGK      0.038700
    115 H201       19.1310    0.7190   27.0820 hc        1 PGK      0.039700
    116 H202       20.9280    0.5510   27.0390 hc        1 PGK      0.039700
    117 H211       18.9570   -1.4600   28.3320 hc        1 PGK      0.038700
    118 H212       20.7540   -1.6290   28.2880 hc        1 PGK      0.038700
    119 H221       19.1920    0.7140   29.5810 hc        1 PGK      0.039200
    120 H222       20.9880    0.5460   29.5370 hc        1 PGK      0.039200
    121 H231       19.0180   -1.4650   30.8310 hc        1 PGK      0.038700
    122 H232       20.8150   -1.6340   30.7870 hc        1 PGK      0.038700
    123 H241       21.0500    0.5410   32.0350 hc        1 PGK      0.039200
    124 H242       19.2540    0.7100   32.0800 hc        1 PGK      0.039200
    125 H251       19.0800   -1.4700   33.3290 hc        1 PGK      0.037700
    126 H252       20.8770   -1.6390   33.2830 hc        1 PGK      0.037700
    127 H261       20.1130   -0.6970   35.4640 hc        1 PGK      0.031367
    128 H262       19.3120    0.6850   34.6100 hc        1 PGK      0.031367
    129 H263       21.1140    0.5160   34.5650 hc        1 PGK      0.031367
@<TRIPOS>BOND
     1    1    2 1   
     2    1   54 1   
     3    1   55 1   
     4    1   56 1   
     5    2    3 1   
     6    2   57 1   
     7    2   58 1   
     8    3    4 1   
     9    3   59 1   
    10    3   60 1   
    11    4    5 1   
    12    4   61 1   
    13    4   62 1   
    14    5    6 1   
    15    5   63 1   
    16    5   64 1   
    17    6    7 1   
    18    6   65 1   
    19    6   66 1   
    20    7    8 1   
    21    7   67 1   
    22    7   68 1   
    23    8    9 1   
    24    8   69 1   
    25    8   70 1   
    26    9   10 1   
    27    9   11 1   
    28    9   71 1   
    29   11   12 1   
    30   11   13 1   
    31   11   72 1   
    32   13   14 1   
    33   13   73 1   
    34   13   74 1   
    35   14   15 1   
    36   14   75 1   
    37   14   76 1   
    38   15   16 1   
    39   15   77 1   
    40   15   78 1   
    41   16   17 1   
    42   16   79 1   
    43   16   80 1   
    44   17   18 1   
    45   17   81 1   
    46   17   82 1   
    47   18   19 1   
    48   18   83 1   
    49   18   84 1   
    50   19   20 1   
    51   19   85 1   
    52   19   86 1   
    53   20   21 2   
    54   20   22 1   
    55   22   23 1   
    56   23   24 1   
    57   23   35 1   
    58   23   87 1   
    59   24   25 1   
    60   24   88 1   
    61   24   89 1   
    62   25   26 1   
    63   26   27 1   
    64   26   28 1   
    65   26   29 1   
    66   29   30 1   
    67   30   31 1   
    68   30   90 1   
    69   30   91 1   
    70   31   32 1   
    71   31   33 1   
    72   31   92 1   
    73   32   93 1   
    74   33   34 1   
    75   33   94 1   
    76   33   95 1   
    77   34   96 1   
    78   35   36 1   
    79   35   97 1   
    80   35   98 1   
    81   36   37 1   
    82   37   38 2   
    83   37   39 1   
    84   39   40 1   
    85   39   99 1   
    86   39  100 1   
    87   40   41 1   
    88   40  101 1   
    89   40  102 1   
    90   41   42 1   
    91   41  103 1   
    92   41  104 1   
    93   42   43 1   
    94   42  105 1   
    95   42  106 1   
    96   43   44 1   
    97   43  107 1   
    98   43  108 1   
    99   44   45 1   
   100   44  109 1   
   101   44  110 1   
   102   45   46 1   
   103   45  111 1   
   104   45  112 1   
   105   46   47 1   
   106   46  113 1   
   107   46  114 1   
   108   47   48 1   
   109   47  115 1   
   110   47  116 1   
   111   48   49 1   
   112   48  117 1   
   113   48  118 1   
   114   49   50 1   
   115   49  119 1   
   116   49  120 1   
   117   50   51 1   
   118   50  121 1   
   119   50  122 1   
   120   51   52 1   
   121   51  123 1   
   122   51  124 1   
   123   52   53 1   
   124   52  125 1   
   125   52  126 1   
   126   53  127 1   
   127   53  128 1   
   128   53  129 1   
@<TRIPOS>SUBSTRUCTURE
     1 PGK         1 TEMP              0 ****  ****    0 ROOT
