@<TRIPOS>MOLECULE
PGK
  129   128     1     0     0
SMALL
bcc


@<TRIPOS>ATOM
      1 C48       -17.4310    7.2410    2.2850 c3        1 PGK     -0.092100
      2 C47       -16.8830    5.8390    2.2070 c3        1 PGK     -0.080400
      3 C46       -15.5840    5.7930    1.4300 c3        1 PGK     -0.079400
      4 C45       -15.0370    4.3840    1.3550 c3        1 PGK     -0.079400
      5 C44       -13.7390    4.3400    0.5780 c3        1 PGK     -0.079400
      6 C43       -13.1930    2.9300    0.5020 c3        1 PGK     -0.078400
      7 C42       -11.8940    2.8880   -0.2750 c3        1 PGK     -0.083400
      8 C41       -11.3570    1.4740   -0.3480 c3        1 PGK     -0.082400
      9 C40       -10.0220    1.4030   -1.0670 c3        1 PGK      0.015700
     10 BR2       -10.2120    1.7080   -2.9820 br        1 PGK     -0.162400
     11 C39        -9.2930    0.1030   -0.7690 c3        1 PGK      0.014700
     12 BR1       -10.1760   -1.4280   -1.5880 br        1 PGK     -0.160400
     13 C38        -7.8260    0.1820   -1.1510 c3        1 PGK     -0.082400
     14 C37        -6.9980   -0.8810   -0.4580 c3        1 PGK     -0.083400
     15 C36        -5.5300   -0.7240   -0.7950 c3        1 PGK     -0.077400
     16 C35        -4.6900   -1.7490   -0.0630 c3        1 PGK     -0.079400
     17 C34        -3.2200   -1.5840   -0.3860 c3        1 PGK     -0.078400
     18 C33        -2.3780   -2.5740    0.3910 c3        1 PGK     -0.079400
     19 C32        -0.9110   -2.4110    0.0590 c3        1 PGK     -0.130400
     20 C31        -0.0570   -3.2550    0.9580 c         1 PGK      0.634100
     21 O31        -0.2680   -3.5650    2.1340 o         1 PGK     -0.560000
     22 O2          1.0780   -3.6770    0.3390 os        1 PGK     -0.425900
     23 C2          1.9910   -4.5080    1.0840 c3        1 PGK      0.134100
     24 C1          2.8150   -5.2480    0.0160 c3        1 PGK      0.182400
     25 O3P         3.6900   -6.1090    0.6720 os        1 PGK     -0.581200
     26 P           3.9810   -7.5720   -0.0500 p5        1 PGK      1.423800
     27 O1P         4.7380   -8.3690    0.9280 o         1 PGK     -0.811000
     28 O2P         2.7780   -7.9520   -0.8090 o         1 PGK     -0.811000
     29 O4P         5.0770   -6.9760   -1.1470 os        1 PGK     -0.581200
     30 C4          6.3060   -6.5710   -0.6340 c3        1 PGK      0.160400
     31 C5          6.4680   -5.0610   -0.8720 c3        1 PGK      0.072100
     32 O5          6.2670   -4.7290   -2.2410 oh        1 PGK     -0.644800
     33 C6          7.8800   -4.5990   -0.5120 c3        1 PGK      0.130400
     34 O6          8.0560   -3.2160   -0.7670 oh        1 PGK     -0.625800
     35 C3          2.8590   -3.6640    2.0110 c3        1 PGK      0.123400
     36 O3          3.6590   -2.7950    1.1920 os        1 PGK     -0.432900
     37 C11         4.7040   -2.1640    1.8040 c         1 PGK      0.636100
     38 O11         4.7820   -2.2040    3.0350 o         1 PGK     -0.561000
     39 C12         5.6200   -1.5070    0.8210 c3        1 PGK     -0.141400
     40 C13         6.5270   -0.4950    1.4860 c3        1 PGK     -0.071400
     41 C14         7.6110   -0.0480    0.5280 c3        1 PGK     -0.087400
     42 C15         8.5690    0.9130    1.1970 c3        1 PGK     -0.075400
     43 C16         9.6490    1.3660    0.2380 c3        1 PGK     -0.079400
     44 C17        10.6120    2.3240    0.9070 c3        1 PGK     -0.078400
     45 C18        11.6920    2.7770   -0.0510 c3        1 PGK     -0.079400
     46 C19        12.6550    3.7350    0.6170 c3        1 PGK     -0.078400
     47 C20        13.7350    4.1880   -0.3420 c3        1 PGK     -0.079400
     48 C21        14.6980    5.1450    0.3270 c3        1 PGK     -0.078400
     49 C22        15.7780    5.5980   -0.6330 c3        1 PGK     -0.079400
     50 C23        16.7410    6.5560    0.0360 c3        1 PGK     -0.079400
     51 C24        17.8200    7.0090   -0.9230 c3        1 PGK     -0.079400
     52 C25        18.7850    7.9670   -0.2560 c3        1 PGK     -0.080400
     53 C26        19.8610    8.4210   -1.2080 c3        1 PGK     -0.092100
     54 H481      -18.3880    7.2520    2.8610 hc        1 PGK      0.032033
     55 H482      -16.7060    7.9200    2.7930 hc        1 PGK      0.032033
     56 H483      -17.6310    7.6440    1.2620 hc        1 PGK      0.032033
     57 H471      -17.6360    5.1670    1.7160 hc        1 PGK      0.038700
     58 H472      -16.7130    5.4430    3.2430 hc        1 PGK      0.038700
     59 H461      -14.8300    6.4640    1.9200 hc        1 PGK      0.039700
     60 H462      -15.7530    6.1880    0.3940 hc        1 PGK      0.039700
     61 H451      -15.7920    3.7130    0.8650 hc        1 PGK      0.039700
     62 H452      -14.8690    3.9900    2.3910 hc        1 PGK      0.039700
     63 H441      -12.9850    5.0100    1.0680 hc        1 PGK      0.040700
     64 H442      -13.9070    4.7340   -0.4590 hc        1 PGK      0.040700
     65 H431      -13.9470    2.2600    0.0110 hc        1 PGK      0.041700
     66 H432      -13.0260    2.5350    1.5400 hc        1 PGK      0.041700
     67 H421      -11.1390    3.5550    0.2210 hc        1 PGK      0.047700
     68 H422      -12.0640    3.2880   -1.3090 hc        1 PGK      0.047700
     69 H411      -12.1080    0.8080   -0.8490 hc        1 PGK      0.060700
     70 H412      -11.2190    1.0850    0.6990 hc        1 PGK      0.060700
     71 H40        -9.3770    2.2560   -0.7240 h1        1 PGK      0.083700
     72 H39        -9.3720   -0.1020    0.3320 h1        1 PGK      0.084700
     73 H381       -7.4330    1.1940   -0.8570 hc        1 PGK      0.060200
     74 H382       -7.7030    0.0930   -2.2630 hc        1 PGK      0.060200
     75 H371       -7.3460   -1.9020   -0.7680 hc        1 PGK      0.048200
     76 H372       -7.1380   -0.8060    0.6530 hc        1 PGK      0.048200
     77 H361       -5.1880    0.3080   -0.5190 hc        1 PGK      0.040200
     78 H362       -5.3840   -0.8370   -1.9010 hc        1 PGK      0.040200
     79 H351       -5.0240   -2.7820   -0.3470 hc        1 PGK      0.043700
     80 H352       -4.8460   -1.6440    1.0430 hc        1 PGK      0.043700
     81 H341       -2.8960   -0.5380   -0.1390 hc        1 PGK      0.038700
     82 H342       -3.0570   -1.7300   -1.4860 hc        1 PGK      0.038700
     83 H331       -2.7030   -3.6200    0.1500 hc        1 PGK      0.057700
     84 H332       -2.5300   -2.4260    1.4930 hc        1 PGK      0.057700
     85 H321       -0.5920   -1.3440    0.2010 hc        1 PGK      0.074700
     86 H322       -0.7140   -2.6870   -1.0100 hc        1 PGK      0.074700
     87 H2          1.4110   -5.2340    1.7180 h1        1 PGK      0.083700
     88 H11         2.1300   -5.8220   -0.6680 h1        1 PGK      0.052200
     89 H12         3.3970   -4.4830   -0.5720 h1        1 PGK      0.052200
     90 H41         6.3770   -6.8020    0.4640 h1        1 PGK      0.043700
     91 H42         7.1200   -7.1140   -1.1910 h1        1 PGK      0.043700
     92 H5          5.7080   -4.4930   -0.2620 h1        1 PGK      0.060700
     93 HO5         5.5700   -5.3180   -2.5650 ho        1 PGK      0.439000
     94 H61         8.0590   -4.7220    0.5880 h1        1 PGK      0.044200
     95 H62         8.6400   -5.1840   -1.0930 h1        1 PGK      0.044200
     96 HO6         7.7260   -3.0530   -1.6610 ho        1 PGK      0.415000
     97 H31         3.5320   -4.3420    2.6010 h1        1 PGK      0.070200
     98 H32         2.2340   -3.0320    2.6920 h1        1 PGK      0.070200
     99 H121        5.0110   -1.0250    0.0120 hc        1 PGK      0.090200
    100 H122        6.2360   -2.3230    0.3390 hc        1 PGK      0.090200
    101 H131        6.9900   -0.9550    2.4000 hc        1 PGK      0.048700
    102 H132        5.9270    0.3870    1.8290 hc        1 PGK      0.048700
    103 H141        7.1430    0.4470   -0.3640 hc        1 PGK      0.051200
    104 H142        8.1710   -0.9480    0.1520 hc        1 PGK      0.051200
    105 H151        9.0400    0.4150    2.0860 hc        1 PGK      0.037200
    106 H152        8.0050    1.8050    1.5780 hc        1 PGK      0.037200
    107 H161        9.1790    1.8650   -0.6500 hc        1 PGK      0.040700
    108 H162       10.2100    0.4730   -0.1430 hc        1 PGK      0.040700
    109 H171       11.0830    1.8240    1.7950 hc        1 PGK      0.037700
    110 H172       10.0500    3.2160    1.2900 hc        1 PGK      0.037700
    111 H181       11.2220    3.2760   -0.9390 hc        1 PGK      0.039200
    112 H182       12.2540    1.8840   -0.4340 hc        1 PGK      0.039200
    113 H191       13.1260    3.2350    1.5050 hc        1 PGK      0.038700
    114 H192       12.0940    4.6270    1.0000 hc        1 PGK      0.038700
    115 H201       13.2640    4.6860   -1.2300 hc        1 PGK      0.039200
    116 H202       14.2970    3.2950   -0.7240 hc        1 PGK      0.039200
    117 H211       15.1690    4.6460    1.2140 hc        1 PGK      0.038700
    118 H212       14.1360    6.0380    0.7090 hc        1 PGK      0.038700
    119 H221       15.3070    6.0970   -1.5200 hc        1 PGK      0.039200
    120 H222       16.3400    4.7050   -1.0150 hc        1 PGK      0.039200
    121 H231       17.2120    6.0570    0.9230 hc        1 PGK      0.038700
    122 H232       16.1790    7.4480    0.4180 hc        1 PGK      0.038700
    123 H241       17.3500    7.5080   -1.8110 hc        1 PGK      0.039200
    124 H242       18.3830    6.1170   -1.3060 hc        1 PGK      0.039200
    125 H251       19.2530    7.4660    0.6320 hc        1 PGK      0.037700
    126 H252       18.2200    8.8580    0.1270 hc        1 PGK      0.037700
    127 H261       20.5600    9.1250   -0.6960 hc        1 PGK      0.031367
    128 H262       20.4500    7.5480   -1.5810 hc        1 PGK      0.031367
    129 H263       19.4150    8.9440   -2.0880 hc        1 PGK      0.031367
@<TRIPOS>BOND
     1    1    2 1   
     2    1   54 1   
     3    1   55 1   
     4    1   56 1   
     5    2    3 1   
     6    2   57 1   
     7    2   58 1   
     8    3    4 1   
     9    3   59 1   
    10    3   60 1   
    11    4    5 1   
    12    4   61 1   
    13    4   62 1   
    14    5    6 1   
    15    5   63 1   
    16    5   64 1   
    17    6    7 1   
    18    6   65 1   
    19    6   66 1   
    20    7    8 1   
    21    7   67 1   
    22    7   68 1   
    23    8    9 1   
    24    8   69 1   
    25    8   70 1   
    26    9   10 1   
    27    9   11 1   
    28    9   71 1   
    29   11   12 1   
    30   11   13 1   
    31   11   72 1   
    32   13   14 1   
    33   13   73 1   
    34   13   74 1   
    35   14   15 1   
    36   14   75 1   
    37   14   76 1   
    38   15   16 1   
    39   15   77 1   
    40   15   78 1   
    41   16   17 1   
    42   16   79 1   
    43   16   80 1   
    44   17   18 1   
    45   17   81 1   
    46   17   82 1   
    47   18   19 1   
    48   18   83 1   
    49   18   84 1   
    50   19   20 1   
    51   19   85 1   
    52   19   86 1   
    53   20   21 2   
    54   20   22 1   
    55   22   23 1   
    56   23   24 1   
    57   23   35 1   
    58   23   87 1   
    59   24   25 1   
    60   24   88 1   
    61   24   89 1   
    62   25   26 1   
    63   26   27 1   
    64   26   28 1   
    65   26   29 1   
    66   29   30 1   
    67   30   31 1   
    68   30   90 1   
    69   30   91 1   
    70   31   32 1   
    71   31   33 1   
    72   31   92 1   
    73   32   93 1   
    74   33   34 1   
    75   33   94 1   
    76   33   95 1   
    77   34   96 1   
    78   35   36 1   
    79   35   97 1   
    80   35   98 1   
    81   36   37 1   
    82   37   38 2   
    83   37   39 1   
    84   39   40 1   
    85   39   99 1   
    86   39  100 1   
    87   40   41 1   
    88   40  101 1   
    89   40  102 1   
    90   41   42 1   
    91   41  103 1   
    92   41  104 1   
    93   42   43 1   
    94   42  105 1   
    95   42  106 1   
    96   43   44 1   
    97   43  107 1   
    98   43  108 1   
    99   44   45 1   
   100   44  109 1   
   101   44  110 1   
   102   45   46 1   
   103   45  111 1   
   104   45  112 1   
   105   46   47 1   
   106   46  113 1   
   107   46  114 1   
   108   47   48 1   
   109   47  115 1   
   110   47  116 1   
   111   48   49 1   
   112   48  117 1   
   113   48  118 1   
   114   49   50 1   
   115   49  119 1   
   116   49  120 1   
   117   50   51 1   
   118   50  121 1   
   119   50  122 1   
   120   51   52 1   
   121   51  123 1   
   122   51  124 1   
   123   52   53 1   
   124   52  125 1   
   125   52  126 1   
   126   53  127 1   
   127   53  128 1   
   128   53  129 1   
@<TRIPOS>SUBSTRUCTURE
     1 PGK         1 TEMP              0 ****  ****    0 ROOT
