@<TRIPOS>MOLECULE
PGK
  129   128     1     0     0
SMALL
bcc


@<TRIPOS>ATOM
      1 C48         0.3300   -3.6090    1.5070 c3        1 PGK     -0.092100
      2 C47         1.7420   -3.1310    1.2870 c3        1 PGK     -0.080400
      3 C46         2.2610   -2.3640    2.4840 c3        1 PGK     -0.079400
      4 C45         3.6800   -1.8860    2.2590 c3        1 PGK     -0.079400
      5 C44         4.1980   -1.1180    3.4570 c3        1 PGK     -0.079400
      6 C43         5.6160   -0.6400    3.2310 c3        1 PGK     -0.078400
      7 C42         6.1320    0.1260    4.4300 c3        1 PGK     -0.083400
      8 C41         7.5500    0.6030    4.1940 c3        1 PGK     -0.082400
      9 C40         8.1230    1.3210    5.4020 c3        1 PGK      0.014700
     10 BR2         7.3020    3.0690    5.6640 br        1 PGK     -0.162400
     11 C39         9.6390    1.4120    5.3350 c3        1 PGK      0.014700
     12 BR1        10.2310    2.6280    3.9330 br        1 PGK     -0.161400
     13 C38        10.2410    1.7630    6.6830 c3        1 PGK     -0.082400
     14 C37        11.7130    1.4170    6.7580 c3        1 PGK     -0.083400
     15 C36        12.2600    1.6920    8.1430 c3        1 PGK     -0.078400
     16 C35        13.7220    1.3100    8.2390 c3        1 PGK     -0.078400
     17 C34        14.2640    1.5600    9.6300 c3        1 PGK     -0.078400
     18 C33        15.7140    1.1360    9.7330 c3        1 PGK     -0.078400
     19 C32        16.2510    1.3850   11.1250 c3        1 PGK     -0.131400
     20 C31        17.6310    0.8190   11.2840 c         1 PGK      0.634100
     21 O31        18.1490   -0.1120   10.6600 o         1 PGK     -0.563000
     22 O2         18.3300    1.4500   12.2640 os        1 PGK     -0.425900
     23 C2         19.6710    0.9960   12.5460 c3        1 PGK      0.136100
     24 C1         20.3500    2.1860   13.2370 c3        1 PGK      0.182400
     25 O3P        21.6940    1.8610   13.4350 os        1 PGK     -0.562200
     26 P          22.4740    2.9620   14.3840 p5        1 PGK      1.427800
     27 O1P        23.9070    2.6200   14.4350 o         1 PGK     -0.825500
     28 O2P        21.8890    4.2820   14.0910 o         1 PGK     -0.825500
     29 O4P        21.8450    2.4350   15.8330 os        1 PGK     -0.588200
     30 C4         22.6310    2.6570   16.9590 c3        1 PGK      0.203400
     31 C5         23.2290    1.3360   17.4770 c3        1 PGK      0.075100
     32 O5         22.9610    1.2760   18.8750 oh        1 PGK     -0.623800
     33 C6         24.7340    1.2580   17.2110 c3        1 PGK      0.072400
     34 O6         25.2330   -0.0070   17.6210 oh        1 PGK     -0.630800
     35 C3         19.6400   -0.2590   13.4140 c3        1 PGK      0.124400
     36 O3         19.1630    0.1080   14.7150 os        1 PGK     -0.438900
     37 C11        19.7540   -0.4970   15.7930 c         1 PGK      0.653100
     38 O11        20.3440   -1.5660   15.6140 o         1 PGK     -0.567000
     39 C12        19.5770    0.2870   17.0530 c3        1 PGK     -0.146400
     40 C13        19.5670   -0.6050   18.2740 c3        1 PGK     -0.071400
     41 C14        19.7820    0.2090   19.5320 c3        1 PGK     -0.092400
     42 C15        19.6920   -0.6600   20.7670 c3        1 PGK     -0.074400
     43 C16        19.9250    0.1500   22.0240 c3        1 PGK     -0.080400
     44 C17        19.8430   -0.7170   23.2620 c3        1 PGK     -0.078400
     45 C18        20.0760    0.0940   24.5180 c3        1 PGK     -0.079400
     46 C19        19.9960   -0.7720   25.7570 c3        1 PGK     -0.078400
     47 C20        20.2290    0.0400   27.0130 c3        1 PGK     -0.079400
     48 C21        20.1480   -0.8270   28.2510 c3        1 PGK     -0.078400
     49 C22        20.3810   -0.0150   29.5070 c3        1 PGK     -0.079400
     50 C23        20.3010   -0.8810   30.7450 c3        1 PGK     -0.078400
     51 C24        20.5340   -0.0690   32.0010 c3        1 PGK     -0.079400
     52 C25        20.4540   -0.9340   33.2410 c3        1 PGK     -0.080400
     53 C26        20.6850   -0.1300   34.4930 c3        1 PGK     -0.092100
     54 H481       -0.0330   -4.1720    0.6140 hc        1 PGK      0.032367
     55 H482       -0.3560   -2.7460    1.6830 hc        1 PGK      0.032367
     56 H483        0.2760   -4.2850    2.3950 hc        1 PGK      0.032367
     57 H471        2.4110   -4.0100    1.0890 hc        1 PGK      0.038700
     58 H472        1.7810   -2.4750    0.3780 hc        1 PGK      0.038700
     59 H461        1.5950   -1.4830    2.6840 hc        1 PGK      0.039700
     60 H462        2.2250   -3.0180    3.3950 hc        1 PGK      0.039700
     61 H451        3.7160   -1.2310    1.3490 hc        1 PGK      0.039700
     62 H452        4.3460   -2.7660    2.0590 hc        1 PGK      0.039700
     63 H441        3.5320   -0.2370    3.6560 hc        1 PGK      0.040700
     64 H442        4.1610   -1.7730    4.3670 hc        1 PGK      0.040700
     65 H431        6.2820   -1.5210    3.0300 hc        1 PGK      0.041200
     66 H432        5.6520    0.0160    2.3220 hc        1 PGK      0.041200
     67 H421        5.4610    1.0020    4.6310 hc        1 PGK      0.047700
     68 H422        6.0990   -0.5330    5.3380 hc        1 PGK      0.047700
     69 H411        8.1980   -0.2890    3.9690 hc        1 PGK      0.060700
     70 H412        7.5810    1.2680    3.2910 hc        1 PGK      0.060700
     71 H40         7.8440    0.7550    6.3300 h1        1 PGK      0.084700
     72 H39        10.0370    0.4150    5.0060 h1        1 PGK      0.084700
     73 H381       10.0960    2.8530    6.9070 hc        1 PGK      0.060700
     74 H382        9.6930    1.1890    7.4790 hc        1 PGK      0.060700
     75 H371       11.8610    0.3330    6.5070 hc        1 PGK      0.048200
     76 H372       12.2880    2.0150    6.0030 hc        1 PGK      0.048200
     77 H361       11.6710    1.1140    8.9040 hc        1 PGK      0.040700
     78 H362       12.1380    2.7800    8.3870 hc        1 PGK      0.040700
     79 H351       14.3160    1.9000    7.4920 hc        1 PGK      0.043200
     80 H352       13.8460    0.2260    7.9770 hc        1 PGK      0.043200
     81 H341       14.1700    2.6490    9.8820 hc        1 PGK      0.039700
     82 H342       13.6520    0.9920   10.3790 hc        1 PGK      0.039700
     83 H331       15.8160    0.0470    9.4830 hc        1 PGK      0.056700
     84 H332       16.3300    1.7030    8.9860 hc        1 PGK      0.056700
     85 H321       16.2720    2.4830   11.3520 hc        1 PGK      0.076700
     86 H322       15.5960    0.8920   11.8930 hc        1 PGK      0.076700
     87 H2         20.1930    0.7430   11.5830 h1        1 PGK      0.079700
     88 H11        20.2790    3.1040   12.5940 h1        1 PGK      0.051700
     89 H12        19.8610    2.3920   14.2290 h1        1 PGK      0.051700
     90 H41        23.4590    3.3810   16.7250 h1        1 PGK      0.034200
     91 H42        21.9700    3.0880   17.7650 h1        1 PGK      0.034200
     92 H5         22.7130    0.4650   16.9800 h1        1 PGK      0.049700
     93 HO5        23.5380    0.5880   19.2310 ho        1 PGK      0.401000
     94 H61        24.9480    1.4520   16.1240 h1        1 PGK      0.086200
     95 H62        25.2830    1.9990   17.8500 h1        1 PGK      0.086200
     96 HO6        24.9240   -0.6500   16.9740 ho        1 PGK      0.399000
     97 H31        20.6770   -0.6830   13.4790 h1        1 PGK      0.068700
     98 H32        18.9270   -1.0170   12.9970 h1        1 PGK      0.068700
     99 H121       20.4450    1.0140   17.0890 hc        1 PGK      0.102700
    100 H122       18.6370    0.8930   16.9930 hc        1 PGK      0.102700
    101 H131       20.3770   -1.3780   18.1800 hc        1 PGK      0.043700
    102 H132       18.5910   -1.1540   18.3350 hc        1 PGK      0.043700
    103 H141       19.0150    1.0260   19.5880 hc        1 PGK      0.058200
    104 H142       20.7930    0.7030   19.4850 hc        1 PGK      0.058200
    105 H151       20.4520   -1.4820   20.7030 hc        1 PGK      0.033700
    106 H152       18.6820   -1.1470   20.8150 hc        1 PGK      0.033700
    107 H161       20.9330    0.6400   21.9720 hc        1 PGK      0.043200
    108 H162       19.1630    0.9710   22.0890 hc        1 PGK      0.043200
    109 H171       18.8360   -1.2080   23.3120 hc        1 PGK      0.036200
    110 H172       20.6070   -1.5370   23.1970 hc        1 PGK      0.036200
    111 H181       19.3130    0.9140   24.5830 hc        1 PGK      0.040200
    112 H182       21.0840    0.5850   24.4670 hc        1 PGK      0.040200
    113 H191       18.9880   -1.2630   25.8070 hc        1 PGK      0.037700
    114 H192       20.7590   -1.5920   25.6920 hc        1 PGK      0.037700
    115 H201       19.4650    0.8590   27.0770 hc        1 PGK      0.039700
    116 H202       21.2360    0.5300   26.9610 hc        1 PGK      0.039700
    117 H211       20.9120   -1.6470   28.1860 hc        1 PGK      0.038200
    118 H212       19.1400   -1.3180   28.3020 hc        1 PGK      0.038200
    119 H221       19.6180    0.8050   29.5710 hc        1 PGK      0.039200
    120 H222       21.3890    0.4750   29.4560 hc        1 PGK      0.039200
    121 H231       19.2930   -1.3720   30.7960 hc        1 PGK      0.038200
    122 H232       21.0640   -1.7010   30.6810 hc        1 PGK      0.038200
    123 H241       19.7710    0.7510   32.0660 hc        1 PGK      0.039200
    124 H242       21.5420    0.4210   31.9500 hc        1 PGK      0.039200
    125 H251       21.2160   -1.7550   33.1730 hc        1 PGK      0.037700
    126 H252       19.4460   -1.4250   33.2890 hc        1 PGK      0.037700
    127 H261       21.6950    0.3470   34.4740 hc        1 PGK      0.031367
    128 H262       19.9200    0.6780   34.5900 hc        1 PGK      0.031367
    129 H263       20.6220   -0.7860   35.3950 hc        1 PGK      0.031367
@<TRIPOS>BOND
     1    1    2 1   
     2    1   54 1   
     3    1   55 1   
     4    1   56 1   
     5    2    3 1   
     6    2   57 1   
     7    2   58 1   
     8    3    4 1   
     9    3   59 1   
    10    3   60 1   
    11    4    5 1   
    12    4   61 1   
    13    4   62 1   
    14    5    6 1   
    15    5   63 1   
    16    5   64 1   
    17    6    7 1   
    18    6   65 1   
    19    6   66 1   
    20    7    8 1   
    21    7   67 1   
    22    7   68 1   
    23    8    9 1   
    24    8   69 1   
    25    8   70 1   
    26    9   10 1   
    27    9   11 1   
    28    9   71 1   
    29   11   12 1   
    30   11   13 1   
    31   11   72 1   
    32   13   14 1   
    33   13   73 1   
    34   13   74 1   
    35   14   15 1   
    36   14   75 1   
    37   14   76 1   
    38   15   16 1   
    39   15   77 1   
    40   15   78 1   
    41   16   17 1   
    42   16   79 1   
    43   16   80 1   
    44   17   18 1   
    45   17   81 1   
    46   17   82 1   
    47   18   19 1   
    48   18   83 1   
    49   18   84 1   
    50   19   20 1   
    51   19   85 1   
    52   19   86 1   
    53   20   21 2   
    54   20   22 1   
    55   22   23 1   
    56   23   24 1   
    57   23   35 1   
    58   23   87 1   
    59   24   25 1   
    60   24   88 1   
    61   24   89 1   
    62   25   26 1   
    63   26   27 1   
    64   26   28 1   
    65   26   29 1   
    66   29   30 1   
    67   30   31 1   
    68   30   90 1   
    69   30   91 1   
    70   31   32 1   
    71   31   33 1   
    72   31   92 1   
    73   32   93 1   
    74   33   34 1   
    75   33   94 1   
    76   33   95 1   
    77   34   96 1   
    78   35   36 1   
    79   35   97 1   
    80   35   98 1   
    81   36   37 1   
    82   37   38 2   
    83   37   39 1   
    84   39   40 1   
    85   39   99 1   
    86   39  100 1   
    87   40   41 1   
    88   40  101 1   
    89   40  102 1   
    90   41   42 1   
    91   41  103 1   
    92   41  104 1   
    93   42   43 1   
    94   42  105 1   
    95   42  106 1   
    96   43   44 1   
    97   43  107 1   
    98   43  108 1   
    99   44   45 1   
   100   44  109 1   
   101   44  110 1   
   102   45   46 1   
   103   45  111 1   
   104   45  112 1   
   105   46   47 1   
   106   46  113 1   
   107   46  114 1   
   108   47   48 1   
   109   47  115 1   
   110   47  116 1   
   111   48   49 1   
   112   48  117 1   
   113   48  118 1   
   114   49   50 1   
   115   49  119 1   
   116   49  120 1   
   117   50   51 1   
   118   50  121 1   
   119   50  122 1   
   120   51   52 1   
   121   51  123 1   
   122   51  124 1   
   123   52   53 1   
   124   52  125 1   
   125   52  126 1   
   126   53  127 1   
   127   53  128 1   
   128   53  129 1   
@<TRIPOS>SUBSTRUCTURE
     1 PGK         1 TEMP              0 ****  ****    0 ROOT
