@<TRIPOS>MOLECULE
PGL
   10     9     1     0     0
SMALL
bcc


@<TRIPOS>ATOM
      1 N           2.3670   -0.1020    0.0200 n3        1 PGL     -0.900800
      2 C           1.2120   -0.4390   -0.7610 c3        1 PGL     -0.063400
      3 P          -0.3440   -0.0050    0.0900 p5        1 PGL      1.204700
      4 O1          0.0520    0.1000    1.5510 o         1 PGL     -0.956167
      5 O2         -0.7790    1.2940   -0.5470 o         1 PGL     -0.956167
      6 HN1         2.0400    0.2430    0.9160 hn        1 PGL      0.309300
      7 HN2         2.9060   -0.9300    0.2160 hn        1 PGL      0.309300
      8 H1          1.2570    0.1280   -1.7220 h1        1 PGL      0.004700
      9 H2          1.1540   -1.5270   -1.0080 h1        1 PGL      0.004700
     10 O3         -1.2240   -1.1950   -0.2290 o         1 PGL     -0.956167
@<TRIPOS>BOND
     1    1    2 1   
     2    1    6 1   
     3    1    7 1   
     4    2    3 1   
     5    2    8 1   
     6    2    9 1   
     7    3    4 1   
     8    3    5 1   
     9    3   10 1   
@<TRIPOS>SUBSTRUCTURE
     1 PGL         1 TEMP              0 ****  ****    0 ROOT
