@<TRIPOS>MOLECULE
PGN
   38    40     1     0     0
SMALL
bcc


@<TRIPOS>ATOM
      1 P1          1.4290   -2.2290   -3.1480 p5        1 PGN      1.322900
      2 O4P         0.2190   -3.0390   -2.7560 o         1 PGN     -0.941167
      3 O5P         2.7420   -2.9540   -2.9970 o         1 PGN     -0.941167
      4 O6P         1.2700   -1.4270   -4.4150 o         1 PGN     -0.941167
      5 P           3.4150    4.6820   -2.2280 p5        1 PGN      1.444800
      6 OP1         4.8210    5.1110   -2.0200 o         1 PGN     -0.868500
      7 OP2         2.6030    4.9080   -0.8310 oh        1 PGN     -0.807400
      8 OP3         2.6140    5.2420   -3.3420 o         1 PGN     -0.868500
      9 O5'         3.3520    3.0460   -2.2400 os        1 PGN     -0.607200
     10 C5'         2.1500    2.4100   -2.5940 c3        1 PGN      0.178400
     11 C4'         1.7740    1.3490   -1.5540 c3        1 PGN      0.086100
     12 O4'         1.0520    2.0040   -0.4880 os        1 PGN     -0.466600
     13 C3'         0.8970    0.1810   -2.1190 c3        1 PGN      0.210100
     14 O3'         1.5140   -1.0240   -1.9000 os        1 PGN     -0.568200
     15 C2'        -0.4230    0.3160   -1.3170 c3        1 PGN     -0.132400
     16 C1'        -0.0550    1.1600   -0.0850 c3        1 PGN      0.263800
     17 N9         -1.1240    1.9380    0.5100 nh        1 PGN     -0.086600
     18 C8         -2.3960    2.2510   -0.0060 c1        1 PGN      0.067400
     19 N7         -3.1580    2.9150    0.9250 ne        1 PGN     -0.642000
     20 C5         -2.3840    3.0400    2.0580 cc        1 PGN     -0.042600
     21 C6         -2.6480    3.6370    3.3470 c         1 PGN      0.716700
     22 O6         -3.6960    4.1990    3.7640 o         1 PGN     -0.761500
     23 N1         -1.5860    3.5680    4.2670 n         1 PGN     -0.468400
     24 C2         -0.3490    2.9590    3.9480 cc        1 PGN      0.424800
     25 N2          0.6500    2.9900    5.0060 nh        1 PGN     -0.855800
     26 N3         -0.0710    2.3870    2.7680 nd        1 PGN     -0.536300
     27 C4         -1.0740    2.4280    1.8330 cd        1 PGN      0.000500
     28 H5'         1.3370    3.1790   -2.6990 h1        1 PGN      0.038700
     29 H5''        2.3090    1.8820   -3.5760 h1        1 PGN      0.038700
     30 H4'         2.7080    0.9270   -1.0940 h1        1 PGN      0.065700
     31 H3'         0.7010    0.3230   -3.2210 h1        1 PGN      0.070700
     32 H2'        -1.2030    0.8230   -1.9320 hc        1 PGN      0.062700
     33 H2''       -0.7970   -0.6860   -1.0040 hc        1 PGN      0.062700
     34 H1'         0.3530    0.4860    0.7310 h2        1 PGN      0.035700
     35 H8          2.0360    4.1820   -0.5830 ho        1 PGN      0.455000
     36 HN1        -1.7060    3.9830    5.1590 hn        1 PGN      0.290500
     37 HN21        1.0520    2.0730    5.0890 hn        1 PGN      0.348300
     38 HN22        1.3810    3.6190    4.7200 hn        1 PGN      0.348300
@<TRIPOS>BOND
     1    1    2 1   
     2    1    3 1   
     3    1    4 1   
     4    1   14 1   
     5    5    6 1   
     6    5    7 1   
     7    5    8 1   
     8    5    9 1   
     9    7   35 1   
    10    9   10 1   
    11   10   11 1   
    12   10   28 1   
    13   10   29 1   
    14   11   12 1   
    15   11   13 1   
    16   11   30 1   
    17   12   16 1   
    18   13   14 1   
    19   13   15 1   
    20   13   31 1   
    21   15   16 1   
    22   15   32 1   
    23   15   33 1   
    24   16   17 1   
    25   16   34 1   
    26   17   18 2   
    27   17   27 1   
    28   18   19 2   
    29   19   20 1   
    30   20   21 1   
    31   20   27 2   
    32   21   22 2   
    33   21   23 1   
    34   23   24 1   
    35   23   36 1   
    36   24   25 1   
    37   24   26 2   
    38   25   37 1   
    39   25   38 1   
    40   26   27 1   
@<TRIPOS>SUBSTRUCTURE
     1 PGN         1 TEMP              0 ****  ****    0 ROOT
