@<TRIPOS>MOLECULE
PGO
   13    12     1     0     0
SMALL
bcc


@<TRIPOS>ATOM
      1 C1          0.9880    0.0870   -0.6020 c3        1 PGO      0.095400
      2 C2         -0.5330    0.0140   -0.3980 c3        1 PGO      0.100100
      3 C3         -1.1260    1.3830   -0.1340 c3        1 PGO     -0.126100
      4 O1          1.6640   -0.7460    0.3180 oh        1 PGO     -0.601800
      5 O2         -0.8340   -0.8920    0.6510 oh        1 PGO     -0.601800
      6 H11         1.2530   -0.2030   -1.6530 h1        1 PGO      0.050200
      7 H12         1.3830    1.1170   -0.3930 h1        1 PGO      0.050200
      8 H2         -1.0230   -0.4520   -1.3000 h1        1 PGO      0.075700
      9 H31        -0.9390    2.0550   -1.0040 hc        1 PGO      0.045700
     10 H32        -2.2270    1.2960    0.0290 hc        1 PGO      0.045700
     11 H33        -0.6690    1.8390    0.7780 hc        1 PGO      0.045700
     12 HO1         1.2950   -1.6350    0.2260 ho        1 PGO      0.413000
     13 HO2        -0.4250   -0.5460    1.4550 ho        1 PGO      0.410000
@<TRIPOS>BOND
     1    1    2 1   
     2    1    4 1   
     3    1    6 1   
     4    1    7 1   
     5    2    3 1   
     6    2    5 1   
     7    2    8 1   
     8    3    9 1   
     9    3   10 1   
    10    3   11 1   
    11    4   12 1   
    12    5   13 1   
@<TRIPOS>SUBSTRUCTURE
     1 PGO         1 TEMP              0 ****  ****    0 ROOT
