@<TRIPOS>MOLECULE
PGO
   13    12     1     0     0
SMALL
bcc


@<TRIPOS>ATOM
      1 C1         -0.1340   -0.1510    0.0820 c3        1 PGO      0.137400
      2 C2          1.3930   -0.0570   -0.0340 c3        1 PGO      0.098100
      3 C3          2.0550   -0.0380    1.3290 c3        1 PGO     -0.130100
      4 O1         -0.6860    0.9770    0.7280 oh        1 PGO     -0.599800
      5 O2          1.6430    1.1460   -0.7560 oh        1 PGO     -0.613800
      6 H11        -0.4160   -1.0260    0.7240 h1        1 PGO      0.050700
      7 H12        -0.5780   -0.2620   -0.9420 h1        1 PGO      0.050700
      8 H2          1.7740   -0.9270   -0.6380 h1        1 PGO      0.039700
      9 H31         1.6270    0.7900    1.9460 hc        1 PGO      0.047700
     10 H32         1.8730   -1.0060    1.8530 hc        1 PGO      0.047700
     11 H33         3.1550    0.1170    1.2290 hc        1 PGO      0.047700
     12 HO1        -0.3680    1.7570    0.2530 ho        1 PGO      0.416000
     13 HO2         2.5880    1.3270   -0.6880 ho        1 PGO      0.407000
@<TRIPOS>BOND
     1    1    2 1   
     2    1    4 1   
     3    1    6 1   
     4    1    7 1   
     5    2    3 1   
     6    2    5 1   
     7    2    8 1   
     8    3    9 1   
     9    3   10 1   
    10    3   11 1   
    11    4   12 1   
    12    5   13 1   
@<TRIPOS>SUBSTRUCTURE
     1 PGO         1 TEMP              0 ****  ****    0 ROOT
