@<TRIPOS>MOLECULE
PGO
   13    12     1     0     0
SMALL
bcc


@<TRIPOS>ATOM
      1 C1         -0.1450   -0.1190    0.0920 c3        1 PGO      0.137400
      2 C2          1.3820   -0.0620   -0.0380 c3        1 PGO      0.098100
      3 C3          2.0570   -0.0670    1.3190 c3        1 PGO     -0.130100
      4 O1         -0.6620    1.0190    0.7480 oh        1 PGO     -0.599800
      5 O2          1.6560    1.1370   -0.7570 oh        1 PGO     -0.613800
      6 H11        -0.4440   -0.9900    0.7320 h1        1 PGO      0.050700
      7 H12        -0.6020   -0.2130   -0.9290 h1        1 PGO      0.050700
      8 H2          1.7360   -0.9400   -0.6500 h1        1 PGO      0.039700
      9 H31         1.6560    0.7680    1.9430 hc        1 PGO      0.047700
     10 H32         1.8560   -1.0320    1.8400 hc        1 PGO      0.047700
     11 H33         3.1600    0.0600    1.2090 hc        1 PGO      0.047700
     12 HO1        -0.3300    1.7930    0.2740 ho        1 PGO      0.416000
     13 HO2         2.6050    1.2940   -0.6980 ho        1 PGO      0.407000
@<TRIPOS>BOND
     1    1    2 1   
     2    1    4 1   
     3    1    6 1   
     4    1    7 1   
     5    2    3 1   
     6    2    5 1   
     7    2    8 1   
     8    3    9 1   
     9    3   10 1   
    10    3   11 1   
    11    4   12 1   
    12    5   13 1   
@<TRIPOS>SUBSTRUCTURE
     1 PGO         1 TEMP              0 ****  ****    0 ROOT
