@<TRIPOS>MOLECULE
PGQ
   13    12     1     0     0
SMALL
bcc


@<TRIPOS>ATOM
      1 C1          0.0590    0.0590   -0.0240 c3        1 PGQ      0.089400
      2 C2          1.5790   -0.1240    0.0600 c3        1 PGQ      0.144100
      3 C3          2.0480   -0.0360    1.4990 c3        1 PGQ     -0.095100
      4 O1         -0.2800   -0.0520   -1.3970 oh        1 PGQ     -0.612800
      5 O2          2.2430    0.9020   -0.6630 oh        1 PGQ     -0.602800
      6 H11        -0.2330    1.0690    0.3670 h1        1 PGQ      0.034200
      7 H12        -0.4620   -0.7390    0.5680 h1        1 PGQ      0.034200
      8 H2          1.8510   -1.1230   -0.3850 h1        1 PGQ      0.044700
      9 H31         1.5850   -0.8560    2.0960 hc        1 PGQ      0.046367
     10 H32         1.7650    0.9490    1.9420 hc        1 PGQ      0.046367
     11 H33         3.1590   -0.1330    1.5380 hc        1 PGQ      0.046367
     12 HO1        -1.2190    0.1510   -1.4710 ho        1 PGQ      0.407000
     13 HO2         1.8730    0.8920   -1.5560 ho        1 PGQ      0.416000
@<TRIPOS>BOND
     1    1    2 1   
     2    1    4 1   
     3    1    6 1   
     4    1    7 1   
     5    2    3 1   
     6    2    5 1   
     7    2    8 1   
     8    3    9 1   
     9    3   10 1   
    10    3   11 1   
    11    4   12 1   
    12    5   13 1   
@<TRIPOS>SUBSTRUCTURE
     1 PGQ         1 TEMP              0 ****  ****    0 ROOT
