@<TRIPOS>MOLECULE
PGQ
   13    12     1     0     0
SMALL
bcc


@<TRIPOS>ATOM
      1 C1         -0.3490    0.4520   -0.8090 c3        1 PGQ      0.095400
      2 C2          0.2340   -0.1190    0.4910 c3        1 PGQ      0.136100
      3 C3         -0.8460   -0.3140    1.5350 c3        1 PGQ     -0.126100
      4 O1         -1.1050   -0.5820   -1.4150 oh        1 PGQ     -0.597800
      5 O2          1.2720    0.7290    0.9530 oh        1 PGQ     -0.594800
      6 H11        -1.0090    1.3330   -0.5910 h1        1 PGQ      0.028200
      7 H12         0.4860    0.7770   -1.4850 h1        1 PGQ      0.028200
      8 H2          0.7510   -1.0960    0.2710 h1        1 PGQ      0.090700
      9 H31        -0.4110   -0.7660    2.4570 hc        1 PGQ      0.046700
     10 H32        -1.3150    0.6630    1.8050 hc        1 PGQ      0.046700
     11 H33        -1.6350   -0.9910    1.1280 hc        1 PGQ      0.046700
     12 HO1        -1.3910   -0.2450   -2.2720 ho        1 PGQ      0.403000
     13 HO2         0.8620    1.5500    1.2500 ho        1 PGQ      0.396000
@<TRIPOS>BOND
     1    1    2 1   
     2    1    4 1   
     3    1    6 1   
     4    1    7 1   
     5    2    3 1   
     6    2    5 1   
     7    2    8 1   
     8    3    9 1   
     9    3   10 1   
    10    3   11 1   
    11    4   12 1   
    12    5   13 1   
@<TRIPOS>SUBSTRUCTURE
     1 PGQ         1 TEMP              0 ****  ****    0 ROOT
