@<TRIPOS>MOLECULE
PGQ
   13    12     1     0     0
SMALL
bcc


@<TRIPOS>ATOM
      1 C1          0.0610    0.0570   -0.0310 c3        1 PGQ      0.089400
      2 C2          1.5800   -0.1270    0.0670 c3        1 PGQ      0.144100
      3 C3          2.0380   -0.0170    1.5080 c3        1 PGQ     -0.095100
      4 O1         -0.2680   -0.0750   -1.4050 oh        1 PGQ     -0.612800
      5 O2          2.2510    0.8870   -0.6670 oh        1 PGQ     -0.602800
      6 H11        -0.2330    1.0740    0.3420 h1        1 PGQ      0.034200
      7 H12        -0.4660   -0.7300    0.5690 h1        1 PGQ      0.034200
      8 H2          1.8540   -1.1320   -0.3610 h1        1 PGQ      0.044700
      9 H31         1.5690   -0.8280    2.1140 hc        1 PGQ      0.046367
     10 H32         1.7530    0.9740    1.9340 hc        1 PGQ      0.046367
     11 H33         3.1490   -0.1150    1.5570 hc        1 PGQ      0.046367
     12 HO1        -1.2060    0.1280   -1.4890 ho        1 PGQ      0.407000
     13 HO2         1.8880    0.8640   -1.5620 ho        1 PGQ      0.416000
@<TRIPOS>BOND
     1    1    2 1   
     2    1    4 1   
     3    1    6 1   
     4    1    7 1   
     5    2    3 1   
     6    2    5 1   
     7    2    8 1   
     8    3    9 1   
     9    3   10 1   
    10    3   11 1   
    11    4   12 1   
    12    5   13 1   
@<TRIPOS>SUBSTRUCTURE
     1 PGQ         1 TEMP              0 ****  ****    0 ROOT
