@<TRIPOS>MOLECULE
PGR
   13    12     1     0     0
SMALL
bcc


@<TRIPOS>ATOM
      1 C1         -0.3560   -0.4630   -0.8050 c3        1 PGR      0.095400
      2 C2          0.2400    0.1010    0.4910 c3        1 PGR      0.136100
      3 C3         -0.8380    0.3460    1.5270 c3        1 PGR     -0.126100
      4 O1         -1.0710    0.5900   -1.4270 oh        1 PGR     -0.597800
      5 O2          1.2440   -0.7790    0.9690 oh        1 PGR     -0.594800
      6 H11         0.4710   -0.8260   -1.4720 h1        1 PGR      0.028200
      7 H12        -1.0490   -1.3180   -0.5810 h1        1 PGR      0.028200
      8 H2          0.7940    1.0560    0.2630 h1        1 PGR      0.090700
      9 H31        -0.3910    0.7930    2.4470 hc        1 PGR      0.046700
     10 H32        -1.5990    1.0470    1.1080 hc        1 PGR      0.046700
     11 H33        -1.3430   -0.6100    1.8060 hc        1 PGR      0.046700
     12 HO1        -1.3650    0.2540   -2.2820 ho        1 PGR      0.403000
     13 HO2         0.8040   -1.5820    1.2730 ho        1 PGR      0.396000
@<TRIPOS>BOND
     1    1    2 1   
     2    1    4 1   
     3    1    6 1   
     4    1    7 1   
     5    2    3 1   
     6    2    5 1   
     7    2    8 1   
     8    3    9 1   
     9    3   10 1   
    10    3   11 1   
    11    4   12 1   
    12    5   13 1   
@<TRIPOS>SUBSTRUCTURE
     1 PGR         1 TEMP              0 ****  ****    0 ROOT
