@<TRIPOS>MOLECULE
PGR
   13    12     1     0     0
SMALL
bcc


@<TRIPOS>ATOM
      1 C1          0.0680   -0.0440   -0.0210 c3        1 PGR      0.089400
      2 C2          1.5900    0.1160    0.0630 c3        1 PGR      0.144100
      3 C3          2.0550    0.0510    1.5050 c3        1 PGR     -0.095100
      4 O1         -0.2660    0.0440   -1.3970 oh        1 PGR     -0.612800
      5 O2          2.2390   -0.9360   -0.6360 oh        1 PGR     -0.602800
      6 H11        -0.4410    0.7750    0.5520 h1        1 PGR      0.034200
      7 H12        -0.2420   -1.0410    0.3910 h1        1 PGR      0.034200
      8 H2          1.8800    1.1000   -0.4030 h1        1 PGR      0.044700
      9 H31         1.7550   -0.9190    1.9680 hc        1 PGR      0.046367
     10 H32         1.6030    0.8910    2.0830 hc        1 PGR      0.046367
     11 H33         3.1670    0.1310    1.5450 hc        1 PGR      0.046367
     12 HO1        -1.2080   -0.1450   -1.4690 ho        1 PGR      0.407000
     13 HO2         1.8720   -0.9390   -1.5300 ho        1 PGR      0.416000
@<TRIPOS>BOND
     1    1    2 1   
     2    1    4 1   
     3    1    6 1   
     4    1    7 1   
     5    2    3 1   
     6    2    5 1   
     7    2    8 1   
     8    3    9 1   
     9    3   10 1   
    10    3   11 1   
    11    4   12 1   
    12    5   13 1   
@<TRIPOS>SUBSTRUCTURE
     1 PGR         1 TEMP              0 ****  ****    0 ROOT
