@<TRIPOS>MOLECULE
PGR
   13    12     1     0     0
SMALL
bcc


@<TRIPOS>ATOM
      1 C1          0.0710   -0.0470   -0.0340 c3        1 PGR      0.089400
      2 C2          1.5900    0.1270    0.0780 c3        1 PGR      0.144100
      3 C3          2.0350    0.0130    1.5220 c3        1 PGR     -0.095100
      4 O1         -0.2450    0.0890   -1.4110 oh        1 PGR     -0.612800
      5 O2          2.2610   -0.8910   -0.6510 oh        1 PGR     -0.602800
      6 H11        -0.4560    0.7430    0.5620 h1        1 PGR      0.034200
      7 H12        -0.2320   -1.0620    0.3350 h1        1 PGR      0.034200
      8 H2          1.8750    1.1310   -0.3470 h1        1 PGR      0.044700
      9 H31         1.7400   -0.9770    1.9440 hc        1 PGR      0.046367
     10 H32         1.5660    0.8260    2.1250 hc        1 PGR      0.046367
     11 H33         3.1460    0.1030    1.5810 hc        1 PGR      0.046367
     12 HO1        -1.1840   -0.1080   -1.5030 ho        1 PGR      0.407000
     13 HO2         1.9060   -0.8640   -1.5500 ho        1 PGR      0.416000
@<TRIPOS>BOND
     1    1    2 1   
     2    1    4 1   
     3    1    6 1   
     4    1    7 1   
     5    2    3 1   
     6    2    5 1   
     7    2    8 1   
     8    3    9 1   
     9    3   10 1   
    10    3   11 1   
    11    4   12 1   
    12    5   13 1   
@<TRIPOS>SUBSTRUCTURE
     1 PGR         1 TEMP              0 ****  ****    0 ROOT
