@<TRIPOS>MOLECULE
PGS
   38    39     1     0     0
SMALL
bcc


@<TRIPOS>ATOM
      1 PA         -0.9330   -0.5570   -1.1010 p5        1 PGS      1.336900
      2 O1A         0.3100   -0.8620   -0.3180 o         1 PGS     -0.931833
      3 O2A        -2.2030   -1.2470   -0.7040 o         1 PGS     -0.931833
      4 O3A        -0.7050   -0.3740   -2.5900 o         1 PGS     -0.931833
      5 O5'        -1.2310    1.1070   -0.6870 os        1 PGS     -0.561200
      6 C5'        -0.1990    1.9540   -0.9870 c3        1 PGS      0.236400
      7 C4'        -0.5310    2.7720   -2.2590 c3        1 PGS      0.063100
      8 O4'        -0.0340    4.1240   -2.1050 os        1 PGS     -0.439600
      9 C3'         0.0660    2.1870   -3.5510 c3        1 PGS      0.131100
     10 O3'        -0.9450    1.6550   -4.3750 oh        1 PGS     -0.691800
     11 C2'         0.7270    3.3750   -4.2840 c3        1 PGS      0.100100
     12 O2'         0.1970    3.6670   -5.5560 oh        1 PGS     -0.611800
     13 C1'         0.4940    4.6040   -3.3400 c3        1 PGS      0.215800
     14 N9          1.6900    5.3840   -3.0650 na        1 PGS     -0.180900
     15 C8          2.7360    5.0690   -2.1710 cc        1 PGS      0.436400
     16 N7          3.7020    6.0090   -2.1160 nd        1 PGS     -0.623000
     17 C5          3.2910    7.0100   -3.0010 cd        1 PGS      0.237800
     18 C6          3.8980    8.2600   -3.3740 c         1 PGS      0.368900
     19 S6          5.3040    8.8500   -2.8300 s         1 PGS     -0.587400
     20 P           5.9640   11.1570   -3.8010 p4        1 PGS      1.540300
     21 O1P         7.2260   10.7630   -4.4590 o         1 PGS     -0.825167
     22 O2P         4.7360   11.2580   -4.6520 o         1 PGS     -0.825167
     23 O3P         5.9940   11.9240   -2.5410 o         1 PGS     -0.873967
     24 N1          3.1610    8.9980   -4.2980 n         1 PGS     -0.414400
     25 C2          1.9550    8.5570   -4.8000 cd        1 PGS      0.455800
     26 N3          1.3290    7.4210   -4.5110 nc        1 PGS     -0.599100
     27 C4          2.0120    6.6310   -3.5990 cc        1 PGS      0.067800
     28 H5'1       -0.0580    2.6960   -0.1470 h1        1 PGS      0.003200
     29 H5'2        0.7620    1.3870   -1.1400 h1        1 PGS      0.003200
     30 H4'        -1.6480    2.8570   -2.3590 h1        1 PGS      0.066700
     31 H3'         0.8220    1.3870   -3.3170 h1        1 PGS      0.104700
     32 HO3'       -1.1790    0.7800   -3.9730 ho        1 PGS      0.518000
     33 H2'         1.8200    3.1830   -4.4540 h1        1 PGS      0.067700
     34 HO2'       -0.7000    3.3070   -5.5970 ho        1 PGS      0.426000
     35 H1'        -0.2640    5.3060   -3.8010 h2        1 PGS      0.079700
     36 H8          2.7040    4.1400   -1.5850 h5        1 PGS      0.087100
     37 HN1         3.5680    9.9100   -4.5920 hn        1 PGS      0.434500
     38 H2          1.4590    9.2350   -5.5260 h5        1 PGS      0.047800
@<TRIPOS>BOND
     1    1    2 1   
     2    1    3 1   
     3    1    4 1   
     4    1    5 1   
     5    5    6 1   
     6    6    7 1   
     7    6   28 1   
     8    6   29 1   
     9    7    8 1   
    10    7    9 1   
    11    7   30 1   
    12    8   13 1   
    13    9   10 1   
    14    9   11 1   
    15    9   31 1   
    16   10   32 1   
    17   11   12 1   
    18   11   13 1   
    19   11   33 1   
    20   12   34 1   
    21   13   14 1   
    22   13   35 1   
    23   14   15 1   
    24   14   27 1   
    25   15   16 2   
    26   15   36 1   
    27   16   17 1   
    28   17   18 1   
    29   17   27 2   
    30   18   19 2   
    31   18   24 1   
    32   20   21 1   
    33   20   22 1   
    34   20   23 2   
    35   24   25 1   
    36   24   37 1   
    37   25   26 2   
    38   25   38 1   
    39   26   27 1   
@<TRIPOS>SUBSTRUCTURE
     1 PGS         1 TEMP              0 ****  ****    0 ROOT
