@<TRIPOS>MOLECULE
PGS
   38    39     1     0     0
SMALL
bcc


@<TRIPOS>ATOM
      1 PA         -6.2860   -0.2360   -0.2620 p5        1 PGS      1.331900
      2 O1A        -5.5550   -1.3140   -1.0110 o         1 PGS     -0.929833
      3 O2A        -7.6510   -0.5430    0.2730 o         1 PGS     -0.929833
      4 O3A        -6.0740    1.1440   -0.8550 o         1 PGS     -0.929833
      5 O5'        -5.3170   -0.0720    1.1730 os        1 PGS     -0.565200
      6 C5'        -3.9680   -0.2470    1.0180 c3        1 PGS      0.214400
      7 C4'        -3.2560    1.1180    0.8480 c3        1 PGS      0.064100
      8 O4'        -1.8600    1.0040    1.2100 os        1 PGS     -0.439600
      9 C3'        -3.3530    1.6280   -0.6010 c3        1 PGS      0.097100
     10 O3'        -3.9650    2.9000   -0.6410 oh        1 PGS     -0.685800
     11 C2'        -1.9030    1.7440   -1.1020 c3        1 PGS      0.108100
     12 O2'        -1.5590    2.9820   -1.6820 oh        1 PGS     -0.614800
     13 C1'        -1.0240    1.5150    0.1750 c3        1 PGS      0.215800
     14 N9          0.0960    0.6080   -0.0260 na        1 PGS     -0.179900
     15 C8          0.0470   -0.7790   -0.2830 cc        1 PGS      0.439400
     16 N7          1.2630   -1.3540   -0.3780 nd        1 PGS     -0.624000
     17 C5          2.1780   -0.3190   -0.1630 cd        1 PGS      0.238800
     18 C6          3.6160   -0.3070   -0.1420 c         1 PGS      0.369900
     19 S6          4.6000   -1.5720   -0.3830 s         1 PGS     -0.592400
     20 P           7.1260   -1.0320   -0.2340 p4        1 PGS      1.541300
     21 O1P         7.5130   -1.4080   -1.6090 o         1 PGS     -0.825500
     22 O2P         6.9000    0.4200    0.0550 o         1 PGS     -0.825500
     23 O3P         7.4730   -1.9130    0.8980 o         1 PGS     -0.874300
     24 N1          4.1720    0.9440    0.1170 n         1 PGS     -0.414400
     25 C2          3.3980    2.0640    0.3330 cd        1 PGS      0.453800
     26 N3          2.0710    2.1390    0.3290 nc        1 PGS     -0.601100
     27 C4          1.4500    0.9260    0.0740 cc        1 PGS      0.067800
     28 H5'1       -3.7420   -0.9030    0.1290 h1        1 PGS      0.008700
     29 H5'2       -3.5430   -0.7260    1.9480 h1        1 PGS      0.008700
     30 H4'        -3.6950    1.8670    1.5600 h1        1 PGS      0.063700
     31 H3'        -3.9810    0.8970   -1.2070 h1        1 PGS      0.157700
     32 HO3'       -4.9270    2.7140   -0.7420 ho        1 PGS      0.502000
     33 H2'        -1.6940    0.9730   -1.8910 h1        1 PGS      0.075700
     34 HO2'       -2.1880    3.6450   -1.3650 ho        1 PGS      0.424000
     35 H1'        -0.5960    2.4990    0.5310 h2        1 PGS      0.079700
     36 H8         -0.9210   -1.2940   -0.3770 h5        1 PGS      0.092100
     37 HN1         5.2110    0.9930    0.1410 hn        1 PGS      0.433500
     38 H2          3.9550    3.0030    0.5320 h5        1 PGS      0.045800
@<TRIPOS>BOND
     1    1    2 1   
     2    1    3 1   
     3    1    4 1   
     4    1    5 1   
     5    5    6 1   
     6    6    7 1   
     7    6   28 1   
     8    6   29 1   
     9    7    8 1   
    10    7    9 1   
    11    7   30 1   
    12    8   13 1   
    13    9   10 1   
    14    9   11 1   
    15    9   31 1   
    16   10   32 1   
    17   11   12 1   
    18   11   13 1   
    19   11   33 1   
    20   12   34 1   
    21   13   14 1   
    22   13   35 1   
    23   14   15 1   
    24   14   27 1   
    25   15   16 2   
    26   15   36 1   
    27   16   17 1   
    28   17   18 1   
    29   17   27 2   
    30   18   19 2   
    31   18   24 1   
    32   20   21 1   
    33   20   22 1   
    34   20   23 2   
    35   24   25 1   
    36   24   37 1   
    37   25   26 2   
    38   25   38 1   
    39   26   27 1   
@<TRIPOS>SUBSTRUCTURE
     1 PGS         1 TEMP              0 ****  ****    0 ROOT
