@<TRIPOS>MOLECULE
PGS
   38    39     1     0     0
SMALL
bcc


@<TRIPOS>ATOM
      1 PA         -0.8550   -0.6150   -1.1670 p5        1 PGS      1.336900
      2 O1A         0.4230   -0.9480   -0.4550 o         1 PGS     -0.931833
      3 O2A        -2.1060   -1.3150   -0.7320 o         1 PGS     -0.931833
      4 O3A        -0.6980   -0.3830   -2.6580 o         1 PGS     -0.931833
      5 O5'        -1.1260    1.0350   -0.6840 os        1 PGS     -0.561200
      6 C5'        -0.1060    1.8900   -1.0060 c3        1 PGS      0.236400
      7 C4'        -0.4970    2.7500   -2.2330 c3        1 PGS      0.063100
      8 O4'         0.0120    4.0960   -2.0580 os        1 PGS     -0.439600
      9 C3'         0.0350    2.2060   -3.5710 c3        1 PGS      0.131100
     10 O3'        -1.0160    1.7040   -4.3620 oh        1 PGS     -0.691800
     11 C2'         0.6650    3.4170   -4.2950 c3        1 PGS      0.100100
     12 O2'         0.0750    3.7520   -5.5300 oh        1 PGS     -0.611800
     13 C1'         0.4820    4.6150   -3.3000 c3        1 PGS      0.215800
     14 N9          1.6930    5.3820   -3.0590 na        1 PGS     -0.180900
     15 C8          2.7790    5.0360   -2.2260 cc        1 PGS      0.436400
     16 N7          3.7500    5.9710   -2.1870 nd        1 PGS     -0.623000
     17 C5          3.3020    7.0020   -3.0180 cd        1 PGS      0.237800
     18 C6          3.8950    8.2620   -3.3780 c         1 PGS      0.368900
     19 S6          5.3270    8.8300   -2.8840 s         1 PGS     -0.587400
     20 P           5.9490   11.1660   -3.8100 p4        1 PGS      1.540300
     21 O1P         7.1760   10.7910   -4.5390 o         1 PGS     -0.825167
     22 O2P         4.6820   11.2990   -4.5960 o         1 PGS     -0.825167
     23 O3P         6.0430   11.8910   -2.5270 o         1 PGS     -0.873967
     24 N1          3.1170    9.0320   -4.2410 ns        1 PGS     -0.414400
     25 C2          1.8870    8.6100   -4.6980 cd        1 PGS      0.455800
     26 N3          1.2710    7.4660   -4.4180 nc        1 PGS     -0.599100
     27 C4          1.9940    6.6460   -3.5660 cc        1 PGS      0.067800
     28 H5'1        0.0770    2.6040   -0.1500 h1        1 PGS      0.003200
     29 H5'2        0.8440    1.3260   -1.2240 h1        1 PGS      0.003200
     30 H4'        -1.6170    2.8410   -2.2760 h1        1 PGS      0.066700
     31 H3'         0.7990    1.3990   -3.4000 h1        1 PGS      0.104700
     32 HO3'       -1.2330    0.8170   -3.9780 ho        1 PGS      0.518000
     33 H2'         1.7470    3.2290   -4.5230 h1        1 PGS      0.067700
     34 HO2'       -0.8240    3.3950   -5.5390 ho        1 PGS      0.426000
     35 H1'        -0.2940    5.3330   -3.7010 h2        1 PGS      0.079700
     36 H8          2.7720    4.0880   -1.6700 h5        1 PGS      0.087100
     37 HN1         3.5130    9.9520   -4.5240 hn        1 PGS      0.434500
     38 H2          1.3600    9.3130   -5.3770 h5        1 PGS      0.047800
@<TRIPOS>BOND
     1    1    2 1   
     2    1    3 1   
     3    1    4 1   
     4    1    5 1   
     5    5    6 1   
     6    6    7 1   
     7    6   28 1   
     8    6   29 1   
     9    7    8 1   
    10    7    9 1   
    11    7   30 1   
    12    8   13 1   
    13    9   10 1   
    14    9   11 1   
    15    9   31 1   
    16   10   32 1   
    17   11   12 1   
    18   11   13 1   
    19   11   33 1   
    20   12   34 1   
    21   13   14 1   
    22   13   35 1   
    23   14   15 1   
    24   14   27 1   
    25   15   16 2   
    26   15   36 1   
    27   16   17 1   
    28   17   18 1   
    29   17   27 2   
    30   18   19 2   
    31   18   24 1   
    32   20   21 1   
    33   20   22 1   
    34   20   23 2   
    35   24   25 1   
    36   24   37 1   
    37   25   26 2   
    38   25   38 1   
    39   26   27 1   
@<TRIPOS>SUBSTRUCTURE
     1 PGS         1 TEMP              0 ****  ****    0 ROOT
