@<TRIPOS>MOLECULE
PGT
  129   128     1     0     0
SMALL
bcc


@<TRIPOS>ATOM
      1 C48        -0.2420    0.6430    1.2510 c3        1 PGT     -0.092100
      2 C47         1.2600    0.7560    1.2060 c3        1 PGT     -0.080400
      3 C46         1.8820    0.4400    2.5490 c3        1 PGT     -0.079400
      4 C45         3.3900    0.5550    2.4990 c3        1 PGT     -0.079400
      5 C44         4.0110    0.2380    3.8430 c3        1 PGT     -0.078400
      6 C43         5.5190    0.3540    3.7930 c3        1 PGT     -0.079400
      7 C42         6.1400    0.0360    5.1360 c3        1 PGT     -0.078400
      8 C41         7.6480    0.1530    5.0860 c3        1 PGT     -0.079400
      9 C40         8.2700   -0.1660    6.4290 c3        1 PGT     -0.078400
     10 C39         9.7780   -0.0480    6.3790 c3        1 PGT     -0.079400
     11 C38        10.4000   -0.3690    7.7210 c3        1 PGT     -0.078400
     12 C37        11.9080   -0.2510    7.6700 c3        1 PGT     -0.079400
     13 C36        12.5300   -0.5740    9.0120 c3        1 PGT     -0.078400
     14 C35        14.0380   -0.4560    8.9600 c3        1 PGT     -0.079400
     15 C34        14.6610   -0.7830   10.3000 c3        1 PGT     -0.078400
     16 C33        16.1690   -0.6580   10.2450 c3        1 PGT     -0.079400
     17 C32        16.7870   -1.0080   11.5820 c3        1 PGT     -0.129400
     18 C31        18.2660   -0.7530   11.5710 c         1 PGT      0.633100
     19 O31        18.8700    0.1940   11.0580 o         1 PGT     -0.558000
     20 O2         18.9570   -1.7140   12.2410 os        1 PGT     -0.425900
     21 C2         20.3940   -1.6020   12.3010 c3        1 PGT      0.138100
     22 C1         20.9030   -3.0350   12.5080 c3        1 PGT      0.186400
     23 O3P        22.2700   -3.0400   12.2360 os        1 PGT     -0.571200
     24 P          22.9690   -4.5360   12.3330 p5        1 PGT      1.428800
     25 O1P        21.8630   -5.5140   12.2900 o         1 PGT     -0.817000
     26 O2P        24.1800   -4.5200   11.5040 o         1 PGT     -0.817000
     27 O4P        23.4570   -4.4460   13.9160 os        1 PGT     -0.580200
     28 C4         22.6430   -5.0150   14.8890 c3        1 PGT      0.151400
     29 C5         22.3660   -3.9610   15.9720 c3        1 PGT      0.076100
     30 O5         23.5670   -3.3450   16.4200 oh        1 PGT     -0.643800
     31 C6         21.7230   -4.6070   17.1990 c3        1 PGT      0.129400
     32 O6         21.5420   -3.6750   18.2510 oh        1 PGT     -0.627800
     33 C3         20.8110   -0.6540   13.4190 c3        1 PGT      0.118400
     34 O3         20.3180   -1.1890   14.6590 os        1 PGT     -0.431900
     35 C11        20.3540   -0.3680   15.7480 c         1 PGT      0.635100
     36 O11        20.7320    0.7980   15.6050 o         1 PGT     -0.562000
     37 C12        19.8990   -1.0670   16.9910 c3        1 PGT     -0.141400
     38 C13        20.0400   -0.1840   18.2110 c3        1 PGT     -0.070400
     39 C14        19.7440   -0.9720   19.4700 c3        1 PGT     -0.085400
     40 C15        19.9600   -0.1270   20.7070 c3        1 PGT     -0.076400
     41 C16        19.6570   -0.9120   21.9650 c3        1 PGT     -0.079400
     42 C17        19.8830   -0.0730   23.2040 c3        1 PGT     -0.078400
     43 C18        19.5820   -0.8580   24.4630 c3        1 PGT     -0.079400
     44 C19        19.8110   -0.0200   25.7030 c3        1 PGT     -0.078400
     45 C20        19.5120   -0.8060   26.9610 c3        1 PGT     -0.079400
     46 C21        19.7430    0.0310   28.2010 c3        1 PGT     -0.078400
     47 C22        19.4440   -0.7550   29.4590 c3        1 PGT     -0.079400
     48 C23        19.6760    0.0820   30.6990 c3        1 PGT     -0.079400
     49 C24        19.3770   -0.7040   31.9570 c3        1 PGT     -0.079400
     50 C25        19.6090    0.1320   33.1980 c3        1 PGT     -0.080400
     51 C26        19.3130   -0.6470   34.4530 c3        1 PGT     -0.092100
     52 H481       -0.5510   -0.3930    1.5340 hc        1 PGT      0.031367
     53 H482       -0.6690    1.3520    2.0000 hc        1 PGT      0.031367
     54 H483       -0.6800    0.8800    0.2510 hc        1 PGT      0.031367
     55 H471        1.6680    0.0550    0.4310 hc        1 PGT      0.038200
     56 H472        1.5500    1.7950    0.8960 hc        1 PGT      0.038200
     57 H461        1.5940   -0.5990    2.8600 hc        1 PGT      0.039200
     58 H462        1.4760    1.1410    3.3250 hc        1 PGT      0.039200
     59 H451        3.7960   -0.1450    1.7230 hc        1 PGT      0.039200
     60 H452        3.6780    1.5950    2.1880 hc        1 PGT      0.039200
     61 H441        3.7240   -0.8010    4.1530 hc        1 PGT      0.039200
     62 H442        3.6050    0.9380    4.6200 hc        1 PGT      0.039200
     63 H431        5.9250   -0.3460    3.0160 hc        1 PGT      0.039200
     64 H432        5.8060    1.3940    3.4820 hc        1 PGT      0.039200
     65 H421        5.8540   -1.0030    5.4460 hc        1 PGT      0.039200
     66 H422        5.7340    0.7360    5.9130 hc        1 PGT      0.039200
     67 H411        8.0540   -0.5460    4.3080 hc        1 PGT      0.039200
     68 H412        7.9350    1.1930    4.7770 hc        1 PGT      0.039200
     69 H401        7.9840   -1.2050    6.7380 hc        1 PGT      0.039200
     70 H402        7.8640    0.5340    7.2070 hc        1 PGT      0.039200
     71 H391       10.1840   -0.7470    5.6000 hc        1 PGT      0.039200
     72 H392       10.0640    0.9920    6.0710 hc        1 PGT      0.039200
     73 H381        9.9940    0.3290    8.5000 hc        1 PGT      0.039200
     74 H382       10.1140   -1.4090    8.0290 hc        1 PGT      0.039200
     75 H371       12.1940    0.7890    7.3640 hc        1 PGT      0.040200
     76 H372       12.3130   -0.9490    6.8900 hc        1 PGT      0.040200
     77 H361       12.1250    0.1220    9.7920 hc        1 PGT      0.038700
     78 H362       12.2450   -1.6150    9.3180 hc        1 PGT      0.038700
     79 H351       14.4440   -1.1510    8.1780 hc        1 PGT      0.042200
     80 H352       14.3250    0.5850    8.6560 hc        1 PGT      0.042200
     81 H341       14.3800   -1.8260   10.6020 hc        1 PGT      0.039200
     82 H342       14.2540   -0.0900   11.0830 hc        1 PGT      0.039200
     83 H331       16.4590    0.3890    9.9620 hc        1 PGT      0.057200
     84 H332       16.5770   -1.3400    9.4530 hc        1 PGT      0.057200
     85 H321       16.5930   -2.0820   11.8380 hc        1 PGT      0.074200
     86 H322       16.3450   -0.3740   12.3960 hc        1 PGT      0.074200
     87 H2         20.7870   -1.1850   11.3320 h1        1 PGT      0.089700
     88 H11        20.7300   -3.3660   13.5670 h1        1 PGT      0.044200
     89 H12        20.3730   -3.7430   11.8140 h1        1 PGT      0.044200
     90 H41        21.6770   -5.3850   14.4480 h1        1 PGT      0.045200
     91 H42        23.1970   -5.8760   15.3630 h1        1 PGT      0.045200
     92 H5         21.6950   -3.1510   15.5630 h1        1 PGT      0.055700
     93 HO5        24.1510   -3.2840   15.6490 ho        1 PGT      0.445000
     94 H61        20.6930   -4.9740   16.9490 h1        1 PGT      0.042200
     95 H62        22.3550   -5.4600   17.5640 h1        1 PGT      0.042200
     96 HO6        22.3800   -3.2060   18.3560 ho        1 PGT      0.418000
     97 H31        21.9300   -0.6170   13.4740 h1        1 PGT      0.072200
     98 H32        20.3860    0.3700   13.2560 h1        1 PGT      0.072200
     99 H121       18.8310   -1.3810   16.8510 hc        1 PGT      0.090200
    100 H122       20.5110   -2.0060   17.1150 hc        1 PGT      0.090200
    101 H131       19.3460    0.6930   18.1290 hc        1 PGT      0.049200
    102 H132       21.0830    0.2280   18.2540 hc        1 PGT      0.049200
    103 H141       20.4060   -1.8800   19.5060 hc        1 PGT      0.050200
    104 H142       18.6840   -1.3380   19.4430 hc        1 PGT      0.050200
    105 H151       19.3040    0.7820   20.6620 hc        1 PGT      0.037200
    106 H152       21.0220    0.2330   20.7350 hc        1 PGT      0.037200
    107 H161       18.5930   -1.2670   21.9400 hc        1 PGT      0.040700
    108 H162       20.3080   -1.8250   22.0040 hc        1 PGT      0.040700
    109 H171       19.2310    0.8400   23.1650 hc        1 PGT      0.037700
    110 H172       20.9470    0.2820   23.2290 hc        1 PGT      0.037700
    111 H181       18.5170   -1.2120   24.4400 hc        1 PGT      0.039200
    112 H182       20.2320   -1.7710   24.5000 hc        1 PGT      0.039200
    113 H191       19.1600    0.8930   25.6650 hc        1 PGT      0.038700
    114 H192       20.8750    0.3340   25.7250 hc        1 PGT      0.038700
    115 H201       18.4470   -1.1600   26.9390 hc        1 PGT      0.039200
    116 H202       20.1620   -1.7190   26.9970 hc        1 PGT      0.039200
    117 H211       19.0920    0.9450   28.1640 hc        1 PGT      0.039200
    118 H212       20.8070    0.3850   28.2220 hc        1 PGT      0.039200
    119 H221       18.3800   -1.1090   29.4380 hc        1 PGT      0.039200
    120 H222       20.0950   -1.6680   29.4950 hc        1 PGT      0.039200
    121 H231       19.0250    0.9960   30.6630 hc        1 PGT      0.039200
    122 H232       20.7400    0.4360   30.7200 hc        1 PGT      0.039200
    123 H241       18.3130   -1.0580   31.9360 hc        1 PGT      0.039200
    124 H242       20.0280   -1.6170   31.9930 hc        1 PGT      0.039200
    125 H251       20.6740    0.4860   33.2160 hc        1 PGT      0.038200
    126 H252       18.9590    1.0460   33.1590 hc        1 PGT      0.038200
    127 H261       19.9690   -1.5480   34.5220 hc        1 PGT      0.031367
    128 H262       18.2490   -0.9870   34.4650 hc        1 PGT      0.031367
    129 H263       19.4910   -0.0120   35.3550 hc        1 PGT      0.031367
@<TRIPOS>BOND
     1    1    2 1   
     2    1   52 1   
     3    1   53 1   
     4    1   54 1   
     5    2    3 1   
     6    2   55 1   
     7    2   56 1   
     8    3    4 1   
     9    3   57 1   
    10    3   58 1   
    11    4    5 1   
    12    4   59 1   
    13    4   60 1   
    14    5    6 1   
    15    5   61 1   
    16    5   62 1   
    17    6    7 1   
    18    6   63 1   
    19    6   64 1   
    20    7    8 1   
    21    7   65 1   
    22    7   66 1   
    23    8    9 1   
    24    8   67 1   
    25    8   68 1   
    26    9   10 1   
    27    9   69 1   
    28    9   70 1   
    29   10   11 1   
    30   10   71 1   
    31   10   72 1   
    32   11   12 1   
    33   11   73 1   
    34   11   74 1   
    35   12   13 1   
    36   12   75 1   
    37   12   76 1   
    38   13   14 1   
    39   13   77 1   
    40   13   78 1   
    41   14   15 1   
    42   14   79 1   
    43   14   80 1   
    44   15   16 1   
    45   15   81 1   
    46   15   82 1   
    47   16   17 1   
    48   16   83 1   
    49   16   84 1   
    50   17   18 1   
    51   17   85 1   
    52   17   86 1   
    53   18   19 2   
    54   18   20 1   
    55   20   21 1   
    56   21   22 1   
    57   21   33 1   
    58   21   87 1   
    59   22   23 1   
    60   22   88 1   
    61   22   89 1   
    62   23   24 1   
    63   24   25 1   
    64   24   26 1   
    65   24   27 1   
    66   27   28 1   
    67   28   29 1   
    68   28   90 1   
    69   28   91 1   
    70   29   30 1   
    71   29   31 1   
    72   29   92 1   
    73   30   93 1   
    74   31   32 1   
    75   31   94 1   
    76   31   95 1   
    77   32   96 1   
    78   33   34 1   
    79   33   97 1   
    80   33   98 1   
    81   34   35 1   
    82   35   36 2   
    83   35   37 1   
    84   37   38 1   
    85   37   99 1   
    86   37  100 1   
    87   38   39 1   
    88   38  101 1   
    89   38  102 1   
    90   39   40 1   
    91   39  103 1   
    92   39  104 1   
    93   40   41 1   
    94   40  105 1   
    95   40  106 1   
    96   41   42 1   
    97   41  107 1   
    98   41  108 1   
    99   42   43 1   
   100   42  109 1   
   101   42  110 1   
   102   43   44 1   
   103   43  111 1   
   104   43  112 1   
   105   44   45 1   
   106   44  113 1   
   107   44  114 1   
   108   45   46 1   
   109   45  115 1   
   110   45  116 1   
   111   46   47 1   
   112   46  117 1   
   113   46  118 1   
   114   47   48 1   
   115   47  119 1   
   116   47  120 1   
   117   48   49 1   
   118   48  121 1   
   119   48  122 1   
   120   49   50 1   
   121   49  123 1   
   122   49  124 1   
   123   50   51 1   
   124   50  125 1   
   125   50  126 1   
   126   51  127 1   
   127   51  128 1   
   128   51  129 1   
@<TRIPOS>SUBSTRUCTURE
     1 PGT         1 TEMP              0 ****  ****    0 ROOT
