@<TRIPOS>MOLECULE
PGT
  129   128     1     0     0
SMALL
bcc


@<TRIPOS>ATOM
      1 C48        -0.2660    0.7390    1.3810 c3        1 PGT     -0.092100
      2 C47         1.2350    0.8670    1.3300 c3        1 PGT     -0.080400
      3 C46         1.8690    0.5070    2.6570 c3        1 PGT     -0.079400
      4 C45         3.3760    0.6370    2.6010 c3        1 PGT     -0.079400
      5 C44         4.0090    0.2770    3.9280 c3        1 PGT     -0.078400
      6 C43         5.5160    0.4070    3.8720 c3        1 PGT     -0.079400
      7 C42         6.1490    0.0480    5.1990 c3        1 PGT     -0.078400
      8 C41         7.6560    0.1780    5.1420 c3        1 PGT     -0.079400
      9 C40         8.2890   -0.1820    6.4700 c3        1 PGT     -0.078400
     10 C39         9.7960   -0.0510    6.4130 c3        1 PGT     -0.079400
     11 C38        10.4280   -0.4110    7.7400 c3        1 PGT     -0.078400
     12 C37        11.9350   -0.2800    7.6840 c3        1 PGT     -0.079400
     13 C36        12.5690   -0.6390    9.0110 c3        1 PGT     -0.078400
     14 C35        14.0750   -0.5080    8.9540 c3        1 PGT     -0.079400
     15 C34        14.7090   -0.8670   10.2810 c3        1 PGT     -0.078400
     16 C33        16.2150   -0.7300   10.2210 c3        1 PGT     -0.079400
     17 C32        16.8430   -1.1090   11.5450 c3        1 PGT     -0.130400
     18 C31        18.3200   -0.8420   11.5340 c         1 PGT      0.633100
     19 O31        18.9170    0.1070   11.0180 o         1 PGT     -0.558000
     20 O2         19.0180   -1.7950   12.2090 os        1 PGT     -0.425900
     21 C2         20.4530   -1.6700   12.2720 c3        1 PGT      0.138100
     22 C1         20.9740   -3.0970   12.4890 c3        1 PGT      0.186400
     23 O3P        22.3420   -3.0920   12.2220 os        1 PGT     -0.571200
     24 P          23.0540   -4.5810   12.3330 p5        1 PGT      1.428800
     25 O1P        21.9570   -5.5690   12.2930 o         1 PGT     -0.817000
     26 O2P        24.2690   -4.5610   11.5080 o         1 PGT     -0.817000
     27 O4P        23.5360   -4.4740   13.9170 os        1 PGT     -0.580200
     28 C4         22.7240   -5.0450   14.8910 c3        1 PGT      0.151400
     29 C5         22.4330   -3.9860   15.9660 c3        1 PGT      0.076100
     30 O5         23.6270   -3.3550   16.4130 oh        1 PGT     -0.643800
     31 C6         21.7930   -4.6310   17.1960 c3        1 PGT      0.129400
     32 O6         21.6000   -3.6940   18.2400 oh        1 PGT     -0.627800
     33 C3         20.8590   -0.7120   13.3860 c3        1 PGT      0.118400
     34 O3         20.3660   -1.2440   14.6270 os        1 PGT     -0.431900
     35 C11        20.3900   -0.4160   15.7110 c         1 PGT      0.635100
     36 O11        20.7590    0.7530   15.5620 o         1 PGT     -0.562000
     37 C12        19.9360   -1.1100   16.9560 c3        1 PGT     -0.141400
     38 C13        20.0620   -0.2180   18.1710 c3        1 PGT     -0.070400
     39 C14        19.7650   -1.0000   19.4330 c3        1 PGT     -0.085400
     40 C15        19.9620   -0.1440   20.6660 c3        1 PGT     -0.076400
     41 C16        19.6560   -0.9220   21.9280 c3        1 PGT     -0.079400
     42 C17        19.8600   -0.0700   23.1620 c3        1 PGT     -0.078400
     43 C18        19.5530   -0.8470   24.4240 c3        1 PGT     -0.079400
     44 C19        19.7580    0.0040   25.6580 c3        1 PGT     -0.078400
     45 C20        19.4510   -0.7730   26.9200 c3        1 PGT     -0.079400
     46 C21        19.6550    0.0780   28.1550 c3        1 PGT     -0.078400
     47 C22        19.3480   -0.7000   29.4160 c3        1 PGT     -0.079400
     48 C23        19.5520    0.1520   30.6510 c3        1 PGT     -0.079400
     49 C24        19.2440   -0.6260   31.9130 c3        1 PGT     -0.079400
     50 C25        19.4480    0.2250   33.1480 c3        1 PGT     -0.080400
     51 C26        19.1440   -0.5450   34.4070 c3        1 PGT     -0.092100
     52 H481       -0.7120    1.0080    0.3940 hc        1 PGT      0.031367
     53 H482       -0.6930    1.4180    2.1590 hc        1 PGT      0.031367
     54 H483       -0.5640   -0.3080    1.6290 hc        1 PGT      0.031367
     55 H471        1.6430    0.1970    0.5270 hc        1 PGT      0.038200
     56 H472        1.5150    1.9180    1.0550 hc        1 PGT      0.038200
     57 H461        1.4640    1.1770    3.4600 hc        1 PGT      0.039200
     58 H462        1.5920   -0.5440    2.9330 hc        1 PGT      0.039200
     59 H451        3.6530    1.6880    2.3250 hc        1 PGT      0.039200
     60 H452        3.7810   -0.0330    1.7970 hc        1 PGT      0.039200
     61 H441        3.6030    0.9470    4.7310 hc        1 PGT      0.039200
     62 H442        3.7320   -0.7740    4.2040 hc        1 PGT      0.039200
     63 H431        5.9210   -0.2630    3.0680 hc        1 PGT      0.039200
     64 H432        5.7930    1.4590    3.5950 hc        1 PGT      0.039200
     65 H421        5.7430    0.7170    6.0020 hc        1 PGT      0.039200
     66 H422        5.8720   -1.0040    5.4750 hc        1 PGT      0.039200
     67 H411        7.9320    1.2290    4.8660 hc        1 PGT      0.039200
     68 H412        8.0610   -0.4920    4.3390 hc        1 PGT      0.039200
     69 H401        7.8830    0.4880    7.2730 hc        1 PGT      0.039200
     70 H402        8.0120   -1.2340    6.7450 hc        1 PGT      0.039200
     71 H391       10.0720    1.0000    6.1370 hc        1 PGT      0.039200
     72 H392       10.2010   -0.7210    5.6100 hc        1 PGT      0.039200
     73 H381       10.1520   -1.4620    8.0160 hc        1 PGT      0.039200
     74 H382       10.0230    0.2590    8.5440 hc        1 PGT      0.039200
     75 H371       12.3410   -0.9500    6.8810 hc        1 PGT      0.040200
     76 H372       12.2120    0.7720    7.4080 hc        1 PGT      0.040200
     77 H361       12.2930   -1.6910    9.2870 hc        1 PGT      0.038700
     78 H362       12.1630    0.0300    9.8150 hc        1 PGT      0.038700
     79 H351       14.4820   -1.1770    8.1500 hc        1 PGT      0.042200
     80 H352       14.3520    0.5440    8.6790 hc        1 PGT      0.042200
     81 H341       14.3000   -0.2000   11.0860 hc        1 PGT      0.039200
     82 H342       14.4370   -1.9210   10.5550 hc        1 PGT      0.039200
     83 H331       16.6240   -1.3870    9.4100 hc        1 PGT      0.057200
     84 H332       16.4950    0.3260    9.9640 hc        1 PGT      0.057200
     85 H321       16.4000   -0.5010   12.3780 hc        1 PGT      0.074700
     86 H322       16.6590   -2.1920   11.7740 hc        1 PGT      0.074700
     87 H2         20.8460   -1.2560   11.3020 h1        1 PGT      0.089700
     88 H11        20.4530   -3.8140   11.7970 h1        1 PGT      0.044200
     89 H12        20.8010   -3.4240   13.5490 h1        1 PGT      0.044200
     90 H41        23.2850   -5.8970   15.3720 h1        1 PGT      0.045200
     91 H42        21.7630   -5.4280   14.4490 h1        1 PGT      0.045200
     92 H5         21.7550   -3.1870   15.5490 h1        1 PGT      0.055700
     93 HO5        24.2120   -3.2940   15.6430 ho        1 PGT      0.445000
     94 H61        22.4320   -5.4750   17.5680 h1        1 PGT      0.042200
     95 H62        20.7680   -5.0090   16.9450 h1        1 PGT      0.042200
     96 HO6        22.4330   -3.2150   18.3450 ho        1 PGT      0.418000
     97 H31        20.4270    0.3080   13.2150 h1        1 PGT      0.072200
     98 H32        21.9780   -0.6660   13.4440 h1        1 PGT      0.072200
     99 H121       18.8720   -1.4370   16.8130 hc        1 PGT      0.090700
    100 H122       20.5580   -2.0420   17.0910 hc        1 PGT      0.090700
    101 H131       21.1000    0.2050   18.2170 hc        1 PGT      0.049200
    102 H132       19.3590    0.6510   18.0790 hc        1 PGT      0.049200
    103 H141       18.7100   -1.3790   19.4020 hc        1 PGT      0.050200
    104 H142       20.4380   -1.9000   19.4800 hc        1 PGT      0.050200
    105 H151       19.2980    0.7580   20.6090 hc        1 PGT      0.037200
    106 H152       21.0200    0.2270   20.7000 hc        1 PGT      0.037200
    107 H161       20.3180   -1.8260   21.9800 hc        1 PGT      0.040700
    108 H162       18.5970   -1.2900   21.8950 hc        1 PGT      0.040700
    109 H171       19.2000    0.8360   23.1080 hc        1 PGT      0.037700
    110 H172       20.9200    0.2970   23.1950 hc        1 PGT      0.037700
    111 H181       18.4940   -1.2140   24.3910 hc        1 PGT      0.039200
    112 H182       20.2140   -1.7520   24.4770 hc        1 PGT      0.039200
    113 H191       19.0970    0.9100   25.6040 hc        1 PGT      0.038700
    114 H192       20.8180    0.3710   25.6910 hc        1 PGT      0.038700
    115 H201       20.1110   -1.6780   26.9740 hc        1 PGT      0.039200
    116 H202       18.3910   -1.1400   26.8870 hc        1 PGT      0.039200
    117 H211       20.7150    0.4450   28.1870 hc        1 PGT      0.039200
    118 H212       18.9940    0.9840   28.1010 hc        1 PGT      0.039200
    119 H221       20.0080   -1.6050   29.4700 hc        1 PGT      0.039200
    120 H222       18.2880   -1.0660   29.3830 hc        1 PGT      0.039200
    121 H231       18.8910    1.0570   30.5970 hc        1 PGT      0.039200
    122 H232       20.6120    0.5180   30.6840 hc        1 PGT      0.039200
    123 H241       19.9050   -1.5310   31.9670 hc        1 PGT      0.039200
    124 H242       18.1850   -0.9920   31.8800 hc        1 PGT      0.039200
    125 H251       20.5090    0.5920   33.1780 hc        1 PGT      0.038200
    126 H252       18.7880    1.1310   33.0910 hc        1 PGT      0.038200
    127 H261       18.0840   -0.8980   34.4060 hc        1 PGT      0.031367
    128 H262       19.8090   -1.4380   34.4930 hc        1 PGT      0.031367
    129 H263       19.3000    0.1000   35.3050 hc        1 PGT      0.031367
@<TRIPOS>BOND
     1    1    2 1   
     2    1   52 1   
     3    1   53 1   
     4    1   54 1   
     5    2    3 1   
     6    2   55 1   
     7    2   56 1   
     8    3    4 1   
     9    3   57 1   
    10    3   58 1   
    11    4    5 1   
    12    4   59 1   
    13    4   60 1   
    14    5    6 1   
    15    5   61 1   
    16    5   62 1   
    17    6    7 1   
    18    6   63 1   
    19    6   64 1   
    20    7    8 1   
    21    7   65 1   
    22    7   66 1   
    23    8    9 1   
    24    8   67 1   
    25    8   68 1   
    26    9   10 1   
    27    9   69 1   
    28    9   70 1   
    29   10   11 1   
    30   10   71 1   
    31   10   72 1   
    32   11   12 1   
    33   11   73 1   
    34   11   74 1   
    35   12   13 1   
    36   12   75 1   
    37   12   76 1   
    38   13   14 1   
    39   13   77 1   
    40   13   78 1   
    41   14   15 1   
    42   14   79 1   
    43   14   80 1   
    44   15   16 1   
    45   15   81 1   
    46   15   82 1   
    47   16   17 1   
    48   16   83 1   
    49   16   84 1   
    50   17   18 1   
    51   17   85 1   
    52   17   86 1   
    53   18   19 2   
    54   18   20 1   
    55   20   21 1   
    56   21   22 1   
    57   21   33 1   
    58   21   87 1   
    59   22   23 1   
    60   22   88 1   
    61   22   89 1   
    62   23   24 1   
    63   24   25 1   
    64   24   26 1   
    65   24   27 1   
    66   27   28 1   
    67   28   29 1   
    68   28   90 1   
    69   28   91 1   
    70   29   30 1   
    71   29   31 1   
    72   29   92 1   
    73   30   93 1   
    74   31   32 1   
    75   31   94 1   
    76   31   95 1   
    77   32   96 1   
    78   33   34 1   
    79   33   97 1   
    80   33   98 1   
    81   34   35 1   
    82   35   36 2   
    83   35   37 1   
    84   37   38 1   
    85   37   99 1   
    86   37  100 1   
    87   38   39 1   
    88   38  101 1   
    89   38  102 1   
    90   39   40 1   
    91   39  103 1   
    92   39  104 1   
    93   40   41 1   
    94   40  105 1   
    95   40  106 1   
    96   41   42 1   
    97   41  107 1   
    98   41  108 1   
    99   42   43 1   
   100   42  109 1   
   101   42  110 1   
   102   43   44 1   
   103   43  111 1   
   104   43  112 1   
   105   44   45 1   
   106   44  113 1   
   107   44  114 1   
   108   45   46 1   
   109   45  115 1   
   110   45  116 1   
   111   46   47 1   
   112   46  117 1   
   113   46  118 1   
   114   47   48 1   
   115   47  119 1   
   116   47  120 1   
   117   48   49 1   
   118   48  121 1   
   119   48  122 1   
   120   49   50 1   
   121   49  123 1   
   122   49  124 1   
   123   50   51 1   
   124   50  125 1   
   125   50  126 1   
   126   51  127 1   
   127   51  128 1   
   128   51  129 1   
@<TRIPOS>SUBSTRUCTURE
     1 PGT         1 TEMP              0 ****  ****    0 ROOT
