@<TRIPOS>MOLECULE
PGT
  129   128     1     0     0
SMALL
bcc


@<TRIPOS>ATOM
      1 C48       -21.3530    5.9150    1.3180 c3        1 PGT     -0.092100
      2 C47       -20.5040    4.8140    0.7360 c3        1 PGT     -0.080400
      3 C46       -19.0390    5.0110    1.0620 c3        1 PGT     -0.079400
      4 C45       -18.1900    3.9030    0.4760 c3        1 PGT     -0.079400
      5 C44       -16.7260    4.1010    0.8030 c3        1 PGT     -0.078400
      6 C43       -15.8770    2.9940    0.2170 c3        1 PGT     -0.079400
      7 C42       -14.4120    3.1910    0.5440 c3        1 PGT     -0.078400
      8 C41       -13.5630    2.0840   -0.0420 c3        1 PGT     -0.079400
      9 C40       -12.0990    2.2810    0.2850 c3        1 PGT     -0.078400
     10 C39       -11.2500    1.1740   -0.3020 c3        1 PGT     -0.079400
     11 C38        -9.7860    1.3710    0.0260 c3        1 PGT     -0.078400
     12 C37        -8.9370    0.2630   -0.5610 c3        1 PGT     -0.079400
     13 C36        -7.4730    0.4600   -0.2330 c3        1 PGT     -0.078400
     14 C35        -6.6250   -0.6480   -0.8200 c3        1 PGT     -0.079400
     15 C34        -5.1600   -0.4520   -0.4910 c3        1 PGT     -0.078400
     16 C33        -4.3160   -1.5580   -1.0850 c3        1 PGT     -0.079400
     17 C32        -2.8550   -1.3680   -0.7360 c3        1 PGT     -0.129400
     18 C31        -1.9990   -2.3820   -1.4360 c         1 PGT      0.633100
     19 O31        -2.1220   -2.8160   -2.5850 o         1 PGT     -0.559000
     20 O2         -0.9740   -2.8160   -0.6540 os        1 PGT     -0.426900
     21 C2         -0.0760   -3.8050   -1.1960 c3        1 PGT      0.132100
     22 C1          0.5680   -4.4730    0.0330 c3        1 PGT      0.188400
     23 O3P         1.3100   -5.5580   -0.4170 os        1 PGT     -0.584200
     24 P           1.3870   -6.9000    0.5570 p5        1 PGT      1.428800
     25 O1P         0.6150   -6.5670    1.7710 o         1 PGT     -0.814500
     26 O2P         1.2620   -8.0950   -0.2850 o         1 PGT     -0.814500
     27 O4P         2.9890   -6.7180    0.9470 os        1 PGT     -0.569200
     28 C4          3.3100   -5.6770    1.8120 c3        1 PGT      0.158400
     29 C5          4.1890   -4.6580    1.0680 c3        1 PGT      0.074100
     30 O5          5.2870   -5.2930    0.4240 oh        1 PGT     -0.640800
     31 C6          4.7840   -3.6390    2.0390 c3        1 PGT      0.130400
     32 O6          5.5920   -2.6880    1.3670 oh        1 PGT     -0.627800
     33 C3          0.9550   -3.1580   -2.1140 c3        1 PGT      0.123400
     34 O3          1.7410   -2.2550   -1.3180 os        1 PGT     -0.434900
     35 C11         2.8820   -1.7660   -1.8870 c         1 PGT      0.635100
     36 O11         3.0780   -1.9640   -3.0900 o         1 PGT     -0.559000
     37 C12         3.7380   -1.0420   -0.8960 c3        1 PGT     -0.141400
     38 C13         4.8900   -0.3270   -1.5650 c3        1 PGT     -0.071400
     39 C14         5.8540    0.2090   -0.5280 c3        1 PGT     -0.085400
     40 C15         7.0550    0.8570   -1.1810 c3        1 PGT     -0.076400
     41 C16         8.0140    1.4030   -0.1450 c3        1 PGT     -0.079400
     42 C17         9.2200    2.0460   -0.7960 c3        1 PGT     -0.078400
     43 C18        10.1780    2.5920    0.2410 c3        1 PGT     -0.079400
     44 C19        11.3850    3.2340   -0.4100 c3        1 PGT     -0.078400
     45 C20        12.3430    3.7810    0.6270 c3        1 PGT     -0.079400
     46 C21        13.5500    4.4230   -0.0240 c3        1 PGT     -0.078400
     47 C22        14.5080    4.9700    1.0130 c3        1 PGT     -0.079400
     48 C23        15.7140    5.6120    0.3620 c3        1 PGT     -0.079400
     49 C24        16.6720    6.1580    1.3990 c3        1 PGT     -0.079400
     50 C25        17.8790    6.8010    0.7500 c3        1 PGT     -0.080400
     51 C26        18.8360    7.3460    1.7780 c3        1 PGT     -0.092100
     52 H481      -21.0440    6.9080    0.9120 hc        1 PGT      0.031367
     53 H482      -22.4290    5.7500    1.0660 hc        1 PGT      0.031367
     54 H483      -21.2520    5.9450    2.4300 hc        1 PGT      0.031367
     55 H471      -20.8460    3.8230    1.1360 hc        1 PGT      0.038200
     56 H472      -20.6380    4.7840   -0.3780 hc        1 PGT      0.038200
     57 H461      -18.6950    6.0010    0.6620 hc        1 PGT      0.039200
     58 H462      -18.9030    5.0400    2.1760 hc        1 PGT      0.039200
     59 H451      -18.5350    2.9130    0.8760 hc        1 PGT      0.039200
     60 H452      -18.3260    3.8750   -0.6370 hc        1 PGT      0.039200
     61 H441      -16.3810    5.0910    0.4030 hc        1 PGT      0.039200
     62 H442      -16.5890    4.1300    1.9170 hc        1 PGT      0.039200
     63 H431      -16.2210    2.0040    0.6170 hc        1 PGT      0.039700
     64 H432      -16.0120    2.9650   -0.8960 hc        1 PGT      0.039700
     65 H421      -14.0680    4.1810    0.1450 hc        1 PGT      0.039200
     66 H422      -14.2760    3.2190    1.6580 hc        1 PGT      0.039200
     67 H411      -13.9080    1.0940    0.3570 hc        1 PGT      0.039200
     68 H412      -13.6990    2.0550   -1.1560 hc        1 PGT      0.039200
     69 H401      -11.7540    3.2710   -0.1140 hc        1 PGT      0.039200
     70 H402      -11.9630    2.3090    1.3990 hc        1 PGT      0.039200
     71 H391      -11.5950    0.1830    0.0980 hc        1 PGT      0.039200
     72 H392      -11.3860    1.1460   -1.4150 hc        1 PGT      0.039200
     73 H381       -9.4410    2.3610   -0.3730 hc        1 PGT      0.038700
     74 H382       -9.6500    1.3980    1.1400 hc        1 PGT      0.038700
     75 H371       -9.2820   -0.7270   -0.1620 hc        1 PGT      0.040200
     76 H372       -9.0720    0.2350   -1.6740 hc        1 PGT      0.040200
     77 H361       -7.1270    1.4500   -0.6320 hc        1 PGT      0.038700
     78 H362       -7.3370    0.4870    0.8810 hc        1 PGT      0.038700
     79 H351       -6.9700   -1.6380   -0.4220 hc        1 PGT      0.042200
     80 H352       -6.7590   -0.6750   -1.9340 hc        1 PGT      0.042200
     81 H341       -4.8150    0.5400   -0.8860 hc        1 PGT      0.038700
     82 H342       -5.0240   -0.4300    0.6230 hc        1 PGT      0.038700
     83 H331       -4.6670   -2.5520   -0.7000 hc        1 PGT      0.057200
     84 H332       -4.4330   -1.5760   -2.2010 hc        1 PGT      0.057200
     85 H321       -2.5030   -0.3520   -1.0600 hc        1 PGT      0.074200
     86 H322       -2.7010   -1.4480    0.3730 hc        1 PGT      0.074200
     87 H2         -0.6560   -4.5550   -1.8010 h1        1 PGT      0.085700
     88 H11         1.2430   -3.7200    0.5300 h1        1 PGT      0.048700
     89 H12        -0.2270   -4.8000    0.7590 h1        1 PGT      0.048700
     90 H41         2.3800   -5.1750    2.1970 h1        1 PGT      0.040200
     91 H42         3.8970   -6.1020    2.6740 h1        1 PGT      0.040200
     92 H5          3.5790   -4.1290    0.2800 h1        1 PGT      0.057700
     93 HO5         4.9520   -6.1340    0.0790 ho        1 PGT      0.443000
     94 H61         3.9670   -3.0430    2.5230 h1        1 PGT      0.042700
     95 H62         5.3960   -4.1600    2.8220 h1        1 PGT      0.042700
     96 HO6         6.1740   -3.1840    0.7770 ho        1 PGT      0.418000
     97 H31         1.6210   -3.9550   -2.5390 h1        1 PGT      0.070200
     98 H32         0.4630   -2.5730   -2.9330 h1        1 PGT      0.070200
     99 H121        3.1000   -0.3190   -0.3230 hc        1 PGT      0.089700
    100 H122        4.1270   -1.8040   -0.1580 hc        1 PGT      0.089700
    101 H131        5.4210   -1.0390   -2.2520 hc        1 PGT      0.049200
    102 H132        4.5010    0.5110   -2.2000 hc        1 PGT      0.049200
    103 H141        5.3290    0.9570    0.1220 hc        1 PGT      0.049700
    104 H142        6.1880   -0.6310    0.1400 hc        1 PGT      0.049700
    105 H151        7.5840    0.1050   -1.8240 hc        1 PGT      0.037200
    106 H152        6.7160    1.6880   -1.8550 hc        1 PGT      0.037200
    107 H161        7.4860    2.1580    0.4960 hc        1 PGT      0.040700
    108 H162        8.3480    0.5730    0.5310 hc        1 PGT      0.040700
    109 H171        9.7490    1.2900   -1.4350 hc        1 PGT      0.037700
    110 H172        8.8850    2.8750   -1.4730 hc        1 PGT      0.037700
    111 H181        9.6500    3.3470    0.8800 hc        1 PGT      0.039200
    112 H182       10.5130    1.7620    0.9180 hc        1 PGT      0.039200
    113 H191       11.9140    2.4790   -1.0490 hc        1 PGT      0.038700
    114 H192       11.0500    4.0640   -1.0870 hc        1 PGT      0.038700
    115 H201       11.8140    4.5360    1.2660 hc        1 PGT      0.039200
    116 H202       12.6780    2.9510    1.3040 hc        1 PGT      0.039200
    117 H211       14.0780    3.6680   -0.6630 hc        1 PGT      0.038700
    118 H212       13.2150    5.2520   -0.7010 hc        1 PGT      0.038700
    119 H221       13.9790    5.7240    1.6520 hc        1 PGT      0.039200
    120 H222       14.8420    4.1400    1.6900 hc        1 PGT      0.039200
    121 H231       16.2430    4.8560   -0.2770 hc        1 PGT      0.039200
    122 H232       15.3790    6.4410   -0.3150 hc        1 PGT      0.039200
    123 H241       16.1430    6.9130    2.0390 hc        1 PGT      0.039200
    124 H242       17.0070    5.3290    2.0760 hc        1 PGT      0.039200
    125 H251       18.4060    6.0440    0.1090 hc        1 PGT      0.038200
    126 H252       17.5420    7.6290    0.0720 hc        1 PGT      0.038200
    127 H261       18.3360    8.1200    2.4100 hc        1 PGT      0.031367
    128 H262       19.2020    6.5310    2.4480 hc        1 PGT      0.031367
    129 H263       19.7180    7.8150    1.2790 hc        1 PGT      0.031367
@<TRIPOS>BOND
     1    1    2 1   
     2    1   52 1   
     3    1   53 1   
     4    1   54 1   
     5    2    3 1   
     6    2   55 1   
     7    2   56 1   
     8    3    4 1   
     9    3   57 1   
    10    3   58 1   
    11    4    5 1   
    12    4   59 1   
    13    4   60 1   
    14    5    6 1   
    15    5   61 1   
    16    5   62 1   
    17    6    7 1   
    18    6   63 1   
    19    6   64 1   
    20    7    8 1   
    21    7   65 1   
    22    7   66 1   
    23    8    9 1   
    24    8   67 1   
    25    8   68 1   
    26    9   10 1   
    27    9   69 1   
    28    9   70 1   
    29   10   11 1   
    30   10   71 1   
    31   10   72 1   
    32   11   12 1   
    33   11   73 1   
    34   11   74 1   
    35   12   13 1   
    36   12   75 1   
    37   12   76 1   
    38   13   14 1   
    39   13   77 1   
    40   13   78 1   
    41   14   15 1   
    42   14   79 1   
    43   14   80 1   
    44   15   16 1   
    45   15   81 1   
    46   15   82 1   
    47   16   17 1   
    48   16   83 1   
    49   16   84 1   
    50   17   18 1   
    51   17   85 1   
    52   17   86 1   
    53   18   19 2   
    54   18   20 1   
    55   20   21 1   
    56   21   22 1   
    57   21   33 1   
    58   21   87 1   
    59   22   23 1   
    60   22   88 1   
    61   22   89 1   
    62   23   24 1   
    63   24   25 1   
    64   24   26 1   
    65   24   27 1   
    66   27   28 1   
    67   28   29 1   
    68   28   90 1   
    69   28   91 1   
    70   29   30 1   
    71   29   31 1   
    72   29   92 1   
    73   30   93 1   
    74   31   32 1   
    75   31   94 1   
    76   31   95 1   
    77   32   96 1   
    78   33   34 1   
    79   33   97 1   
    80   33   98 1   
    81   34   35 1   
    82   35   36 2   
    83   35   37 1   
    84   37   38 1   
    85   37   99 1   
    86   37  100 1   
    87   38   39 1   
    88   38  101 1   
    89   38  102 1   
    90   39   40 1   
    91   39  103 1   
    92   39  104 1   
    93   40   41 1   
    94   40  105 1   
    95   40  106 1   
    96   41   42 1   
    97   41  107 1   
    98   41  108 1   
    99   42   43 1   
   100   42  109 1   
   101   42  110 1   
   102   43   44 1   
   103   43  111 1   
   104   43  112 1   
   105   44   45 1   
   106   44  113 1   
   107   44  114 1   
   108   45   46 1   
   109   45  115 1   
   110   45  116 1   
   111   46   47 1   
   112   46  117 1   
   113   46  118 1   
   114   47   48 1   
   115   47  119 1   
   116   47  120 1   
   117   48   49 1   
   118   48  121 1   
   119   48  122 1   
   120   49   50 1   
   121   49  123 1   
   122   49  124 1   
   123   50   51 1   
   124   50  125 1   
   125   50  126 1   
   126   51  127 1   
   127   51  128 1   
   128   51  129 1   
@<TRIPOS>SUBSTRUCTURE
     1 PGT         1 TEMP              0 ****  ****    0 ROOT
