@<TRIPOS>MOLECULE
PGU
   40    40     1     0     0
SMALL
bcc


@<TRIPOS>ATOM
      1 N1          6.0960    2.2130    2.0870 nb        1 PGU     -0.698000
      2 C2          5.7000    3.4970    1.8670 ca        1 PGU      0.288600
      3 C2A         6.5460    4.6240    2.3590 c3        1 PGU     -0.102400
      4 C3          4.4940    3.8030    1.1940 ca        1 PGU      0.008800
      5 O3          4.2280    5.1430    1.0340 oh        1 PGU     -0.562100
      6 C4          3.6360    2.7620    0.7490 ca        1 PGU     -0.124300
      7 C4A         2.3490    3.1100    0.0480 c3        1 PGU      0.197100
      8 C5          4.0830    1.4480    0.9290 ca        1 PGU     -0.152600
      9 C6          5.3180    1.2380    1.6160 ca        1 PGU      0.356200
     10 C5A         3.3920    0.1840    0.4570 c3        1 PGU      0.251700
     11 O4P         4.2790   -0.7240   -0.0740 os        1 PGU     -0.574200
     12 P           4.5150   -2.2050    0.7830 p5        1 PGU      1.319900
     13 O1P         5.0030   -3.1420   -0.2910 o         1 PGU     -0.933833
     14 O2P         3.1480   -2.5050    1.3400 o         1 PGU     -0.933833
     15 O3P         5.5490   -1.8030    1.8090 o         1 PGU     -0.933833
     16 N           1.4550    4.0250    0.7510 n3        1 PGU     -0.806200
     17 CA          0.5920    4.7990   -0.1400 c3        1 PGU      0.055500
     18 CB         -0.2930    5.8150    0.6110 c3        1 PGU     -0.041400
     19 CG         -1.3820    5.1870    1.4500 c3        1 PGU     -0.169400
     20 CD         -2.3760    6.2040    2.0170 c         1 PGU      0.900600
     21 OE1        -1.9750    7.1540    2.7580 o         1 PGU     -0.892300
     22 OE2        -3.6160    6.0520    1.7670 o         1 PGU     -0.892300
     23 C           1.3050    5.5880   -1.2780 c         1 PGU      0.887600
     24 OXT         2.4800    6.0420   -1.1070 o         1 PGU     -0.875300
     25 O           0.6770    5.7690   -2.3640 o         1 PGU     -0.875300
     26 H2A1        6.1140    5.0320    3.3070 hc        1 PGU      0.014033
     27 H2A2        7.5990    4.3090    2.5570 hc        1 PGU      0.014033
     28 H2A3        6.5490    5.4450    1.5990 hc        1 PGU      0.014033
     29 HO3         3.6840    5.2670    0.2270 ho        1 PGU      0.477000
     30 H4A1        2.6370    3.5100   -0.9730 h1        1 PGU      0.047200
     31 H4A2        1.7480    2.1710   -0.1160 h1        1 PGU      0.047200
     32 H6          5.6440    0.1600    1.7600 h4        1 PGU      0.132100
     33 H5A1        2.8390   -0.2690    1.3330 h1        1 PGU      0.017700
     34 H5A2        2.6420    0.4610   -0.3410 h1        1 PGU      0.017700
     35 HN          1.9820    4.6570    1.3280 hn        1 PGU      0.350800
     36 HA         -0.0880    4.0510   -0.6440 h1        1 PGU      0.043700
     37 HB1        -0.7660    6.4670   -0.1710 hc        1 PGU      0.037200
     38 HB2         0.3400    6.4740    1.2580 hc        1 PGU      0.037200
     39 HG1        -1.9480    4.4400    0.8350 hc        1 PGU      0.025700
     40 HG2        -0.9220    4.6380    2.3110 hc        1 PGU      0.025700
@<TRIPOS>BOND
     1    1    2 ar  
     2    1    9 ar  
     3    2    3 1   
     4    2    4 ar  
     5    3   26 1   
     6    3   27 1   
     7    3   28 1   
     8    4    5 1   
     9    4    6 ar  
    10    5   29 1   
    11    6    7 1   
    12    6    8 ar  
    13    7   16 1   
    14    7   30 1   
    15    7   31 1   
    16    8    9 ar  
    17    8   10 1   
    18    9   32 1   
    19   10   11 1   
    20   10   33 1   
    21   10   34 1   
    22   11   12 1   
    23   12   13 1   
    24   12   14 1   
    25   12   15 1   
    26   16   17 1   
    27   16   35 1   
    28   17   18 1   
    29   17   23 1   
    30   17   36 1   
    31   18   19 1   
    32   18   37 1   
    33   18   38 1   
    34   19   20 1   
    35   19   39 1   
    36   19   40 1   
    37   20   21 1   
    38   20   22 1   
    39   23   24 1   
    40   23   25 1   
@<TRIPOS>SUBSTRUCTURE
     1 PGU         1 TEMP              0 ****  ****    0 ROOT
