@<TRIPOS>MOLECULE
PGU
   41    41     1     0     0
SMALL
bcc


@<TRIPOS>ATOM
      1 N1          0.6170    1.3630    0.3870 n2        1 PGU     -0.421000
      2 C2          1.8530    1.6140    0.8990 cc        1 PGU      0.038800
      3 C2A         2.7320    2.6150    0.2210 c3        1 PGU     -0.016900
      4 C3          2.3230    0.9720    2.0530 cd        1 PGU     -0.055900
      5 O3          3.5950    1.3150    2.4860 oh        1 PGU     -0.538100
      6 C4          1.5270    0.0030    2.7670 cd        1 PGU      0.123000
      7 C4A         2.1260   -0.6190    3.8600 c2        1 PGU     -0.482000
      8 C5          0.2190   -0.1970    2.2350 cd        1 PGU     -0.262200
      9 C6         -0.1410    0.4790    1.0590 cc        1 PGU      0.038000
     10 C5A        -0.8030   -1.0670    2.9040 c3        1 PGU      0.229600
     11 O4P        -2.0830   -0.8960    2.3650 os        1 PGU     -0.600200
     12 P          -3.2820   -0.2670    3.3120 p5        1 PGU      1.434800
     13 O1P        -2.9740    1.2870    2.9000 oh        1 PGU     -0.792400
     14 O2P        -2.9200   -0.4520    4.7320 o         1 PGU     -0.843000
     15 O3P        -4.5860   -0.6510    2.7320 o         1 PGU     -0.843000
     16 N           1.7400   -1.8540    4.4750 ny        1 PGU     -0.543800
     17 CA          2.9150   -2.7630    4.7420 c3        1 PGU     -0.013500
     18 CB          3.3770   -2.7490    6.1990 c3        1 PGU     -0.066400
     19 CG          4.0450   -1.4600    6.6120 c3        1 PGU     -0.193400
     20 CD          4.7020   -1.5590    7.9960 c         1 PGU      0.908600
     21 OE1         4.0210   -1.9660    8.9830 o         1 PGU     -0.870800
     22 OE2         5.9130   -1.1950    8.1110 o         1 PGU     -0.870800
     23 C           2.5930   -4.2370    4.3090 c         1 PGU      0.912600
     24 OXT         1.3960   -4.5350    4.0390 o         1 PGU     -0.829800
     25 O           3.5690   -5.0280    4.2330 o         1 PGU     -0.829800
     26 H2A1        3.8020    2.3110    0.3340 hc        1 PGU      0.021033
     27 H2A2        2.4950    2.7140   -0.8660 hc        1 PGU      0.021033
     28 H2A3        2.6000    3.6150    0.7050 hc        1 PGU      0.021033
     29 HO3         4.0080    0.4920    2.7910 ho        1 PGU      0.409000
     30 H4A1        2.9870   -0.1610    4.3670 hx        1 PGU      0.146000
     31 H4A2       -2.0640    1.4410    2.6680 ho        1 PGU      0.431000
     32 H6         -1.1430    0.3010    0.6230 h4        1 PGU      0.154000
     33 H5A1       -0.8310   -0.8520    4.0120 h1        1 PGU      0.038200
     34 H5A2       -0.5270   -2.1510    2.7340 h1        1 PGU      0.038200
     35 HN          1.2670   -1.6660    5.3640 hn        1 PGU      0.424800
     36 HA          3.7620   -2.4110    4.0870 hx        1 PGU      0.080700
     37 HB1         4.1070   -3.5980    6.3010 hc        1 PGU      0.063200
     38 HB2         2.5220   -2.9670    6.8920 hc        1 PGU      0.063200
     39 HG1         4.8270   -1.1760    5.8620 hc        1 PGU      0.024700
     40 HG2         3.2910   -0.6320    6.6490 hc        1 PGU      0.024700
     41 H2          1.0850   -2.3800    3.8750 hn        1 PGU      0.424800
@<TRIPOS>BOND
     1    1    2 1   
     2    1    9 1   
     3    2    3 1   
     4    2    4 2   
     5    3   26 1   
     6    3   27 1   
     7    3   28 1   
     8    4    5 1   
     9    4    6 1   
    10    5   29 1   
    11    6    7 2   
    12    6    8 1   
    13    7   16 1   
    14    7   30 1   
    15    8    9 2   
    16    8   10 1   
    17    9   32 1   
    18   10   11 1   
    19   10   33 1   
    20   10   34 1   
    21   11   12 1   
    22   12   13 1   
    23   12   14 1   
    24   12   15 1   
    25   13   31 1   
    26   16   17 1   
    27   16   35 1   
    28   16   41 1   
    29   17   18 1   
    30   17   23 1   
    31   17   36 1   
    32   18   19 1   
    33   18   37 1   
    34   18   38 1   
    35   19   20 1   
    36   19   39 1   
    37   19   40 1   
    38   20   21 1   
    39   20   22 1   
    40   23   24 1   
    41   23   25 1   
@<TRIPOS>SUBSTRUCTURE
     1 PGU         1 TEMP              0 ****  ****    0 ROOT
