@<TRIPOS>MOLECULE
PGU
   41    41     1     0     0
SMALL
bcc


@<TRIPOS>ATOM
      1 N1          0.5640    1.0860    0.1430 n2        1 PGU     -0.436000
      2 C2          1.5170    0.1230    0.1770 cc        1 PGU      0.055800
      3 C2A         2.2400   -0.2370   -1.0830 c3        1 PGU     -0.021900
      4 C3          1.8580   -0.5730    1.3530 cd        1 PGU     -0.103900
      5 O3          2.7960   -1.5880    1.2300 oh        1 PGU     -0.560100
      6 C4          1.2210   -0.2870    2.6040 cd        1 PGU      0.139000
      7 C4A         1.5010   -0.9090    3.8170 c2        1 PGU     -0.450000
      8 C5          0.2080    0.7350    2.5350 cd        1 PGU     -0.223200
      9 C6         -0.0510    1.3580    1.3160 cc        1 PGU      0.044000
     10 C5A        -0.5580    1.1320    3.7580 c3        1 PGU      0.244600
     11 O4P        -1.3500    2.2680    3.5330 os        1 PGU     -0.596200
     12 P          -2.8460    2.3310    4.2000 p5        1 PGU      1.429800
     13 O1P        -2.3890    2.9130    5.6650 oh        1 PGU     -0.780400
     14 O2P        -3.4350    0.9880    4.3680 o         1 PGU     -0.848000
     15 O3P        -3.5340    3.4920    3.5860 o         1 PGU     -0.848000
     16 N           2.4250   -1.9900    4.0190 n4        1 PGU     -0.554800
     17 CA          3.5410   -1.7190    4.9890 c3        1 PGU     -0.016500
     18 CB          3.8490   -2.9370    5.8650 c3        1 PGU     -0.077400
     19 CG          2.7920   -3.2470    6.8980 c3        1 PGU     -0.194400
     20 CD          3.0820   -4.5760    7.6150 c         1 PGU      0.907600
     21 OE1         3.0970   -5.6470    6.9370 o         1 PGU     -0.868800
     22 OE2         3.2680   -4.5590    8.8690 o         1 PGU     -0.868800
     23 C           4.8620   -1.3280    4.2390 c         1 PGU      0.924600
     24 OXT         5.0080   -1.7060    3.0390 o         1 PGU     -0.836300
     25 O           5.7160   -0.6750    4.8920 o         1 PGU     -0.836300
     26 H2A1        3.3330   -0.3280   -0.8670 hc        1 PGU      0.021367
     27 H2A2        1.8740   -1.2290   -1.4460 hc        1 PGU      0.021367
     28 H2A3        2.0910    0.5180   -1.8920 hc        1 PGU      0.021367
     29 HO3         3.6500   -1.2160    1.5260 ho        1 PGU      0.436000
     30 H4A1        1.0110   -0.5900    4.7450 hx        1 PGU      0.147000
     31 H4A2       -2.1940    3.8410    5.6190 ho        1 PGU      0.411000
     32 H6         -0.8170    2.1550    1.2670 h4        1 PGU      0.150000
     33 H5A1        0.1830    1.3790    4.5770 h1        1 PGU      0.031200
     34 H5A2       -1.2150    0.2810    4.0980 h1        1 PGU      0.031200
     35 HN          1.8920   -2.7910    4.3710 hn        1 PGU      0.424300
     36 HA          3.2340   -0.8510    5.6340 hx        1 PGU      0.086700
     37 HB1         4.8190   -2.7130    6.3860 hc        1 PGU      0.062200
     38 HB2         4.0190   -3.8440    5.2260 hc        1 PGU      0.062200
     39 HG1         1.7820   -3.3360    6.4230 hc        1 PGU      0.022700
     40 HG2         2.7420   -2.4240    7.6540 hc        1 PGU      0.022700
     41 H2          2.8670   -2.2670    3.1290 hn        1 PGU      0.424300
@<TRIPOS>BOND
     1    1    2 1   
     2    1    9 1   
     3    2    3 1   
     4    2    4 2   
     5    3   26 1   
     6    3   27 1   
     7    3   28 1   
     8    4    5 1   
     9    4    6 1   
    10    5   29 1   
    11    6    7 2   
    12    6    8 1   
    13    7   16 1   
    14    7   30 1   
    15    8    9 2   
    16    8   10 1   
    17    9   32 1   
    18   10   11 1   
    19   10   33 1   
    20   10   34 1   
    21   11   12 1   
    22   12   13 1   
    23   12   14 1   
    24   12   15 1   
    25   13   31 1   
    26   16   17 1   
    27   16   35 1   
    28   16   41 1   
    29   17   18 1   
    30   17   23 1   
    31   17   36 1   
    32   18   19 1   
    33   18   37 1   
    34   18   38 1   
    35   19   20 1   
    36   19   39 1   
    37   19   40 1   
    38   20   21 1   
    39   20   22 1   
    40   23   24 1   
    41   23   25 1   
@<TRIPOS>SUBSTRUCTURE
     1 PGU         1 TEMP              0 ****  ****    0 ROOT
