@<TRIPOS>MOLECULE
PGU
   41    41     1     0     0
SMALL
bcc


@<TRIPOS>ATOM
      1 N1          0.5680    1.1550    0.1770 n2        1 PGU     -0.436000
      2 C2          1.5380    0.2090    0.1980 cc        1 PGU      0.055800
      3 C2A         2.2800   -0.1070   -1.0630 c3        1 PGU     -0.021900
      4 C3          1.8800   -0.5100    1.3600 cd        1 PGU     -0.103900
      5 O3          2.8370   -1.5050    1.2220 oh        1 PGU     -0.560100
      6 C4          1.2250   -0.2670    2.6110 cd        1 PGU      0.139000
      7 C4A         1.5030   -0.9130    3.8110 c2        1 PGU     -0.450000
      8 C5          0.1950    0.7380    2.5570 cd        1 PGU     -0.223200
      9 C6         -0.0630    1.3870    1.3500 cc        1 PGU      0.044000
     10 C5A        -0.5900    1.0920    3.7810 c3        1 PGU      0.244600
     11 O4P        -1.4010    2.2190    3.5750 os        1 PGU     -0.596200
     12 P          -2.9040    2.2390    4.2280 p5        1 PGU      1.429800
     13 O1P        -2.4730    2.7940    5.7120 oh        1 PGU     -0.780400
     14 O2P        -3.4700    0.8820    4.3580 o         1 PGU     -0.848000
     15 O3P        -3.6070    3.4010    3.6350 o         1 PGU     -0.848000
     16 N           2.4440   -1.9830    3.9960 n4        1 PGU     -0.554800
     17 CA          3.5460   -1.7160    4.9840 c3        1 PGU     -0.016500
     18 CB          3.8660   -2.9500    5.8340 c3        1 PGU     -0.077400
     19 CG          2.8050   -3.3050    6.8470 c3        1 PGU     -0.194400
     20 CD          3.1110   -4.6450    7.5350 c         1 PGU      0.907600
     21 OE1         3.1520   -5.6980    6.8310 o         1 PGU     -0.868800
     22 OE2         3.2830   -4.6560    8.7900 o         1 PGU     -0.868800
     23 C           4.8670   -1.2840    4.2590 c         1 PGU      0.924600
     24 OXT         5.0320   -1.6290    3.0510 o         1 PGU     -0.836300
     25 O           5.7030   -0.6330    4.9360 o         1 PGU     -0.836300
     26 H2A1        3.3720   -0.1860   -0.8370 hc        1 PGU      0.021367
     27 H2A2        2.1260    0.6650   -1.8540 hc        1 PGU      0.021367
     28 H2A3        1.9350   -1.0960   -1.4550 hc        1 PGU      0.021367
     29 HO3         3.6800   -1.1250    1.5360 ho        1 PGU      0.436000
     30 H4A1       -2.2960    3.7250    5.6890 ho        1 PGU      0.411000
     31 H4A2        0.9990   -0.6260    4.7410 hx        1 PGU      0.147000
     32 H6         -0.8430    2.1710    1.3130 h4        1 PGU      0.150000
     33 H5A1        0.1380    1.3310    4.6130 h1        1 PGU      0.031200
     34 H5A2       -1.2360    0.2210    4.0930 h1        1 PGU      0.031200
     35 HN          2.9010   -2.2300    3.1040 hn        1 PGU      0.424300
     36 HA          3.2170   -0.8700    5.6480 hx        1 PGU      0.086700
     37 HB1         4.0590   -3.8380    5.1740 hc        1 PGU      0.062200
     38 HB2         4.8270   -2.7220    6.3700 hc        1 PGU      0.062200
     39 HG1         1.8010   -3.4000    6.3590 hc        1 PGU      0.022700
     40 HG2         2.7320   -2.5010    7.6220 hc        1 PGU      0.022700
     41 H2          1.9220   -2.8010    4.3230 hn        1 PGU      0.424300
@<TRIPOS>BOND
     1    1    2 1   
     2    1    9 1   
     3    2    3 1   
     4    2    4 2   
     5    3   26 1   
     6    3   27 1   
     7    3   28 1   
     8    4    5 1   
     9    4    6 1   
    10    5   29 1   
    11    6    7 2   
    12    6    8 1   
    13    7   16 1   
    14    7   31 1   
    15    8    9 2   
    16    8   10 1   
    17    9   32 1   
    18   10   11 1   
    19   10   33 1   
    20   10   34 1   
    21   11   12 1   
    22   12   13 1   
    23   12   14 1   
    24   12   15 1   
    25   13   30 1   
    26   16   17 1   
    27   16   35 1   
    28   16   41 1   
    29   17   18 1   
    30   17   23 1   
    31   17   36 1   
    32   18   19 1   
    33   18   37 1   
    34   18   38 1   
    35   19   20 1   
    36   19   39 1   
    37   19   40 1   
    38   20   21 1   
    39   20   22 1   
    40   23   24 1   
    41   23   25 1   
@<TRIPOS>SUBSTRUCTURE
     1 PGU         1 TEMP              0 ****  ****    0 ROOT
