@<TRIPOS>MOLECULE
PGV
  127   124     1     0     0
SMALL
bcc


@<TRIPOS>ATOM
      1 P          -8.6110    2.1190    1.5900 p3        1 PGV      2.532000
      2 C01        -4.5740    1.0520    2.1190 c3        1 PGV     -0.038000
      3 C02        -5.4290   -0.0300    1.4970 c3        1 PGV     -0.011000
      4 C03        -6.8840    0.2300    1.8190 c3        1 PGV      0.035000
      5 C04       -10.2210    3.8160    2.6530 c3        1 PGV      0.053000
      6 C05       -10.5320    4.4750    3.9770 c3        1 PGV     -0.029000
      7 C06       -11.7650    5.3380    3.8340 c3        1 PGV     -0.082000
      8 O01        -5.0500   -1.2820    2.0130 os        1 PGV     -0.276000
      9 O02        -4.8050   -1.9350   -0.1470 o         1 PGV     -0.372000
     10 O03        -3.8740    1.7370    1.1070 os        1 PGV     -0.268000
     11 O04        -3.0460    3.0520    2.7620 o         1 PGV     -0.381000
     12 O05        -9.4420    5.2750    4.3700 oh        1 PGV     -0.344000
     13 O06       -12.0880    5.9080    5.0830 oh        1 PGV     -0.358000
     14 O11        -7.1270    1.6170    1.8050 o         1 PGV     -0.740000
     15 O12        -9.0010    3.1200    2.7490 os        1 PGV     -0.737000
     16 O13        -9.5500    0.9370    1.6090 o         1 PGV     -1.139000
     17 O14        -8.7160    2.8240    0.2590 o         1 PGV     -1.139000
     18 C1         -4.7170   -2.2260    1.0290 c2        1 PGV      0.315000
     19 C2         -4.2400   -3.6040    1.4330 c3        1 PGV     -0.158000
     20 C3         -3.7380   -4.3420    0.2110 c3        1 PGV     -0.158000
     21 C4         -2.8290   -5.4720    0.6430 c3        1 PGV     -0.156000
     22 C5         -2.5720   -6.3880   -0.5320 c3        1 PGV     -0.158000
     23 C6         -1.4050   -7.2980   -0.2160 c3        1 PGV     -0.157000
     24 C7         -1.3030   -8.3730   -1.2750 c3        1 PGV     -0.158000
     25 C8         -0.0940   -9.2410   -0.9980 c3        1 PGV     -0.158000
     26 C9         -0.0570  -10.3840   -1.9880 c3        1 PGV     -0.156000
     27 C10         1.1050  -11.2960   -1.6610 c3        1 PGV     -0.133000
     28 C11         0.8780  -12.6500   -2.2970 c2        1 PGV     -0.164000
     29 C12         1.8720  -13.5590   -2.3180 c1        1 PGV     -0.176000
     30 C13         3.2150  -13.2270   -1.7060 c2        1 PGV     -0.131000
     31 C14         4.0720  -14.4720   -1.6640 c3        1 PGV     -0.155000
     32 C15         5.5240  -14.0790   -1.5000 c3        1 PGV     -0.158000
     33 C16         6.3940  -15.3130   -1.6000 c3        1 PGV     -0.158000
     34 C17         7.8500  -14.9090   -1.5310 c3        1 PGV     -0.159000
     35 C18         8.7220  -16.1340   -1.7020 c3        1 PGV     -0.210000
     36 C19        -3.0220    2.7450    1.5870 c2        1 PGV      0.313000
     37 C20        -2.0650    3.4400    0.6440 c3        1 PGV     -0.162000
     38 C21        -1.3910    4.5870    1.3640 c3        1 PGV     -0.156000
     39 C22        -0.1090    4.9480    0.6460 c3        1 PGV     -0.158000
     40 C23         0.2790    6.3690    0.9930 c3        1 PGV     -0.157000
     41 C24         1.5690    6.7250    0.2870 c3        1 PGV     -0.158000
     42 C25         1.8960    8.1810    0.5400 c3        1 PGV     -0.157000
     43 C26         3.0880    8.5830   -0.3010 c3        1 PGV     -0.158000
     44 C27         3.4610   10.0160    0.0060 c3        1 PGV     -0.157000
     45 C28         4.5160   10.4830   -0.9720 c3        1 PGV     -0.158000
     46 C29         4.9620   11.8810   -0.6030 c3        1 PGV     -0.157000
     47 C30         5.9990   12.3580   -1.5960 c3        1 PGV     -0.158000
     48 C31         6.4580   13.7490   -1.2160 c3        1 PGV     -0.158000
     49 C32         7.5080   14.2180   -2.1990 c3        1 PGV     -0.158000
     50 C33         7.9610   15.6120   -1.8250 c3        1 PGV     -0.159000
     51 C34         9.0170   16.0790   -2.8020 c3        1 PGV     -0.210000
     52 H011       -5.1470    1.6820    2.6040 h1        1 PGV      0.130500
     53 H012       -3.9350    0.6460    2.7400 h1        1 PGV      0.130500
     54 H02        -5.3040   -0.0260    0.5270 h1        1 PGV      0.139000
     55 H031       -7.0900   -0.1290    2.7060 h1        1 PGV      0.088000
     56 H032       -7.4490   -0.2080    1.1500 h1        1 PGV      0.088000
     57 H041      -10.9380    3.1880    2.4240 h1        1 PGV      0.078000
     58 H042      -10.1530    4.5000    1.9550 h1        1 PGV      0.078000
     59 H05       -10.6920    3.7880    4.6540 h1        1 PGV      0.084000
     60 H061      -11.5910    6.0510    3.1840 h1        1 PGV      0.125000
     61 H062      -12.5140    4.7890    3.5220 h1        1 PGV      0.125000
     62 H1         -9.4530    5.3780    5.2530 ho        1 PGV      0.195000
     63 H06       -12.8300    6.3920    5.0050 ho        1 PGV      0.194000
     64 H21        -4.9800   -4.1010    1.8330 hc        1 PGV      0.114000
     65 H22        -3.5140   -3.5190    2.0840 hc        1 PGV      0.114000
     66 H31        -4.4980   -4.7060   -0.2840 hc        1 PGV      0.097500
     67 H32        -3.2410   -3.7240   -0.3610 hc        1 PGV      0.097500
     68 H41        -3.2570   -5.9770    1.3630 hc        1 PGV      0.077500
     69 H42        -1.9810   -5.1040    0.9620 hc        1 PGV      0.077500
     70 H51        -2.3630   -5.8530   -1.3240 hc        1 PGV      0.082000
     71 H52        -3.3690   -6.9290   -0.7050 hc        1 PGV      0.082000
     72 H61        -1.5430   -7.7140    0.6580 hc        1 PGV      0.077000
     73 H62        -0.5780   -6.7750   -0.2020 hc        1 PGV      0.077000
     74 H71        -1.2100   -7.9570   -2.1550 hc        1 PGV      0.080000
     75 H72        -2.1100   -8.9250   -1.2590 hc        1 PGV      0.080000
     76 H81         0.7190   -8.7050   -1.0880 hc        1 PGV      0.078000
     77 H82        -0.1510   -9.5980   -0.0890 hc        1 PGV      0.078000
     78 H91        -0.8930  -10.8900   -1.9340 hc        1 PGV      0.081000
     79 H92         0.0520  -10.0290   -2.8920 hc        1 PGV      0.081000
     80 H101        1.1760  -11.3990   -0.6910 hc        1 PGV      0.086500
     81 H102        1.9320  -10.9070   -2.0080 hc        1 PGV      0.086500
     82 H11         0.0120  -12.8650   -2.6920 ha        1 PGV      0.122000
     83 H12         1.7260  -14.4330   -2.7280 ha        1 PGV      0.119000
     84 H131        3.0840  -12.8900   -0.7970 ha        1 PGV      0.087000
     85 H132        3.6590  -12.5430   -2.2460 ha        1 PGV      0.087000
     86 H141        3.7980  -15.0310   -0.9090 hc        1 PGV      0.079500
     87 H142        3.9620  -14.9720   -2.4970 hc        1 PGV      0.079500
     88 H151        5.7720  -13.4470   -2.2030 hc        1 PGV      0.079500
     89 H152        5.6510  -13.6610   -0.6250 hc        1 PGV      0.079500
     90 H161        6.2210  -15.7660   -2.4490 hc        1 PGV      0.078000
     91 H162        6.1880  -15.9180   -0.8600 hc        1 PGV      0.078000
     92 H171        8.0450  -14.2680   -2.2440 hc        1 PGV      0.078000
     93 H172        8.0340  -14.4970   -0.6630 hc        1 PGV      0.078000
     94 H181        8.6520  -16.6980   -0.9040 hc        1 PGV      0.070667
     95 H182        9.6540  -15.8570   -1.8260 hc        1 PGV      0.070667
     96 H183        8.4240  -16.6390   -2.4870 hc        1 PGV      0.070667
     97 H201       -2.5600    3.7840   -0.1270 hc        1 PGV      0.122500
     98 H202       -1.3880    2.8030    0.3390 hc        1 PGV      0.122500
     99 H211       -1.1860    4.3200    2.2820 hc        1 PGV      0.092000
    100 H212       -1.9880    5.3610    1.3740 hc        1 PGV      0.092000
    101 H221       -0.2440    4.8740   -0.3200 hc        1 PGV      0.080000
    102 H222        0.6030    4.3380    0.9240 hc        1 PGV      0.080000
    103 H231       -0.4290    6.9790    0.7070 hc        1 PGV      0.079500
    104 H232        0.4050    6.4450    1.9600 hc        1 PGV      0.079500
    105 H241        2.2940    6.1640    0.6290 hc        1 PGV      0.079000
    106 H242        1.4660    6.5760   -0.6740 hc        1 PGV      0.079000
    107 H251        1.1260    8.7340    0.3000 hc        1 PGV      0.078000
    108 H252        2.1070    8.3080    1.4860 hc        1 PGV      0.078000
    109 H261        3.8440    7.9980   -0.0950 hc        1 PGV      0.079000
    110 H262        2.8600    8.5010   -1.2490 hc        1 PGV      0.079000
    111 H271        3.8120   10.0730    0.9170 hc        1 PGV      0.078000
    112 H272        2.6680   10.5840   -0.0740 hc        1 PGV      0.078000
    113 H281        5.2830    9.8770   -0.9380 hc        1 PGV      0.079000
    114 H282        4.1440   10.4880   -1.8760 hc        1 PGV      0.079000
    115 H291        4.1920   12.4840   -0.6200 hc        1 PGV      0.078000
    116 H292        5.3500   11.8730    0.2950 hc        1 PGV      0.078000
    117 H301        5.6070   12.3770   -2.4920 hc        1 PGV      0.079000
    118 H302        6.7640   11.7480   -1.5870 hc        1 PGV      0.079000
    119 H311        6.8380   13.7320   -0.3150 hc        1 PGV      0.078000
    120 H312        5.6950   14.3610   -1.2370 hc        1 PGV      0.078000
    121 H321        8.2740   13.6090   -2.1730 hc        1 PGV      0.079000
    122 H322        7.1300   14.2290   -3.1000 hc        1 PGV      0.079000
    123 H331        8.3350   15.6030   -0.9210 hc        1 PGV      0.077000
    124 H332        7.1970   16.2220   -1.8550 hc        1 PGV      0.077000
    125 H341        8.6360   16.1110   -3.7050 hc        1 PGV      0.070667
    126 H342        9.7730   15.4550   -2.7890 hc        1 PGV      0.070667
    127 H343        9.3260   16.9730   -2.5470 hc        1 PGV      0.070667
@<TRIPOS>BOND
     1    1   15 1   
     2    1   16 1   
     3    1   17 1   
     4    2    3 1   
     5    2   10 1   
     6    2   52 1   
     7    2   53 1   
     8    3    4 1   
     9    3    8 1   
    10    3   54 1   
    11    4   14 1   
    12    4   55 1   
    13    4   56 1   
    14    5    6 1   
    15    5   15 1   
    16    5   57 1   
    17    5   58 1   
    18    6    7 1   
    19    6   12 1   
    20    6   59 1   
    21    7   13 1   
    22    7   60 1   
    23    7   61 1   
    24    8   18 1   
    25    9   18 1   
    26   10   36 1   
    27   11   36 1   
    28   12   62 1   
    29   13   63 1   
    30   18   19 1   
    31   19   20 1   
    32   19   64 1   
    33   19   65 1   
    34   20   21 1   
    35   20   66 1   
    36   20   67 1   
    37   21   22 1   
    38   21   68 1   
    39   21   69 1   
    40   22   23 1   
    41   22   70 1   
    42   22   71 1   
    43   23   24 1   
    44   23   72 1   
    45   23   73 1   
    46   24   25 1   
    47   24   74 1   
    48   24   75 1   
    49   25   26 1   
    50   25   76 1   
    51   25   77 1   
    52   26   27 1   
    53   26   78 1   
    54   26   79 1   
    55   27   28 1   
    56   27   80 1   
    57   27   81 1   
    58   28   29 1   
    59   28   82 1   
    60   29   83 1   
    61   30   31 1   
    62   30   84 1   
    63   30   85 1   
    64   31   32 1   
    65   31   86 1   
    66   31   87 1   
    67   32   33 1   
    68   32   88 1   
    69   32   89 1   
    70   33   34 1   
    71   33   90 1   
    72   33   91 1   
    73   34   35 1   
    74   34   92 1   
    75   34   93 1   
    76   35   94 1   
    77   35   95 1   
    78   35   96 1   
    79   36   37 1   
    80   37   38 1   
    81   37   97 1   
    82   37   98 1   
    83   38   39 1   
    84   38   99 1   
    85   38  100 1   
    86   39   40 1   
    87   39  101 1   
    88   39  102 1   
    89   40   41 1   
    90   40  103 1   
    91   40  104 1   
    92   41   42 1   
    93   41  105 1   
    94   41  106 1   
    95   42   43 1   
    96   42  107 1   
    97   42  108 1   
    98   43   44 1   
    99   43  109 1   
   100   43  110 1   
   101   44   45 1   
   102   44  111 1   
   103   44  112 1   
   104   45   46 1   
   105   45  113 1   
   106   45  114 1   
   107   46   47 1   
   108   46  115 1   
   109   46  116 1   
   110   47   48 1   
   111   47  117 1   
   112   47  118 1   
   113   48   49 1   
   114   48  119 1   
   115   48  120 1   
   116   49   50 1   
   117   49  121 1   
   118   49  122 1   
   119   50   51 1   
   120   50  123 1   
   121   50  124 1   
   122   51  125 1   
   123   51  126 1   
   124   51  127 1   
@<TRIPOS>SUBSTRUCTURE
     1 PGV         1 TEMP              0 ****  ****    0 ROOT
