@<TRIPOS>MOLECULE
PGV
  127   126     1     0     0
SMALL
bcc


@<TRIPOS>ATOM
      1 P          -7.6720   -1.0910    1.2300 p5        1 PGV      1.428800
      2 C01        -4.2570    1.9200    0.8320 c3        1 PGV      0.118400
      3 C02        -4.8100    1.0730   -0.3080 c3        1 PGV      0.138100
      4 C03        -5.5150   -0.2000    0.1780 c3        1 PGV      0.186400
      5 C04        -6.1650   -2.0050    3.1700 c3        1 PGV      0.151400
      6 C05        -5.0520   -1.2250    3.8860 c3        1 PGV      0.076100
      7 C06        -4.0660   -2.1850    4.5530 c3        1 PGV      0.129400
      8 O01        -3.7430    0.6130   -1.1620 os        1 PGV     -0.425900
      9 O04        -2.5850    2.9690    2.5630 o         1 PGV     -0.562000
     10 O05        -5.5750   -0.3980    4.9180 oh        1 PGV     -0.643800
     11 O06        -3.0820   -1.4930    5.3000 oh        1 PGV     -0.627800
     12 O11        -6.7410    0.1780    0.7230 os        1 PGV     -0.571200
     13 O12        -7.1690   -1.1130    2.8110 os        1 PGV     -0.580200
     14 O13        -7.1080   -2.2990    0.5940 o         1 PGV     -0.817000
     15 O14        -9.0730   -0.6510    1.2260 o         1 PGV     -0.817000
     16 C1         -3.2800    1.4590   -2.1220 c         1 PGV      0.633100
     17 C2         -2.1810    0.8420   -2.9370 c3        1 PGV     -0.130400
     18 C3         -2.2800    1.2620   -4.3870 c3        1 PGV     -0.079400
     19 C4         -1.0950    0.7520   -5.1780 c3        1 PGV     -0.078400
     20 C5         -1.1970    1.1540   -6.6340 c3        1 PGV     -0.079400
     21 C6         -0.0110    0.6490   -7.4270 c3        1 PGV     -0.078400
     22 C7         -0.1130    1.0520   -8.8830 c3        1 PGV     -0.079400
     23 C8          1.0730    0.5460   -9.6770 c3        1 PGV     -0.079400
     24 C9          0.9720    0.9510  -11.1320 c3        1 PGV     -0.077400
     25 C10         2.1590    0.4430  -11.9240 c3        1 PGV     -0.050200
     26 C11         2.0880    0.8260  -13.3540 c2        1 PGV     -0.169200
     27 C12         3.0170    0.4980  -14.2580 c2        1 PGV     -0.179200
     28 C13         4.2320   -0.2880  -13.9400 c3        1 PGV     -0.048200
     29 C14         5.1070   -0.5110  -15.1560 c3        1 PGV     -0.076400
     30 C15         6.3400   -1.3160  -14.8020 c3        1 PGV     -0.079400
     31 C16         7.2160   -1.5400  -16.0150 c3        1 PGV     -0.079400
     32 C17         8.4490   -2.3450  -15.6630 c3        1 PGV     -0.080400
     33 C18         9.3250   -2.5710  -16.8680 c3        1 PGV     -0.092100
     34 C19        -2.5470    1.7370    2.4930 c         1 PGV      0.635100
     35 C20        -1.7150    0.7720    3.2780 c3        1 PGV     -0.141400
     36 C21        -0.9050    1.4730    4.3450 c3        1 PGV     -0.070400
     37 C22        -0.2140    0.4600    5.2330 c3        1 PGV     -0.085400
     38 C23         0.5390    1.1410    6.3560 c3        1 PGV     -0.076400
     39 C24         1.2390    0.1290    7.2380 c3        1 PGV     -0.079400
     40 C25         1.9860    0.8070    8.3660 c3        1 PGV     -0.078400
     41 C26         2.6870   -0.2040    9.2480 c3        1 PGV     -0.079400
     42 C27         3.4340    0.4740   10.3770 c3        1 PGV     -0.078400
     43 C28         4.1350   -0.5380   11.2580 c3        1 PGV     -0.079400
     44 C29         4.8810    0.1400   12.3870 c3        1 PGV     -0.078400
     45 C30         5.5820   -0.8720   13.2680 c3        1 PGV     -0.079400
     46 C31         6.3280   -0.1940   14.3970 c3        1 PGV     -0.079400
     47 C32         7.0290   -1.2060   15.2780 c3        1 PGV     -0.079400
     48 C33         7.7760   -0.5300   16.4080 c3        1 PGV     -0.080400
     49 C34         8.4750   -1.5330   17.2880 c3        1 PGV     -0.092100
     50 H011       -5.0980    2.2280    1.5060 h1        1 PGV      0.072200
     51 H012       -3.7140    2.8180    0.4370 h1        1 PGV      0.072200
     52 H02        -5.5250    1.7130   -0.8970 h1        1 PGV      0.089700
     53 H031       -5.6810   -0.9090   -0.6780 h1        1 PGV      0.044200
     54 H032       -4.9000   -0.7170    0.9640 h1        1 PGV      0.044200
     55 H041       -6.5940   -2.7580    3.8920 h1        1 PGV      0.045200
     56 H042       -5.7520   -2.5380    2.2700 h1        1 PGV      0.045200
     57 H05        -4.5100   -0.5610    3.1520 h1        1 PGV      0.055700
     58 H061       -4.6140   -2.8950    5.2290 h1        1 PGV      0.042200
     59 H062       -3.4980   -2.7600    3.7760 h1        1 PGV      0.042200
     60 H1         -6.4360   -0.0800    4.6080 ho        1 PGV      0.445000
     61 H06        -3.5480   -0.8480    5.8490 ho        1 PGV      0.418000
     62 H21        -1.2070    1.1830   -2.4960 hc        1 PGV      0.074700
     63 H22        -2.2280   -0.2750   -2.8450 hc        1 PGV      0.074700
     64 H31        -3.2310    0.8630   -4.8290 hc        1 PGV      0.057200
     65 H32        -2.3320    2.3820   -4.4490 hc        1 PGV      0.057200
     66 H41        -0.1460    1.1610   -4.7410 hc        1 PGV      0.039200
     67 H42        -1.0410   -0.3660   -5.0990 hc        1 PGV      0.039200
     68 H51        -2.1450    0.7430   -7.0710 hc        1 PGV      0.042200
     69 H52        -1.2550    2.2720   -6.7120 hc        1 PGV      0.042200
     70 H61         0.9370    1.0590   -6.9890 hc        1 PGV      0.038700
     71 H62         0.0450   -0.4690   -7.3490 hc        1 PGV      0.038700
     72 H71        -1.0610    0.6420   -9.3210 hc        1 PGV      0.040200
     73 H72        -0.1690    2.1700   -8.9610 hc        1 PGV      0.040200
     74 H81         2.0210    0.9550   -9.2370 hc        1 PGV      0.039200
     75 H82         1.1280   -0.5720   -9.6000 hc        1 PGV      0.039200
     76 H91         0.0240    0.5420  -11.5710 hc        1 PGV      0.041200
     77 H92         0.9180    2.0690  -11.2090 hc        1 PGV      0.041200
     78 H101        3.1100    0.8460  -11.4770 hc        1 PGV      0.047200
     79 H102        2.2150   -0.6780  -11.8400 hc        1 PGV      0.047200
     80 H11         1.2040    1.4140  -13.6520 ha        1 PGV      0.122000
     81 H12         2.9070    0.8130  -15.3080 ha        1 PGV      0.120000
     82 H131        4.8230    0.2440  -13.1430 hc        1 PGV      0.047700
     83 H132        3.9310   -1.2810  -13.5060 hc        1 PGV      0.047700
     84 H141        4.5220   -1.0470  -15.9480 hc        1 PGV      0.040200
     85 H142        5.4150    0.4790  -15.5850 hc        1 PGV      0.040200
     86 H151        6.9250   -0.7790  -14.0090 hc        1 PGV      0.040200
     87 H152        6.0320   -2.3050  -14.3720 hc        1 PGV      0.040200
     88 H161        6.6310   -2.0770  -16.8080 hc        1 PGV      0.038700
     89 H162        7.5240   -0.5510  -16.4450 hc        1 PGV      0.038700
     90 H171        9.0320   -1.8080  -14.8690 hc        1 PGV      0.038700
     91 H172        8.1390   -3.3340  -15.2320 hc        1 PGV      0.038700
     92 H181       10.2270   -3.1660  -16.5870 hc        1 PGV      0.031700
     93 H182        8.7690   -3.1280  -17.6610 hc        1 PGV      0.031700
     94 H183        9.6640   -1.5980  -17.2970 hc        1 PGV      0.031700
     95 H201       -1.0440    0.2220    2.5670 hc        1 PGV      0.090700
     96 H202       -2.4030    0.0100    3.7470 hc        1 PGV      0.090700
     97 H211       -1.5810    2.1230    4.9600 hc        1 PGV      0.049200
     98 H212       -0.1490    2.1490    3.8660 hc        1 PGV      0.049200
     99 H221        0.4970   -0.1550    4.6210 hc        1 PGV      0.050200
    100 H222       -0.9790   -0.2460    5.6580 hc        1 PGV      0.050200
    101 H231       -0.1740    1.7480    6.9730 hc        1 PGV      0.037200
    102 H232        1.2930    1.8520    5.9270 hc        1 PGV      0.037200
    103 H241        1.9560   -0.4750    6.6220 hc        1 PGV      0.040700
    104 H242        0.4840   -0.5850    7.6610 hc        1 PGV      0.040700
    105 H251        1.2690    1.4110    8.9830 hc        1 PGV      0.037700
    106 H252        2.7400    1.5220    7.9420 hc        1 PGV      0.037700
    107 H261        3.4040   -0.8080    8.6310 hc        1 PGV      0.039200
    108 H262        1.9330   -0.9190    9.6710 hc        1 PGV      0.039200
    109 H271        2.7160    1.0770   10.9930 hc        1 PGV      0.038700
    110 H272        4.1870    1.1890    9.9530 hc        1 PGV      0.038700
    111 H281        4.8520   -1.1410   10.6410 hc        1 PGV      0.039200
    112 H282        3.3810   -1.2530   11.6810 hc        1 PGV      0.039200
    113 H291        4.1630    0.7430   13.0040 hc        1 PGV      0.039200
    114 H292        5.6340    0.8550   11.9630 hc        1 PGV      0.039200
    115 H301        6.2990   -1.4750   12.6510 hc        1 PGV      0.039200
    116 H302        4.8280   -1.5870   13.6920 hc        1 PGV      0.039200
    117 H311        5.6110    0.4080   15.0140 hc        1 PGV      0.039200
    118 H312        7.0820    0.5210   13.9740 hc        1 PGV      0.039200
    119 H321        7.7470   -1.8090   14.6620 hc        1 PGV      0.039200
    120 H322        6.2760   -1.9220   15.7020 hc        1 PGV      0.039200
    121 H331        7.0570    0.0740   17.0230 hc        1 PGV      0.038200
    122 H332        8.5280    0.1870   15.9830 hc        1 PGV      0.038200
    123 H341        9.0190   -1.0140   18.1140 hc        1 PGV      0.031367
    124 H342        7.7390   -2.2410   17.7410 hc        1 PGV      0.031367
    125 H343        9.2140   -2.1280   16.6980 hc        1 PGV      0.031367
    126 O03        -3.3500    1.1030    1.5890 os        1 PGV     -0.431900
    127 O02        -3.7580    2.5920   -2.2260 o         1 PGV     -0.558000
@<TRIPOS>BOND
     1    1   12 1   
     2    1   13 1   
     3    1   14 1   
     4    1   15 1   
     5    2    3 1   
     6    2   50 1   
     7    2   51 1   
     8    2  126 1   
     9    3    4 1   
    10    3    8 1   
    11    3   52 1   
    12    4   12 1   
    13    4   53 1   
    14    4   54 1   
    15    5    6 1   
    16    5   13 1   
    17    5   55 1   
    18    5   56 1   
    19    6    7 1   
    20    6   10 1   
    21    6   57 1   
    22    7   11 1   
    23    7   58 1   
    24    7   59 1   
    25    8   16 1   
    26    9   34 2   
    27   10   60 1   
    28   11   61 1   
    29   16   17 1   
    30   16  127 2   
    31   17   18 1   
    32   17   62 1   
    33   17   63 1   
    34   18   19 1   
    35   18   64 1   
    36   18   65 1   
    37   19   20 1   
    38   19   66 1   
    39   19   67 1   
    40   20   21 1   
    41   20   68 1   
    42   20   69 1   
    43   21   22 1   
    44   21   70 1   
    45   21   71 1   
    46   22   23 1   
    47   22   72 1   
    48   22   73 1   
    49   23   24 1   
    50   23   74 1   
    51   23   75 1   
    52   24   25 1   
    53   24   76 1   
    54   24   77 1   
    55   25   26 1   
    56   25   78 1   
    57   25   79 1   
    58   26   27 2   
    59   26   80 1   
    60   27   28 1   
    61   27   81 1   
    62   28   29 1   
    63   28   82 1   
    64   28   83 1   
    65   29   30 1   
    66   29   84 1   
    67   29   85 1   
    68   30   31 1   
    69   30   86 1   
    70   30   87 1   
    71   31   32 1   
    72   31   88 1   
    73   31   89 1   
    74   32   33 1   
    75   32   90 1   
    76   32   91 1   
    77   33   92 1   
    78   33   93 1   
    79   33   94 1   
    80   34   35 1   
    81   34  126 1   
    82   35   36 1   
    83   35   95 1   
    84   35   96 1   
    85   36   37 1   
    86   36   97 1   
    87   36   98 1   
    88   37   38 1   
    89   37   99 1   
    90   37  100 1   
    91   38   39 1   
    92   38  101 1   
    93   38  102 1   
    94   39   40 1   
    95   39  103 1   
    96   39  104 1   
    97   40   41 1   
    98   40  105 1   
    99   40  106 1   
   100   41   42 1   
   101   41  107 1   
   102   41  108 1   
   103   42   43 1   
   104   42  109 1   
   105   42  110 1   
   106   43   44 1   
   107   43  111 1   
   108   43  112 1   
   109   44   45 1   
   110   44  113 1   
   111   44  114 1   
   112   45   46 1   
   113   45  115 1   
   114   45  116 1   
   115   46   47 1   
   116   46  117 1   
   117   46  118 1   
   118   47   48 1   
   119   47  119 1   
   120   47  120 1   
   121   48   49 1   
   122   48  121 1   
   123   48  122 1   
   124   49  123 1   
   125   49  124 1   
   126   49  125 1   
@<TRIPOS>SUBSTRUCTURE
     1 PGV         1 TEMP              0 ****  ****    0 ROOT
