@<TRIPOS>MOLECULE
PGV
  127   119     1     0     0
SMALL
bcc


@<TRIPOS>ATOM
      1 P           2.8260   -0.4710    2.7900 p5        1 PGV      1.948000
      2 C01         8.1220    3.3900    2.0890 c2        1 PGV     -0.385000
      3 C02         4.2410   -1.4110   -0.7870 c3        1 PGV     -0.102000
      4 C03         3.5990   -0.7070    0.3680 c1        1 PGV      0.022000
      5 C04         1.8560    0.4760    5.1340 c2        1 PGV     -0.332000
      6 C05         2.3560    0.3690    6.3670 c2        1 PGV     -0.034000
      7 C06         2.8570    1.6260    9.8160 c1        1 PGV     -0.041000
      8 O01         4.8160   -2.6700   -0.3930 os        1 PGV     -0.263000
      9 O04         7.4070    3.4240    3.1970 os        1 PGV      0.033000
     10 O05         3.3160    1.2190    6.8810 oh        1 PGV     -0.335000
     11 O06         3.0030    2.7650    9.2480 oh        1 PGV     -0.157000
     12 O11         3.5450   -1.3330    1.4910 os        1 PGV     -0.590000
     13 O12         3.0110   -1.7740    3.7340 oh        1 PGV     -0.805000
     14 O13         1.4150   -0.2170    2.4920 o         1 PGV     -0.827500
     15 O14         3.9020    0.4700    3.1790 o         1 PGV     -0.827500
     16 C1          5.3050   -3.4770   -1.3670 c2        1 PGV      0.294000
     17 C2          5.9060   -4.7400   -0.8260 c3        1 PGV     -0.162000
     18 C3          5.4040   -5.9480   -1.5880 c3        1 PGV     -0.156000
     19 C4          6.1000   -7.2080   -1.1200 c3        1 PGV     -0.157000
     20 C5          5.5900   -8.4220   -1.8670 c3        1 PGV     -0.158000
     21 C6          6.2820   -9.6840   -1.3990 c3        1 PGV     -0.158000
     22 C7          5.7760  -10.8970   -2.1490 c3        1 PGV     -0.157000
     23 C8          6.4650  -12.1600   -1.6790 c3        1 PGV     -0.184000
     24 C9          5.9700  -13.3760   -2.4340 c3        1 PGV     -0.252000
     25 C10         6.5350  -14.6550   -2.0820 c1        1 PGV     -0.082000
     26 C11         5.3220  -17.4380   -3.3080 c1        1 PGV     -0.239000
     27 C12         4.8090  -18.4440   -3.7030 c1        1 PGV     -0.239000
     28 C13         8.8490  -15.7150   -4.3330 c3        1 PGV     -0.219000
     29 C14         9.8110  -16.7660   -3.8440 c3        1 PGV     -0.157000
     30 C15        11.0140  -16.8870   -4.7560 c3        1 PGV     -0.157000
     31 C16        11.9750  -17.9460   -4.2630 c3        1 PGV     -0.185000
     32 C17        13.1750  -18.0780   -5.1780 c3        1 PGV     -0.255000
     33 C18        14.1780  -19.0580   -4.8340 c1        1 PGV     -0.059000
     34 C19         6.7250    2.3830    3.6890 c2        1 PGV     -0.034000
     35 C20         5.6240    2.6200    4.6560 c3        1 PGV     -0.146000
     36 C21         5.5820    4.0410    5.1720 c3        1 PGV     -0.152000
     37 C22         4.5070    4.2030    6.2250 c3        1 PGV     -0.164000
     38 C23         4.4480    5.6260    6.7360 c3        1 PGV     -0.156000
     39 C24         3.3560    5.7930    7.7720 c3        1 PGV     -0.166000
     40 C25         3.3260    7.2050    8.3140 c3        1 PGV     -0.154000
     41 C26         2.2320    7.3730    9.3480 c3        1 PGV     -0.160000
     42 C27         2.2130    8.7810    9.9020 c3        1 PGV     -0.156000
     43 C28         1.1210    8.9510   10.9360 c3        1 PGV     -0.158000
     44 C29         1.1100   10.3570   11.4960 c3        1 PGV     -0.157000
     45 C30         0.0200   10.5290   12.5330 c3        1 PGV     -0.157000
     46 C31         0.0190   11.9330   13.0980 c3        1 PGV     -0.162000
     47 C32        -1.0710   12.1070   14.1340 c3        1 PGV     -0.139000
     48 C33        -1.0470   13.5070   14.7190 c3        1 PGV     -0.248000
     49 C34        -2.1710   13.7670   15.5960 c1        1 PGV     -0.045000
     50 H011        5.8670    0.8840    2.8690 ho        1 PGV      0.286000
     51 H012        8.9990    4.0400    2.1160 h4        1 PGV      0.130000
     52 H02         7.9580    2.6290    1.3290 h4        1 PGV      0.130000
     53 H031        5.0560   -0.7610   -1.2040 h1        1 PGV      0.108000
     54 H032        3.4690   -1.5830   -1.5840 h1        1 PGV      0.108000
     55 H041        2.1670    1.2780    4.4460 ha        1 PGV      0.159500
     56 H042        3.9100   -2.0820    3.7850 ho        1 PGV      0.241000
     57 H05         1.0990   -0.2200    4.7410 ha        1 PGV      0.159500
     58 H061        2.7680    0.7240    9.1650 ha        1 PGV      0.014000
     59 H062        2.0850   -0.3850    7.1220 h4        1 PGV      0.149000
     60 H1          3.7450    1.6740    6.1380 ho        1 PGV      0.233000
     61 H06         3.0300    2.7780    8.2610 ho        1 PGV      0.175000
     62 H21         5.1900   -3.5410    2.4150 ha        1 PGV      0.001250
     63 H22         4.8890   -3.2410    1.8860 ha        1 PGV      0.001250
     64 H31         5.6610   -4.8300    0.2660 hc        1 PGV      0.114500
     65 H32         7.0210   -4.6520   -0.9250 hc        1 PGV      0.114500
     66 H41         5.5800   -5.7960   -2.6860 hc        1 PGV      0.094000
     67 H42         4.2960   -6.0500   -1.4400 hc        1 PGV      0.094000
     68 H51         7.2070   -7.1080   -1.2760 hc        1 PGV      0.079500
     69 H52         5.9320   -7.3440   -0.0190 hc        1 PGV      0.079500
     70 H61         5.7590   -8.2840   -2.9670 hc        1 PGV      0.081000
     71 H62         4.4830   -8.5200   -1.7120 hc        1 PGV      0.081000
     72 H71         7.3890   -9.5830   -1.5480 hc        1 PGV      0.079500
     73 H72         6.1080   -9.8220   -0.2990 hc        1 PGV      0.079500
     74 H81         5.9520  -10.7590   -3.2480 hc        1 PGV      0.080000
     75 H82         4.6680  -10.9950   -2.0010 hc        1 PGV      0.080000
     76 H91         6.2820  -12.3000   -0.5810 hc        1 PGV      0.082000
     77 H92         7.5730  -12.0570   -1.8180 hc        1 PGV      0.082000
     78 H101        4.8500  -13.4810   -2.3110 hc        1 PGV      0.150500
     79 H102        6.1350  -13.2360   -3.5450 hc        1 PGV      0.150500
     80 H11         7.2670  -14.6750   -1.2600 ha        1 PGV      0.047000
     81 H12         5.7810  -16.5340   -2.9520 ha        1 PGV      0.233000
     82 H131        7.9620  -15.6520   -3.6510 hc        1 PGV      0.076667
     83 H132        4.3550  -19.3340   -4.0530 ha        1 PGV      0.233000
     84 H141        8.4840  -15.9610   -5.3590 hc        1 PGV      0.076667
     85 H142        9.3430  -14.7140   -4.3690 hc        1 PGV      0.076667
     86 H151       10.1530  -16.5110   -2.8060 hc        1 PGV      0.080500
     87 H152        9.2860  -17.7560   -3.7840 hc        1 PGV      0.080500
     88 H161       10.6720  -17.1410   -5.7940 hc        1 PGV      0.077500
     89 H162       11.5410  -15.8980   -4.8140 hc        1 PGV      0.077500
     90 H171       12.3190  -17.6880   -3.2270 hc        1 PGV      0.081000
     91 H172       11.4440  -18.9320   -4.1970 hc        1 PGV      0.081000
     92 H181       12.8350  -18.3200   -6.2290 hc        1 PGV      0.145500
     93 H182       13.7120  -17.0850   -5.2580 hc        1 PGV      0.145500
     94 H183       14.0020  -19.6440   -3.9170 ha        1 PGV      0.035000
     95 H201        6.2370   -1.0660    3.7530 ha        1 PGV      0.001250
     96 H202        6.1670   -1.5930    3.3320 ha        1 PGV      0.001250
     97 H211        4.6430    2.3390    4.1680 hc        1 PGV      0.125000
     98 H212        5.7920    1.9030    5.5060 hc        1 PGV      0.125000
     99 H221        6.5810    4.3160    5.6020 hc        1 PGV      0.087000
    100 H222        5.3890    4.7420    4.3180 hc        1 PGV      0.087000
    101 H231        4.7090    3.5050    7.0820 hc        1 PGV      0.078000
    102 H232        3.5100    3.9160    5.7940 hc        1 PGV      0.078000
    103 H241        4.2650    6.3260    5.8790 hc        1 PGV      0.078000
    104 H242        5.4390    5.9040    7.1840 hc        1 PGV      0.078000
    105 H251        3.5190    5.0680    8.6140 hc        1 PGV      0.085500
    106 H252        2.3630    5.5440    7.3130 hc        1 PGV      0.085500
    107 H261        4.3190    7.4520    8.7740 hc        1 PGV      0.075500
    108 H262        3.1630    7.9280    7.4720 hc        1 PGV      0.075500
    109 H271        2.3900    6.6410   10.1830 hc        1 PGV      0.083000
    110 H272        1.2380    7.1360    8.8850 hc        1 PGV      0.083000
    111 H281        3.2080    9.0170   10.3630 hc        1 PGV      0.076000
    112 H282        2.0550    9.5130    9.0650 hc        1 PGV      0.076000
    113 H291        0.1250    8.7220   10.4730 hc        1 PGV      0.081000
    114 H292        1.2750    8.2150   11.7690 hc        1 PGV      0.081000
    115 H301        2.1070   10.5860   11.9570 hc        1 PGV      0.077000
    116 H302        0.9550   11.0920   10.6630 hc        1 PGV      0.077000
    117 H311       -0.9780   10.3090   12.0700 hc        1 PGV      0.081500
    118 H312        0.1700    9.7900   13.3630 hc        1 PGV      0.081500
    119 H321        1.0180   12.1520   13.5600 hc        1 PGV      0.075500
    120 H322       -0.1300   12.6720   12.2670 hc        1 PGV      0.075500
    121 H331       -2.0750   11.9120   13.6740 hc        1 PGV      0.093000
    122 H332       -0.9330   11.3590   14.9580 hc        1 PGV      0.093000
    123 H341       -1.1640   14.2620   13.8800 hc        1 PGV      0.109500
    124 H342       -0.0400   13.7010   15.1840 hc        1 PGV      0.109500
    125 H343       -2.0120   14.5760   16.3300 ha        1 PGV      0.026000
    126 O03         6.7610    1.2900    2.9040 oh        1 PGV     -0.285000
    127 O02         5.2280   -3.1180   -2.5480 o         1 PGV     -0.387000
@<TRIPOS>BOND
     1    1   12 1   
     2    1   13 1   
     3    1   14 1   
     4    1   15 1   
     5    2    9 1   
     6    2   51 1   
     7    2   52 1   
     8    3    4 1   
     9    3    8 1   
    10    3   53 1   
    11    3   54 1   
    12    4   12 1   
    13    5    6 1   
    14    5   55 1   
    15    5   57 1   
    16    6   10 1   
    17    6   59 1   
    18    7   11 1   
    19    7   58 1   
    20    8   16 1   
    21    9   34 1   
    22   10   60 1   
    23   11   61 1   
    24   13   56 1   
    25   16   17 1   
    26   16  127 1   
    27   17   18 1   
    28   17   64 1   
    29   17   65 1   
    30   18   19 1   
    31   18   66 1   
    32   18   67 1   
    33   19   20 1   
    34   19   68 1   
    35   19   69 1   
    36   20   21 1   
    37   20   70 1   
    38   20   71 1   
    39   21   22 1   
    40   21   72 1   
    41   21   73 1   
    42   22   23 1   
    43   22   74 1   
    44   22   75 1   
    45   23   24 1   
    46   23   76 1   
    47   23   77 1   
    48   24   25 1   
    49   24   78 1   
    50   24   79 1   
    51   25   80 1   
    52   26   27 1   
    53   26   81 1   
    54   27   83 1   
    55   28   29 1   
    56   28   82 1   
    57   28   84 1   
    58   28   85 1   
    59   29   30 1   
    60   29   86 1   
    61   29   87 1   
    62   30   31 1   
    63   30   88 1   
    64   30   89 1   
    65   31   32 1   
    66   31   90 1   
    67   31   91 1   
    68   32   33 1   
    69   32   92 1   
    70   32   93 1   
    71   33   94 1   
    72   34   35 1   
    73   34  126 1   
    74   35   36 1   
    75   35   97 1   
    76   35   98 1   
    77   36   37 1   
    78   36   99 1   
    79   36  100 1   
    80   37   38 1   
    81   37  101 1   
    82   37  102 1   
    83   38   39 1   
    84   38  103 1   
    85   38  104 1   
    86   39   40 1   
    87   39  105 1   
    88   39  106 1   
    89   40   41 1   
    90   40  107 1   
    91   40  108 1   
    92   41   42 1   
    93   41  109 1   
    94   41  110 1   
    95   42   43 1   
    96   42  111 1   
    97   42  112 1   
    98   43   44 1   
    99   43  113 1   
   100   43  114 1   
   101   44   45 1   
   102   44  115 1   
   103   44  116 1   
   104   45   46 1   
   105   45  117 1   
   106   45  118 1   
   107   46   47 1   
   108   46  119 1   
   109   46  120 1   
   110   47   48 1   
   111   47  121 1   
   112   47  122 1   
   113   48   49 1   
   114   48  123 1   
   115   48  124 1   
   116   49  125 1   
   117   50  126 1   
   118   62   63 1   
   119   95   96 1   
@<TRIPOS>SUBSTRUCTURE
     1 PGV         1 TEMP              0 ****  ****    0 ROOT
