@<TRIPOS>MOLECULE
PGW
  127   110     1     0     0
SMALL
bcc


@<TRIPOS>ATOM
      1 CAD         6.7200    3.0770   -2.7470 c1        1 PGW     -0.083000
      2 OAE         7.7510    3.8500   -2.5490 oh        1 PGW     -0.224000
      3 OAF         7.4970    3.7130    0.4250 oh        1 PGW     -0.341000
      4 P           7.0130    3.6070    4.0550 p3        1 PGW      2.619000
      5 C01        13.1500   -1.6500   -0.0690 c2        1 PGW     -0.279000
      6 O01        12.2140    0.4580    0.3060 os        1 PGW     -0.243000
      7 C02        12.0740   -0.9240    0.2480 c2        1 PGW     -0.028000
      8 C2         10.5950    4.5550   -1.7210 c1        1 PGW     -0.414000
      9 O02        10.0420    0.6840    0.8130 o         1 PGW     -0.389000
     10 C03         6.8970    0.0750    4.0010 c1        1 PGW      0.293000
     11 C3         11.2140    4.4910   -0.6910 c1        1 PGW     -0.016000
     12 C04         8.0700    3.6510    2.7760 c3        1 PGW     -0.713000
     13 C4         11.9290    4.3870    0.4910 c2        1 PGW     -0.390000
     14 O04         3.0860    1.6210    1.2420 o         1 PGW     -0.381000
     15 C05         7.5380    4.4840    1.6080 c3        1 PGW     -0.036000
     16 C5         11.5230    4.9280    1.6600 c1        1 PGW      0.078000
     17 C06         8.7220    8.8160    4.5170 c1        1 PGW     -0.060000
     18 C6         11.1720    5.3860    2.7380 c1        1 PGW     -0.427000
     19 C07         9.3500    9.7010    3.7360 c1        1 PGW     -0.101000
     20 C7         10.9150    6.0120    3.9330 c2        1 PGW      0.095000
     21 C08         9.7820   10.6300    3.0750 c1        1 PGW     -0.199000
     22 C8          8.3460    8.4760    0.3220 c3        1 PGW     -0.274500
     23 C09        10.3080   11.6860    2.2770 c3        1 PGW     -0.034000
     24 C9          9.8360    6.6860    4.2730 c1        1 PGW     -0.170000
     25 C10         8.8320    7.4350    4.6970 c2        1 PGW     -0.123000
     26 C11        11.0260   11.1680    1.0400 c3        1 PGW     -0.175000
     27 O11         6.7990    1.2450    4.0880 o         1 PGW     -0.285000
     28 C12        11.5960   12.3050    0.2210 c3        1 PGW     -0.138000
     29 O12         8.1810    2.2850    2.4020 oh        1 PGW     -0.350000
     30 C13        12.3360   11.7720   -0.9920 c3        1 PGW     -0.256000
     31 O13         7.5700    3.5340    5.3870 o         1 PGW     -1.047500
     32 C14        12.8000   12.8150   -1.8810 c1        1 PGW     -0.057000
     33 O14         5.6110    3.7830    3.7070 o         1 PGW     -1.047500
     34 C15         3.8740   -3.9510   -8.8030 c3        1 PGW     -0.221000
     35 C16         2.6800   -4.7180   -9.3410 c3        1 PGW     -0.135000
     36 C17         3.1180   -5.7500  -10.3590 c3        1 PGW     -0.115000
     37 C18         1.9560   -6.5410  -10.8700 c3        1 PGW     -0.317000
     38 C19         4.1070    2.0200    0.6720 c2        1 PGW      0.306000
     39 C20         4.8220    1.4480   -0.5100 c3        1 PGW     -0.188000
     40 C21         3.8770    0.7130   -1.4340 c3        1 PGW     -0.144000
     41 C22         4.6400    0.1300   -2.6040 c3        1 PGW     -0.164000
     42 C23         3.7060   -0.5100   -3.6070 c3        1 PGW     -0.155000
     43 C24         4.4760   -1.1000   -4.7700 c3        1 PGW     -0.162000
     44 C25         3.5460   -1.7360   -5.7810 c3        1 PGW     -0.134000
     45 C26         4.3310   -2.3320   -6.9350 c3        1 PGW     -0.223000
     46 C27         3.4560   -2.8120   -7.9940 c1        1 PGW     -0.046000
     47 C28         2.2010   -7.7240  -11.7700 c3        1 PGW     -0.390000
     48 C29         0.0330   -8.3770  -14.6960 c3        1 PGW     -0.274500
     49 C30         1.7170   -7.9330  -10.3840 c1        1 PGW      0.184000
     50 HAD         6.3760    3.2180   -3.8070 ha        1 PGW      0.010000
     51 HADA        6.5100    4.8730    1.8510 h1        1 PGW      0.113500
     52 HOAE        8.0860    3.7550   -1.6250 ho        1 PGW      0.294000
     53 HOAF        6.7730    3.0750    0.5140 ho        1 PGW      0.223000
     54 H01        11.0700   -1.3190    0.4730 h4        1 PGW      0.159000
     55 H01A        4.2960    3.4010    2.0200 ho        1 PGW      0.284000
     56 H02        13.0930   -2.7420   -0.1240 ha        1 PGW      0.122000
     57 H2         10.0610    4.6230   -2.6300 ha        1 PGW      0.205000
     58 H2A        11.4030    2.3220    0.6100 h5        1 PGW      0.260000
     59 H03         7.6060    0.3290    1.0510 ha        1 PGW      0.001500
     60 H03A        7.1920    0.2130    1.5780 ha        1 PGW      0.001500
     61 H3          8.9530   -1.4420    1.2140 ha        1 PGW      0.001500
     62 H3A         9.0580   -2.1050    1.1130 ha        1 PGW      0.001500
     63 H04         9.0980    4.0430    3.0440 h1        1 PGW      0.177000
     64 H04A        8.7610    2.2200    1.6210 ho        1 PGW      0.259000
     65 H4          9.2980    0.2950    3.4610 ha        1 PGW      0.001500
     66 H4A         9.1120    0.0290    2.8640 ha        1 PGW      0.001500
     67 H05         8.2320    5.3360    1.3600 h1        1 PGW      0.113500
     68 H5         12.9460    3.9690    0.4300 ha        1 PGW      0.128000
     69 H5A        14.1260   -1.2000   -0.2840 ha        1 PGW      0.122000
     70 H06        10.0960    7.0120   -2.2340 ha        1 PGW      0.001500
     71 H06A       10.0310    7.6510   -2.4540 ha        1 PGW      0.001500
     72 H6          8.4870    5.8390   -1.0820 ha        1 PGW      0.001500
     73 H6A         7.8350    5.8370   -0.8910 ha        1 PGW      0.001500
     74 H07         9.6310   10.2140   -2.2080 ha        1 PGW      0.001500
     75 H07A        9.6030    9.7920   -1.6770 ha        1 PGW      0.001500
     76 H7         11.7170    5.9310    4.7020 ha        1 PGW      0.143000
     77 H7A         7.6880    7.6360    0.6360 hc        1 PGW      0.068500
     78 H08        11.7250    9.0340   -0.6530 ha        1 PGW      0.001500
     79 H08A       11.4360    8.4310   -0.7700 ha        1 PGW      0.001500
     80 H8          9.2040    8.0680   -0.2600 hc        1 PGW      0.068500
     81 H8A         7.7690    9.1830   -0.3130 hc        1 PGW      0.068500
     82 H09        11.5810    9.1580   -3.0370 ha        1 PGW      0.001500
     83 H09A       11.8800    9.5840   -3.4710 ha        1 PGW      0.001500
     84 H11        11.0250   12.2890    2.9050 hc        1 PGW      0.094000
     85 H11A        9.4790   12.3820    1.9630 hc        1 PGW      0.094000
     86 H12        10.3070   10.5700    0.4160 hc        1 PGW      0.093500
     87 H12A       11.8470   10.4700    1.3490 hc        1 PGW      0.093500
     88 H13        12.3000   12.9110    0.8470 hc        1 PGW      0.085000
     89 H13A       10.7750   12.9910   -0.1140 hc        1 PGW      0.085000
     90 H14        13.1500   11.0700   -0.6540 hc        1 PGW      0.123500
     91 H14A       11.6230   11.1380   -1.6140 hc        1 PGW      0.123500
     92 H14B       13.5720   12.4950   -2.6020 ha        1 PGW      0.023000
     93 H15         6.3940   -5.0840   -6.8100 ha        1 PGW      0.001500
     94 H15A        5.9340   -5.3370   -6.3830 ha        1 PGW      0.001500
     95 H16         4.5740   -4.6620   -8.2780 hc        1 PGW      0.099500
     96 H16A        4.4490   -3.5040   -9.6680 hc        1 PGW      0.099500
     97 H17         1.9550   -4.0000   -9.8070 hc        1 PGW      0.097500
     98 H17A        2.1490   -5.2240   -8.4930 hc        1 PGW      0.097500
     99 H18         3.8800   -6.4340   -9.9000 hc        1 PGW      0.080000
    100 H18A        3.6150   -5.2370  -11.2270 hc        1 PGW      0.080000
    101 H20         8.4070    1.6980   -0.6050 ha        1 PGW      0.001500
    102 H20A        7.8170    1.6460   -0.9380 ha        1 PGW      0.001500
    103 H21         5.3630    2.2650   -1.0730 hc        1 PGW      0.138000
    104 H21A        5.6110    0.7490   -0.1160 hc        1 PGW      0.138000
    105 H22         3.0920    1.4210   -1.8080 hc        1 PGW      0.086500
    106 H22A        3.3470   -0.0990   -0.8700 hc        1 PGW      0.086500
    107 H23         5.2370    0.9440   -3.1000 hc        1 PGW      0.089500
    108 H23A        5.3720   -0.6340   -2.2310 hc        1 PGW      0.089500
    109 H24         3.1060   -1.3150   -3.1060 hc        1 PGW      0.078500
    110 H24A        2.9790    0.2550   -3.9880 hc        1 PGW      0.078500
    111 H25         5.2020   -1.8660   -4.3890 hc        1 PGW      0.077500
    112 H25A        5.0780   -0.2930   -5.2660 hc        1 PGW      0.077500
    113 H26         2.9430   -2.5410   -5.2860 hc        1 PGW      0.090500
    114 H26A        2.8240   -0.9730   -6.1740 hc        1 PGW      0.090500
    115 H27         4.9520   -1.5160   -7.4140 hc        1 PGW      0.101500
    116 H27A        5.0540   -3.1020   -6.5410 hc        1 PGW      0.101500
    117 H28         1.0730   -5.9030  -11.0850 hc        1 PGW      0.151000
    118 H28A        3.2400   -8.0040  -12.0290 hc        1 PGW      0.148500
    119 H29        -0.1130   -7.3210  -14.3780 hc        1 PGW      0.068500
    120 H29A        1.5220   -7.8980  -12.6290 hc        1 PGW      0.148500
    121 H29B       -0.6010   -8.5860  -15.5850 hc        1 PGW      0.068500
    122 H30         1.1010   -8.5420  -14.9560 hc        1 PGW      0.068500
    123 H30A       -0.2570   -9.0580  -13.8660 hc        1 PGW      0.068500
    124 H9          8.7270    9.0070    1.2230 hc        1 PGW      0.068500
    125 H10         8.0100    6.9660    5.2750 ha        1 PGW      0.129000
    126 C1         11.1230    1.2340    0.6040 c2        1 PGW      0.253000
    127 O03         4.7100    3.1280    1.1780 oh        1 PGW     -0.340000
@<TRIPOS>BOND
     1    1    2 1   
     2    1   50 1   
     3    2   52 1   
     4    3   15 1   
     5    3   53 1   
     6    4   12 1   
     7    4   31 1   
     8    4   33 1   
     9    5    7 1   
    10    5   56 1   
    11    5   69 1   
    12    6    7 1   
    13    6  126 1   
    14    7   54 1   
    15    8   11 1   
    16    8   57 1   
    17    9  126 1   
    18   10   27 1   
    19   11   13 1   
    20   12   15 1   
    21   12   29 1   
    22   12   63 1   
    23   13   16 1   
    24   13   68 1   
    25   14   38 1   
    26   15   51 1   
    27   15   67 1   
    28   16   18 1   
    29   17   19 1   
    30   17   25 1   
    31   18   20 1   
    32   19   21 1   
    33   20   24 1   
    34   20   76 1   
    35   21   23 1   
    36   22   77 1   
    37   22   80 1   
    38   22   81 1   
    39   22  124 1   
    40   23   26 1   
    41   23   84 1   
    42   23   85 1   
    43   24   25 1   
    44   25  125 1   
    45   26   28 1   
    46   26   86 1   
    47   26   87 1   
    48   28   30 1   
    49   28   88 1   
    50   28   89 1   
    51   29   64 1   
    52   30   32 1   
    53   30   90 1   
    54   30   91 1   
    55   32   92 1   
    56   34   35 1   
    57   34   46 1   
    58   34   95 1   
    59   34   96 1   
    60   35   36 1   
    61   35   97 1   
    62   35   98 1   
    63   36   37 1   
    64   36   99 1   
    65   36  100 1   
    66   37   47 1   
    67   37   49 1   
    68   37  117 1   
    69   38   39 1   
    70   38  127 1   
    71   39   40 1   
    72   39  103 1   
    73   39  104 1   
    74   40   41 1   
    75   40  105 1   
    76   40  106 1   
    77   41   42 1   
    78   41  107 1   
    79   41  108 1   
    80   42   43 1   
    81   42  109 1   
    82   42  110 1   
    83   43   44 1   
    84   43  111 1   
    85   43  112 1   
    86   44   45 1   
    87   44  113 1   
    88   44  114 1   
    89   45   46 1   
    90   45  115 1   
    91   45  116 1   
    92   47   49 1   
    93   47  118 1   
    94   47  120 1   
    95   48  119 1   
    96   48  121 1   
    97   48  122 1   
    98   48  123 1   
    99   55  127 1   
   100   58  126 1   
   101   59   60 1   
   102   61   62 1   
   103   65   66 1   
   104   70   71 1   
   105   72   73 1   
   106   74   75 1   
   107   78   79 1   
   108   82   83 1   
   109   93   94 1   
   110  101  102 1   
@<TRIPOS>SUBSTRUCTURE
     1 PGW         1 TEMP              0 ****  ****    0 ROOT
