@<TRIPOS>MOLECULE
PGW
  127   126     1     0     0
SMALL
bcc


@<TRIPOS>ATOM
      1 CAD        -3.0070    0.4730   -3.0700 c3        1 PGW      0.128400
      2 OAE        -3.1080   -0.5690   -2.1170 oh        1 PGW     -0.617800
      3 OAF        -3.6630    2.0370   -1.4110 oh        1 PGW     -0.654800
      4 P          -1.4880    5.2230   -2.9750 p5        1 PGW      1.421800
      5 C01        -0.5280    4.6280    1.9270 c3        1 PGW      0.109400
      6 O01         0.9810    3.6450    0.3030 os        1 PGW     -0.398900
      7 C02         0.0230    4.7000    0.5010 c3        1 PGW      0.116100
      8 C2          3.1890    2.7800    0.2220 c3        1 PGW     -0.131400
      9 O02         2.5540    4.9030    1.2960 o         1 PGW     -0.576000
     10 C03        -1.0820    4.4710   -0.5390 c3        1 PGW      0.186400
     11 C3          4.3950    2.6670    1.1280 c3        1 PGW     -0.077400
     12 C04        -2.6560    2.9390   -3.4660 c3        1 PGW      0.157400
     13 C4          5.3810    1.6530    0.5890 c3        1 PGW     -0.079400
     14 O04        -3.1190    4.2820    2.5920 o         1 PGW     -0.549000
     15 C05        -2.6790    1.8150   -2.4160 c3        1 PGW      0.074100
     16 C5          6.5820    1.5220    1.5000 c3        1 PGW     -0.078400
     17 C06        12.0000   -2.5210    0.7660 c3        1 PGW     -0.048200
     18 C6          7.5720    0.5110    0.9610 c3        1 PGW     -0.079400
     19 C07        13.2620   -3.3590    0.7260 c3        1 PGW     -0.076400
     20 C7          8.7730    0.3780    1.8730 c3        1 PGW     -0.077400
     21 C08        13.2830   -4.2550   -0.4930 c3        1 PGW     -0.080400
     22 C8          9.7610   -0.6340    1.3300 c3        1 PGW     -0.051200
     23 C09        14.5430   -5.0940   -0.5360 c3        1 PGW     -0.078400
     24 C9         10.9480   -0.7870    2.2040 c2        1 PGW     -0.167200
     25 C10        11.9530   -1.6330    1.9510 c2        1 PGW     -0.181200
     26 C11        14.5650   -5.9900   -1.7560 c3        1 PGW     -0.079400
     27 O11        -0.5510    4.4890   -1.8230 os        1 PGW     -0.565200
     28 C12        15.8240   -6.8290   -1.7990 c3        1 PGW     -0.078400
     29 O12        -2.7640    4.1660   -2.8200 os        1 PGW     -0.586200
     30 C13        15.8470   -7.7260   -3.0190 c3        1 PGW     -0.080400
     31 O13        -0.8580    4.9620   -4.2800 o         1 PGW     -0.809000
     32 C14        17.0990   -8.5630   -3.0660 c3        1 PGW     -0.092100
     33 O14        -1.9530    6.4990   -2.4110 o         1 PGW     -0.809000
     34 C15       -11.3110   -3.3790    0.2100 c3        1 PGW     -0.079400
     35 C16       -12.7650   -3.5770    0.5820 c3        1 PGW     -0.078400
     36 C17       -13.3860   -4.7070   -0.2090 c3        1 PGW     -0.079400
     37 C18       -14.8390   -4.9060    0.1630 c3        1 PGW     -0.079400
     38 C19        -2.5010    3.2800    2.2260 c         1 PGW      0.640100
     39 C20        -3.0190    1.9290    1.8490 c3        1 PGW     -0.144400
     40 C21        -4.4630    1.7340    2.2570 c3        1 PGW     -0.073400
     41 C22        -5.0850    0.6030    1.4650 c3        1 PGW     -0.085400
     42 C23        -6.5370    0.4070    1.8400 c3        1 PGW     -0.076400
     43 C24        -7.1600   -0.7240    1.0480 c3        1 PGW     -0.080400
     44 C25        -8.6140   -0.9200    1.4210 c3        1 PGW     -0.078400
     45 C26        -9.2350   -2.0510    0.6290 c3        1 PGW     -0.079400
     46 C27       -10.6890   -2.2480    1.0020 c3        1 PGW     -0.078400
     47 C28       -15.4600   -6.0370   -0.6290 c3        1 PGW     -0.079400
     48 C29       -17.5370   -7.3610   -1.0430 c3        1 PGW     -0.092100
     49 C30       -16.9150   -6.2360   -0.2580 c3        1 PGW     -0.080400
     50 HAD        -2.1800    0.1650   -3.7600 h1        1 PGW      0.040200
     51 HADA       -3.9730    0.5460   -3.6390 h1        1 PGW      0.040200
     52 HOAE       -3.6390   -0.2300   -1.3840 ho        1 PGW      0.411000
     53 HOAF       -3.8640    2.9840   -1.4060 ho        1 PGW      0.443000
     54 H01         0.3140    4.6700    2.6680 h1        1 PGW      0.074700
     55 H01A       -1.2550    5.4620    2.1050 h1        1 PGW      0.074700
     56 H02         0.5200    5.6960    0.3450 h1        1 PGW      0.087700
     57 H2          2.6230    1.8110    0.1900 hc        1 PGW      0.080700
     58 H2A         3.5040    3.0220   -0.8290 hc        1 PGW      0.080700
     59 H03        -1.5520    3.4630   -0.3410 h1        1 PGW      0.042200
     60 H03A       -1.8540    5.2850   -0.4200 h1        1 PGW      0.042200
     61 H3          4.8860    3.6710    1.2220 hc        1 PGW      0.053200
     62 H3A         4.0650    2.3660    2.1570 hc        1 PGW      0.053200
     63 H04        -1.7090    2.8850   -4.0700 h1        1 PGW      0.045200
     64 H04A       -3.5470    2.8180   -4.1460 h1        1 PGW      0.045200
     65 H4          4.8770    0.6560    0.4830 hc        1 PGW      0.040700
     66 H4A         5.7180    1.9640   -0.4350 hc        1 PGW      0.040700
     67 H05        -1.6820    1.7580   -1.8920 h1        1 PGW      0.063700
     68 H5          7.0830    2.5200    1.6080 hc        1 PGW      0.040700
     69 H5A         6.2450    1.2090    2.5240 hc        1 PGW      0.040700
     70 H06        11.9310   -1.9000   -0.1690 hc        1 PGW      0.048200
     71 H06A       11.1010   -3.1970    0.7700 hc        1 PGW      0.048200
     72 H6          7.0700   -0.4860    0.8520 hc        1 PGW      0.040200
     73 H6A         7.9090    0.8250   -0.0620 hc        1 PGW      0.040200
     74 H07        14.1600   -2.6870    0.7150 hc        1 PGW      0.039700
     75 H07A       13.3280   -3.9850    1.6550 hc        1 PGW      0.039700
     76 H7          9.2760    1.3750    1.9810 hc        1 PGW      0.040700
     77 H7A         8.4360    0.0640    2.8960 hc        1 PGW      0.040700
     78 H08        12.3850   -4.9270   -0.4830 hc        1 PGW      0.040700
     79 H08A       13.2170   -3.6290   -1.4220 hc        1 PGW      0.040700
     80 H8          9.2530   -1.6300    1.2130 hc        1 PGW      0.048200
     81 H8A        10.0940   -0.3200    0.3020 hc        1 PGW      0.048200
     82 H09        15.4410   -4.4220   -0.5470 hc        1 PGW      0.038700
     83 H09A       14.6100   -5.7200    0.3920 hc        1 PGW      0.038700
     84 H11        13.6660   -6.6620   -1.7450 hc        1 PGW      0.040200
     85 H11A       14.4980   -5.3640   -2.6840 hc        1 PGW      0.040200
     86 H12        16.7230   -6.1580   -1.8100 hc        1 PGW      0.038700
     87 H12A       15.8910   -7.4560   -0.8710 hc        1 PGW      0.038700
     88 H13        14.9460   -8.3950   -3.0070 hc        1 PGW      0.038700
     89 H13A       15.7780   -7.0980   -3.9460 hc        1 PGW      0.038700
     90 H14        18.0060   -7.9140   -3.1040 hc        1 PGW      0.031367
     91 H14A       17.1720   -9.2150   -2.1620 hc        1 PGW      0.031367
     92 H14B       17.0950   -9.2160   -3.9720 hc        1 PGW      0.031367
     93 H15       -10.7420   -4.3270    0.3990 hc        1 PGW      0.039700
     94 H15A      -11.2300   -3.1580   -0.8870 hc        1 PGW      0.039700
     95 H16       -12.8460   -3.7960    1.6790 hc        1 PGW      0.038700
     96 H16A      -13.3330   -2.6280    0.3920 hc        1 PGW      0.038700
     97 H17       -13.3050   -4.4870   -1.3060 hc        1 PGW      0.039700
     98 H17A      -12.8160   -5.6560   -0.0200 hc        1 PGW      0.039700
     99 H18       -14.9200   -5.1250    1.2600 hc        1 PGW      0.038700
    100 H18A      -15.4080   -3.9570   -0.0270 hc        1 PGW      0.038700
    101 H20        -2.9190    1.8500    0.7260 hc        1 PGW      0.093700
    102 H20A       -2.3640    1.1400    2.3020 hc        1 PGW      0.093700
    103 H21        -4.5240    1.5150    3.3550 hc        1 PGW      0.050200
    104 H21A       -5.0350    2.6830    2.0770 hc        1 PGW      0.050200
    105 H22        -5.0000    0.8300    0.3660 hc        1 PGW      0.050200
    106 H22A       -4.5150   -0.3460    1.6510 hc        1 PGW      0.050200
    107 H23        -6.6180    0.1880    2.9370 hc        1 PGW      0.037700
    108 H23A       -7.1050    1.3560    1.6490 hc        1 PGW      0.037700
    109 H24        -7.0780   -0.5020   -0.0490 hc        1 PGW      0.041700
    110 H24A       -6.5910   -1.6720    1.2370 hc        1 PGW      0.041700
    111 H25        -8.6950   -1.1400    2.5180 hc        1 PGW      0.037200
    112 H25A       -9.1810    0.0290    1.2310 hc        1 PGW      0.037200
    113 H26        -9.1540   -1.8300   -0.4680 hc        1 PGW      0.040200
    114 H26A       -8.6670   -2.9990    0.8180 hc        1 PGW      0.040200
    115 H27       -11.2580   -1.3000    0.8120 hc        1 PGW      0.038200
    116 H27A      -10.7710   -2.4680    2.0990 hc        1 PGW      0.038200
    117 H28       -15.3800   -5.8170   -1.7260 hc        1 PGW      0.039200
    118 H28A      -14.8920   -6.9850   -0.4400 hc        1 PGW      0.039200
    119 H29       -17.0010   -8.3210   -0.8490 hc        1 PGW      0.031367
    120 H29A      -18.6080   -7.4910   -0.7550 hc        1 PGW      0.031367
    121 H29B      -17.4900   -7.1500   -2.1390 hc        1 PGW      0.031367
    122 H30       -16.9940   -6.4540    0.8400 hc        1 PGW      0.038200
    123 H30A      -17.4820   -5.2860   -0.4470 hc        1 PGW      0.038200
    124 H9         10.9700   -0.1510    3.1040 ha        1 PGW      0.121000
    125 H10        12.8100   -1.7000    2.6410 ha        1 PGW      0.118000
    126 C1          2.2700    3.8760    0.6700 c         1 PGW      0.637100
    127 O03        -1.1340    3.3470    2.1340 os        1 PGW     -0.444900
@<TRIPOS>BOND
     1    1    2 1   
     2    1   15 1   
     3    1   50 1   
     4    1   51 1   
     5    2   52 1   
     6    3   15 1   
     7    3   53 1   
     8    4   27 1   
     9    4   29 1   
    10    4   31 1   
    11    4   33 1   
    12    5    7 1   
    13    5   54 1   
    14    5   55 1   
    15    5  127 1   
    16    6    7 1   
    17    6  126 1   
    18    7   10 1   
    19    7   56 1   
    20    8   11 1   
    21    8   57 1   
    22    8   58 1   
    23    8  126 1   
    24    9  126 2   
    25   10   27 1   
    26   10   59 1   
    27   10   60 1   
    28   11   13 1   
    29   11   61 1   
    30   11   62 1   
    31   12   15 1   
    32   12   29 1   
    33   12   63 1   
    34   12   64 1   
    35   13   16 1   
    36   13   65 1   
    37   13   66 1   
    38   14   38 2   
    39   15   67 1   
    40   16   18 1   
    41   16   68 1   
    42   16   69 1   
    43   17   19 1   
    44   17   25 1   
    45   17   70 1   
    46   17   71 1   
    47   18   20 1   
    48   18   72 1   
    49   18   73 1   
    50   19   21 1   
    51   19   74 1   
    52   19   75 1   
    53   20   22 1   
    54   20   76 1   
    55   20   77 1   
    56   21   23 1   
    57   21   78 1   
    58   21   79 1   
    59   22   24 1   
    60   22   80 1   
    61   22   81 1   
    62   23   26 1   
    63   23   82 1   
    64   23   83 1   
    65   24   25 2   
    66   24  124 1   
    67   25  125 1   
    68   26   28 1   
    69   26   84 1   
    70   26   85 1   
    71   28   30 1   
    72   28   86 1   
    73   28   87 1   
    74   30   32 1   
    75   30   88 1   
    76   30   89 1   
    77   32   90 1   
    78   32   91 1   
    79   32   92 1   
    80   34   35 1   
    81   34   46 1   
    82   34   93 1   
    83   34   94 1   
    84   35   36 1   
    85   35   95 1   
    86   35   96 1   
    87   36   37 1   
    88   36   97 1   
    89   36   98 1   
    90   37   47 1   
    91   37   99 1   
    92   37  100 1   
    93   38   39 1   
    94   38  127 1   
    95   39   40 1   
    96   39  101 1   
    97   39  102 1   
    98   40   41 1   
    99   40  103 1   
   100   40  104 1   
   101   41   42 1   
   102   41  105 1   
   103   41  106 1   
   104   42   43 1   
   105   42  107 1   
   106   42  108 1   
   107   43   44 1   
   108   43  109 1   
   109   43  110 1   
   110   44   45 1   
   111   44  111 1   
   112   44  112 1   
   113   45   46 1   
   114   45  113 1   
   115   45  114 1   
   116   46  115 1   
   117   46  116 1   
   118   47   49 1   
   119   47  117 1   
   120   47  118 1   
   121   48   49 1   
   122   48  119 1   
   123   48  120 1   
   124   48  121 1   
   125   49  122 1   
   126   49  123 1   
@<TRIPOS>SUBSTRUCTURE
     1 PGW         1 TEMP              0 ****  ****    0 ROOT
