@<TRIPOS>MOLECULE
PGW
  127   115     1     0     0
SMALL
bcc


@<TRIPOS>ATOM
      1 CAD         3.3730   -2.6700   -0.2870 c1        1 PGW     -0.099000
      2 OAE         3.7020   -3.2120    0.8610 oh        1 PGW     -0.208000
      3 OAF         5.8700   -0.5660    0.1460 oh        1 PGW     -0.370000
      4 P           8.3310   -0.2750    2.9030 p5        1 PGW      1.986000
      5 C01        10.9200    3.5810    1.8720 c2        1 PGW     -0.456000
      6 O01         9.2870    4.0210    3.4280 os        1 PGW     -0.204000
      7 C02         9.4470    3.4940    2.0470 c3        1 PGW      0.018000
      8 C2          7.2310    6.1410    1.6950 c2        1 PGW     -0.169000
      9 O02        11.4670    4.0130    3.0530 os        1 PGW      0.024000
     10 C03         8.8840    2.1050    1.8680 c1        1 PGW      0.018000
     11 C3          7.3140    7.4040    1.9740 c1        1 PGW     -0.157000
     12 C04         6.6910   -0.2210    2.4030 c3        1 PGW     -0.657000
     13 C4          7.3990    8.6720    2.2700 c2        1 PGW     -0.164000
     14 O04         7.8950    3.9540   -0.8250 o         1 PGW     -0.461000
     15 C05         6.4270   -1.2120    1.2780 c3        1 PGW     -0.049000
     16 C5          8.6810    9.3640    2.5550 c3        1 PGW     -0.098000
     17 C06        12.4920    8.9800    1.7690 c2        1 PGW     -0.084000
     18 C6          8.7260   10.7320    1.8920 c3        1 PGW     -0.244000
     19 C07        12.1850    7.8480    1.1950 c1        1 PGW     -0.178000
     20 C7         10.0310   11.3550    2.0060 c1        1 PGW     -0.072000
     21 C08        11.8370    6.7290    0.6290 c2        1 PGW     -0.106000
     22 C8         11.4060   11.4670    4.5840 c3        1 PGW     -0.271000
     23 C09        11.8540    6.4990   -0.8400 c3        1 PGW     -0.118000
     24 C9         14.2870   10.4780    2.6110 c1        1 PGW      0.138000
     25 C10        13.8240    9.3020    2.2440 c2        1 PGW     -0.412000
     26 C11        10.4460    6.2780   -1.3570 c3        1 PGW     -0.164000
     27 O11         8.8130    1.3890    2.9220 os        1 PGW     -0.540000
     28 C12        10.4490    5.8960   -2.8210 c3        1 PGW     -0.172000
     29 O12         6.4520    1.1100    1.9960 oh        1 PGW     -0.318000
     30 C13         9.0350    5.7060   -3.3290 c3        1 PGW     -0.271000
     31 O13         8.3710   -0.6070    4.3330 o         1 PGW     -0.809000
     32 C14         8.8320    4.8990   -4.5010 c1        1 PGW     -0.088000
     33 O14         9.2030   -0.8700    1.8790 o         1 PGW     -0.809000
     34 C15         3.3710   -4.1640   -8.8700 c3        1 PGW     -0.221000
     35 C16         3.6980   -5.1750   -9.9520 c3        1 PGW     -0.137000
     36 C17         2.4750   -5.9950  -10.3100 c3        1 PGW     -0.116000
     37 C18         2.7710   -6.9640  -11.4110 c3        1 PGW     -0.315000
     38 C19         7.5400    2.8440   -1.2680 c2        1 PGW      0.320000
     39 C20         6.8670    2.6390   -2.5960 c3        1 PGW     -0.173000
     40 C21         6.8110    1.1880   -3.0180 c3        1 PGW     -0.157000
     41 C22         6.1500    1.0440   -4.3720 c3        1 PGW     -0.157000
     42 C23         6.1010   -0.4070   -4.8010 c3        1 PGW     -0.158000
     43 C24         5.3570   -0.5650   -6.1100 c3        1 PGW     -0.161000
     44 C25         5.3290   -2.0130   -6.5530 c3        1 PGW     -0.135000
     45 C26         4.4750   -2.1830   -7.7960 c3        1 PGW     -0.222000
     46 C27         4.5700   -3.5290   -8.3390 c1        1 PGW     -0.047000
     47 C28         1.6480   -7.7680  -12.0140 c3        1 PGW     -0.390000
     48 C29         2.1000  -11.3450  -12.8440 c3        1 PGW     -0.271000
     49 C30         2.3010   -6.6940  -12.8020 c1        1 PGW      0.180000
     50 HAD         7.3820   -1.7360    0.9930 h1        1 PGW      0.102500
     51 HADA        4.0870   -1.8340   -0.5020 ha        1 PGW      0.079000
     52 HOAE        3.0820   -3.9400    1.0490 ho        1 PGW      0.228000
     53 HOAF        6.5510    0.0290   -0.2040 ho        1 PGW      0.234000
     54 H01         8.8690    4.2070    1.3910 h1        1 PGW      0.135000
     55 H01A        8.2260    1.9410    0.3880 ho        1 PGW      0.339000
     56 H02        11.5940    3.0970    1.1850 h4        1 PGW      0.200000
     57 H2          7.2670    5.7450    0.6650 ha        1 PGW      0.159000
     58 H2A        10.6930    4.6520    4.9310 h5        1 PGW      0.238000
     59 H03         6.0700    3.3500    0.9880 ha        1 PGW      0.003429
     60 H03A        6.6740    3.3740    1.2960 ha        1 PGW      0.003429
     61 H3          6.8460    3.5840    3.8430 ha        1 PGW      0.003429
     62 H3A         7.0530    3.0800    3.4380 ha        1 PGW      0.003429
     63 H04         6.0190   -0.4620    3.2720 h1        1 PGW      0.106000
     64 H04A        5.5750    1.1490    1.5850 ho        1 PGW      0.205000
     65 H4          6.4900    9.2940    2.3430 ha        1 PGW      0.121000
     66 H4A         7.1430    5.3700    2.4820 ha        1 PGW      0.159000
     67 H05         5.6470   -1.9710    1.5670 h1        1 PGW      0.102500
     68 H5          9.5590    8.7550    2.2080 hc        1 PGW      0.100000
     69 H5A         8.7850    9.4930    3.6670 hc        1 PGW      0.100000
     70 H06        11.6780   14.0290    2.5000 ha        1 PGW      0.003429
     71 H06A       11.2700   14.5370    2.6860 ha        1 PGW      0.003429
     72 H6          8.5630   10.6020    0.7770 hc        1 PGW      0.109000
     73 H6A         7.8720   11.3610    2.2690 hc        1 PGW      0.109000
     74 H07        12.9870   12.1340    1.7960 ha        1 PGW      0.003429
     75 H07A       11.7120    9.7610    1.9270 ha        1 PGW      0.182000
     76 H7         10.0340   12.4580    1.9940 ha        1 PGW      0.031000
     77 H7A        10.7290   10.7070    4.1290 hc        1 PGW      0.068750
     78 H08        11.4850    5.8630    1.2310 ha        1 PGW      0.175000
     79 H08A       12.4720   11.8440    2.1370 ha        1 PGW      0.003429
     80 H8         11.2340   11.5130    5.6810 hc        1 PGW      0.068750
     81 H8A        11.2030   12.4630    4.1290 hc        1 PGW      0.068750
     82 H09        11.2500   11.2620    0.0500 ha        1 PGW      0.003429
     83 H09A       10.7240   11.5800   -0.2430 ha        1 PGW      0.003429
     84 H11        12.4790    5.5900   -1.0520 hc        1 PGW      0.081000
     85 H11A       12.3250    7.3630   -1.3800 hc        1 PGW      0.081000
     86 H12         9.8450    7.2140   -1.2150 hc        1 PGW      0.099000
     87 H12A        9.9420    5.4670   -0.7600 hc        1 PGW      0.099000
     88 H13        11.0310    4.9460   -2.9560 hc        1 PGW      0.072500
     89 H13A       10.9670    6.6890   -3.4220 hc        1 PGW      0.072500
     90 H14         8.4140    5.1740   -2.5260 hc        1 PGW      0.166500
     91 H14A        8.5330    6.7050   -3.4710 hc        1 PGW      0.166500
     92 H14B        9.6920    4.3070   -4.8540 ha        1 PGW      0.032000
     93 H15         2.1290   -1.0120  -10.0370 ha        1 PGW      0.003429
     94 H15A        2.6600   -1.1530   -9.6410 ha        1 PGW      0.003429
     95 H16         2.5950   -3.4400   -9.2490 hc        1 PGW      0.102500
     96 H16A        2.9120   -4.6980   -7.9830 hc        1 PGW      0.102500
     97 H17         4.0750   -4.6410  -10.8620 hc        1 PGW      0.096500
     98 H17A        4.5210   -5.8490   -9.5950 hc        1 PGW      0.096500
     99 H18         2.1270   -6.5680   -9.4090 hc        1 PGW      0.081000
    100 H18A        1.6370   -5.3110  -10.6120 hc        1 PGW      0.081000
    101 H20         5.2410    1.8530   -0.4910 ha        1 PGW      0.003429
    102 H20A        4.6400    1.5460   -0.4190 ha        1 PGW      0.003429
    103 H21         7.4130    3.2520   -3.3660 hc        1 PGW      0.109000
    104 H21A        5.8270    3.0550   -2.5100 hc        1 PGW      0.109000
    105 H22         7.8490    0.7650   -3.0480 hc        1 PGW      0.100000
    106 H22A        6.2420    0.6000   -2.2480 hc        1 PGW      0.100000
    107 H23         6.7110    1.6450   -5.1350 hc        1 PGW      0.077000
    108 H23A        5.1080    1.4580   -4.3270 hc        1 PGW      0.077000
    109 H24         7.1450   -0.8030   -4.9100 hc        1 PGW      0.086000
    110 H24A        5.5970   -1.0180   -4.0060 hc        1 PGW      0.086000
    111 H25         5.8470    0.0610   -6.9010 hc        1 PGW      0.075000
    112 H25A        4.3080   -0.1860   -5.9920 hc        1 PGW      0.075000
    113 H26         6.3710   -2.3720   -6.7610 hc        1 PGW      0.093000
    114 H26A        4.9150   -2.6510   -5.7290 hc        1 PGW      0.093000
    115 H27         4.8790   -1.5150   -8.6170 hc        1 PGW      0.099000
    116 H27A        3.4260   -1.8320   -7.5830 hc        1 PGW      0.099000
    117 H28         0.6150   -7.6180  -11.6460 hc        1 PGW      0.148500
    118 H28A        3.7520   -7.4680  -11.2770 hc        1 PGW      0.152000
    119 H29         2.8450  -11.0620  -12.0690 hc        1 PGW      0.068750
    120 H29A        1.8230   -8.8320  -12.2700 hc        1 PGW      0.148500
    121 H29B        2.2120  -12.4230  -13.0890 hc        1 PGW      0.068750
    122 H30         2.2680  -10.7380  -13.7610 hc        1 PGW      0.068750
    123 H30A        1.0740  -11.1580  -12.4580 hc        1 PGW      0.068750
    124 H9         12.4620   11.1810    4.3770 hc        1 PGW      0.068750
    125 H10        14.5310    8.4450    2.3090 ha        1 PGW      0.188000
    126 C1         10.5170    4.2570    3.9410 c2        1 PGW     -0.049000
    127 O03         7.7420    1.7560   -0.5300 oh        1 PGW     -0.383000
@<TRIPOS>BOND
     1    1    2 1   
     2    1   51 1   
     3    2   52 1   
     4    3   15 1   
     5    3   53 1   
     6    4   12 1   
     7    4   27 1   
     8    4   31 1   
     9    4   33 1   
    10    5    7 1   
    11    5    9 1   
    12    5   56 1   
    13    6    7 1   
    14    6  126 1   
    15    7   10 1   
    16    7   54 1   
    17    8   11 1   
    18    8   57 1   
    19    8   66 1   
    20    9  126 1   
    21   10   27 1   
    22   11   13 1   
    23   12   15 1   
    24   12   29 1   
    25   12   63 1   
    26   13   16 1   
    27   13   65 1   
    28   14   38 1   
    29   15   50 1   
    30   15   67 1   
    31   16   18 1   
    32   16   68 1   
    33   16   69 1   
    34   17   19 1   
    35   17   25 1   
    36   17   75 1   
    37   18   20 1   
    38   18   72 1   
    39   18   73 1   
    40   19   21 1   
    41   20   76 1   
    42   21   23 1   
    43   21   78 1   
    44   22   77 1   
    45   22   80 1   
    46   22   81 1   
    47   22  124 1   
    48   23   26 1   
    49   23   84 1   
    50   23   85 1   
    51   24   25 1   
    52   25  125 1   
    53   26   28 1   
    54   26   86 1   
    55   26   87 1   
    56   28   30 1   
    57   28   88 1   
    58   28   89 1   
    59   29   64 1   
    60   30   32 1   
    61   30   90 1   
    62   30   91 1   
    63   32   92 1   
    64   34   35 1   
    65   34   46 1   
    66   34   95 1   
    67   34   96 1   
    68   35   36 1   
    69   35   97 1   
    70   35   98 1   
    71   36   37 1   
    72   36   99 1   
    73   36  100 1   
    74   37   47 1   
    75   37   49 1   
    76   37  118 1   
    77   38   39 1   
    78   38  127 1   
    79   39   40 1   
    80   39  103 1   
    81   39  104 1   
    82   40   41 1   
    83   40  105 1   
    84   40  106 1   
    85   41   42 1   
    86   41  107 1   
    87   41  108 1   
    88   42   43 1   
    89   42  109 1   
    90   42  110 1   
    91   43   44 1   
    92   43  111 1   
    93   43  112 1   
    94   44   45 1   
    95   44  113 1   
    96   44  114 1   
    97   45   46 1   
    98   45  115 1   
    99   45  116 1   
   100   47   49 1   
   101   47  117 1   
   102   47  120 1   
   103   48  119 1   
   104   48  121 1   
   105   48  122 1   
   106   48  123 1   
   107   55  127 1   
   108   58  126 1   
   109   59   60 1   
   110   61   62 1   
   111   70   71 1   
   112   74   79 1   
   113   82   83 1   
   114   93   94 1   
   115  101  102 1   
@<TRIPOS>SUBSTRUCTURE
     1 PGW         1 TEMP              0 ****  ****    0 ROOT
