@<TRIPOS>MOLECULE
PGX
   57    58     1     0     0
SMALL
bcc


@<TRIPOS>ATOM
      1 C1          2.7880    1.4690   -0.8120 c         1 PGX      0.912600
      2 C2          2.3580    0.1880   -1.5380 c3        1 PGX     -0.190400
      3 C3          1.1420    0.4440   -2.3970 c3        1 PGX     -0.059400
      4 C4          0.6380   -0.8340   -3.0460 c3        1 PGX     -0.055200
      5 C5         -0.5620   -0.5900   -3.8800 c2        1 PGX     -0.143200
      6 C6         -1.8380   -0.7170   -3.5030 c2        1 PGX     -0.195200
      7 C7         -2.3200   -1.1250   -2.1600 c3        1 PGX     -0.035200
      8 C8         -2.6570    0.0780   -1.3060 c3        1 PGX     -0.079700
      9 C9         -4.0490    0.6900   -1.5990 c3        1 PGX      0.095100
     10 C10        -4.2730    1.5510   -0.3260 c3        1 PGX     -0.130400
     11 C11        -4.1630    0.2980    0.5830 c3        1 PGX      0.100100
     12 C12        -2.7660   -0.2690    0.2140 c3        1 PGX     -0.047500
     13 C13        -1.6720    0.3610    0.9850 c2        1 PGX     -0.183200
     14 C14        -0.6690   -0.3250    1.5390 c2        1 PGX     -0.156200
     15 C15         0.5250    0.3020    2.1720 c3        1 PGX      0.096300
     16 C16         0.9220   -0.4130    3.4590 c3        1 PGX     -0.062400
     17 C17         2.2990    0.0220    3.9120 c3        1 PGX     -0.088400
     18 C18         2.7360   -0.7320    5.1490 c3        1 PGX     -0.074400
     19 C19         4.1100   -0.2880    5.6040 c3        1 PGX     -0.082400
     20 C20         4.5580   -1.0380    6.8320 c3        1 PGX     -0.089100
     21 O1          2.7950    1.4540    0.4610 o         1 PGX     -0.855300
     22 O2          3.1210    2.4790   -1.4870 o         1 PGX     -0.855300
     23 O3         -5.0490   -0.3710   -1.3850 os        1 PGX     -0.235800
     24 O4         -5.1280   -0.5970   -0.0830 os        1 PGX     -0.238800
     25 O5          0.2970    1.6900    2.5510 os        1 PGX     -0.219800
     26 O6          0.3920    2.5090    1.5630 oh        1 PGX     -0.445000
     27 H21         2.1380   -0.6080   -0.7820 hc        1 PGX      0.024200
     28 H22         3.2100   -0.1640   -2.1740 hc        1 PGX      0.024200
     29 H31         1.4000    1.2010   -3.1820 hc        1 PGX      0.047200
     30 H32         0.3270    0.8850   -1.7640 hc        1 PGX      0.047200
     31 H41         0.4220   -1.5920   -2.2460 hc        1 PGX      0.035700
     32 H42         1.4520   -1.2650   -3.6910 hc        1 PGX      0.035700
     33 H51        -0.3380   -0.2560   -4.9090 ha        1 PGX      0.106000
     34 H61        -2.6440   -0.4940   -4.2240 ha        1 PGX      0.103000
     35 H71        -1.5370   -1.7340   -1.6310 hc        1 PGX      0.053200
     36 H72        -3.2330   -1.7720   -2.2650 hc        1 PGX      0.053200
     37 H81        -1.8770    0.8720   -1.4570 hc        1 PGX      0.087700
     38 H91        -4.2270    1.1130   -2.6010 h1        1 PGX      0.099700
     39 H101       -5.2760    2.0260   -0.2910 hc        1 PGX      0.075200
     40 H102       -3.4720    2.2980   -0.1470 hc        1 PGX      0.075200
     41 H111       -4.4370    0.3560    1.6480 h1        1 PGX      0.103700
     42 H121       -2.7800   -1.3820    0.3540 hc        1 PGX      0.067700
     43 H131       -1.6860    1.4650    1.0360 ha        1 PGX      0.150000
     44 H141       -0.6330   -1.4260    1.4960 ha        1 PGX      0.108000
     45 H151        1.3810    0.2830    1.4210 h1        1 PGX      0.146700
     46 H161        0.9120   -1.5180    3.2720 hc        1 PGX      0.033700
     47 H162        0.1690   -0.1920    4.2590 hc        1 PGX      0.033700
     48 H171        2.2820    1.1250    4.1190 hc        1 PGX      0.065700
     49 H172        3.0370   -0.1390    3.0800 hc        1 PGX      0.065700
     50 H181        2.7500   -1.8330    4.9350 hc        1 PGX      0.027200
     51 H182        1.9950   -0.5660    5.9750 hc        1 PGX      0.027200
     52 H191        4.0920    0.8130    5.8190 hc        1 PGX      0.044200
     53 H192        4.8460   -0.4480    4.7730 hc        1 PGX      0.044200
     54 H201        5.5720   -0.6940    7.1500 hc        1 PGX      0.024367
     55 H202        3.8480   -0.8710    7.6780 hc        1 PGX      0.024367
     56 H203        4.6060   -2.1350    6.6280 hc        1 PGX      0.024367
     57 HO61        1.3400    2.5510    1.2600 ho        1 PGX      0.461000
@<TRIPOS>BOND
     1    1    2 1   
     2    1   21 1   
     3    1   22 1   
     4    2    3 1   
     5    2   27 1   
     6    2   28 1   
     7    3    4 1   
     8    3   29 1   
     9    3   30 1   
    10    4    5 1   
    11    4   31 1   
    12    4   32 1   
    13    5    6 2   
    14    5   33 1   
    15    6    7 1   
    16    6   34 1   
    17    7    8 1   
    18    7   35 1   
    19    7   36 1   
    20    8    9 1   
    21    8   12 1   
    22    8   37 1   
    23    9   10 1   
    24    9   23 1   
    25    9   38 1   
    26   10   11 1   
    27   10   39 1   
    28   10   40 1   
    29   11   12 1   
    30   11   24 1   
    31   11   41 1   
    32   12   13 1   
    33   12   42 1   
    34   13   14 2   
    35   13   43 1   
    36   14   15 1   
    37   14   44 1   
    38   15   16 1   
    39   15   25 1   
    40   15   45 1   
    41   16   17 1   
    42   16   46 1   
    43   16   47 1   
    44   17   18 1   
    45   17   48 1   
    46   17   49 1   
    47   18   19 1   
    48   18   50 1   
    49   18   51 1   
    50   19   20 1   
    51   19   52 1   
    52   19   53 1   
    53   20   54 1   
    54   20   55 1   
    55   20   56 1   
    56   23   24 1   
    57   25   26 1   
    58   26   57 1   
@<TRIPOS>SUBSTRUCTURE
     1 PGX         1 TEMP              0 ****  ****    0 ROOT
