@<TRIPOS>MOLECULE
PGX
   57    58     1     0     0
SMALL
bcc


@<TRIPOS>ATOM
      1 C1          5.8030    0.4250   -0.0470 c         1 PGX      0.903600
      2 C2          4.2790    0.5160   -0.1030 c3        1 PGX     -0.182400
      3 C3          3.6240   -0.2120    1.0480 c3        1 PGX     -0.059400
      4 C4          3.6000   -1.7150    0.8250 c3        1 PGX     -0.055200
      5 C5          3.2570   -2.4310    2.0760 c2        1 PGX     -0.161200
      6 C6          4.0740   -3.2040    2.7980 c2        1 PGX     -0.178200
      7 C7          5.4870   -3.5310    2.4820 c3        1 PGX     -0.033200
      8 C8          6.4070   -2.3350    2.5620 c3        1 PGX     -0.093700
      9 C9          6.6440   -1.7990    3.9950 c3        1 PGX      0.103100
     10 C10         7.8990   -0.9140    3.7630 c3        1 PGX     -0.132400
     11 C11         8.7150   -2.1400    3.2800 c3        1 PGX      0.101100
     12 C12         7.8610   -2.6670    2.0920 c3        1 PGX     -0.047500
     13 C13         8.1970   -1.9720    0.8310 c2        1 PGX     -0.149200
     14 C14         8.8200   -2.5360   -0.2070 c2        1 PGX     -0.199200
     15 C15         9.0630   -1.7550   -1.4590 c3        1 PGX      0.123300
     16 C16         9.9470   -2.5110   -2.4430 c3        1 PGX     -0.080400
     17 C17         9.9820   -1.8100   -3.7840 c3        1 PGX     -0.084400
     18 C18        10.9870   -2.4490   -4.7160 c3        1 PGX     -0.075400
     19 C19        11.0030   -1.7600   -6.0640 c3        1 PGX     -0.081400
     20 C20        12.0080   -2.3850   -6.9970 c3        1 PGX     -0.090100
     21 O1          6.4090    0.6550    1.0440 o         1 PGX     -0.862800
     22 O2          6.4330    0.1240   -1.1080 o         1 PGX     -0.862800
     23 O3          7.2210   -2.8970    4.7940 os        1 PGX     -0.247800
     24 O4          8.4620   -3.0890    4.3810 os        1 PGX     -0.248800
     25 O5          9.7510   -0.5210   -1.0830 os        1 PGX     -0.221800
     26 O6          9.1680    0.5320   -1.5380 oh        1 PGX     -0.444000
     27 H21         3.9210    0.1090   -1.0810 hc        1 PGX      0.031700
     28 H22         4.0060    1.6020   -0.0580 hc        1 PGX      0.031700
     29 H31         2.5730    0.1550    1.1880 hc        1 PGX      0.033200
     30 H32         4.1950    0.0200    1.9870 hc        1 PGX      0.033200
     31 H41         4.6000   -2.0430    0.4300 hc        1 PGX      0.049700
     32 H42         2.8380   -1.9640    0.0370 hc        1 PGX      0.049700
     33 H51         2.2200   -2.2700    2.4210 ha        1 PGX      0.098000
     34 H61         3.6960   -3.6700    3.7240 ha        1 PGX      0.102000
     35 H71         5.5480   -3.9550    1.4420 hc        1 PGX      0.047700
     36 H72         5.8570   -4.3210    3.1910 hc        1 PGX      0.047700
     37 H81         5.9960   -1.4830    1.9450 hc        1 PGX      0.125700
     38 H91         5.7770   -1.4070    4.5490 h1        1 PGX      0.097700
     39 H101        8.2980   -0.4650    4.6950 hc        1 PGX      0.092200
     40 H102        7.7410   -0.1430    2.9700 hc        1 PGX      0.092200
     41 H111        9.8050   -2.0670    3.1430 h1        1 PGX      0.098700
     42 H121        7.9990   -3.7760    2.0060 hc        1 PGX      0.055700
     43 H131        7.8630   -0.9090    0.7650 ha        1 PGX      0.201000
     44 H141        9.1590   -3.5810   -0.2080 ha        1 PGX      0.102000
     45 H151        8.0740   -1.4790   -1.9300 h1        1 PGX      0.112700
     46 H161        9.5520   -3.5520   -2.5650 hc        1 PGX      0.034200
     47 H162       10.9840   -2.5830   -2.0250 hc        1 PGX      0.034200
     48 H171       10.2380   -0.7280   -3.6180 hc        1 PGX      0.055700
     49 H172        8.9620   -1.8390   -4.2490 hc        1 PGX      0.055700
     50 H181       12.0100   -2.3990   -4.2590 hc        1 PGX      0.030200
     51 H182       10.7400   -3.5350   -4.8530 hc        1 PGX      0.030200
     52 H191       11.2430   -0.6730   -5.9230 hc        1 PGX      0.040200
     53 H192        9.9800   -1.8130   -6.5220 hc        1 PGX      0.040200
     54 H201       12.0020   -1.8630   -7.9840 hc        1 PGX      0.025033
     55 H202       13.0370   -2.3180   -6.5690 hc        1 PGX      0.025033
     56 H203       11.7700   -3.4630   -7.1680 hc        1 PGX      0.025033
     57 HO61        8.3290    0.6830   -1.0200 ho        1 PGX      0.460000
@<TRIPOS>BOND
     1    1    2 1   
     2    1   21 1   
     3    1   22 1   
     4    2    3 1   
     5    2   27 1   
     6    2   28 1   
     7    3    4 1   
     8    3   29 1   
     9    3   30 1   
    10    4    5 1   
    11    4   31 1   
    12    4   32 1   
    13    5    6 2   
    14    5   33 1   
    15    6    7 1   
    16    6   34 1   
    17    7    8 1   
    18    7   35 1   
    19    7   36 1   
    20    8    9 1   
    21    8   12 1   
    22    8   37 1   
    23    9   10 1   
    24    9   23 1   
    25    9   38 1   
    26   10   11 1   
    27   10   39 1   
    28   10   40 1   
    29   11   12 1   
    30   11   24 1   
    31   11   41 1   
    32   12   13 1   
    33   12   42 1   
    34   13   14 2   
    35   13   43 1   
    36   14   15 1   
    37   14   44 1   
    38   15   16 1   
    39   15   25 1   
    40   15   45 1   
    41   16   17 1   
    42   16   46 1   
    43   16   47 1   
    44   17   18 1   
    45   17   48 1   
    46   17   49 1   
    47   18   19 1   
    48   18   50 1   
    49   18   51 1   
    50   19   20 1   
    51   19   52 1   
    52   19   53 1   
    53   20   54 1   
    54   20   55 1   
    55   20   56 1   
    56   23   24 1   
    57   25   26 1   
    58   26   57 1   
@<TRIPOS>SUBSTRUCTURE
     1 PGX         1 TEMP              0 ****  ****    0 ROOT
