@<TRIPOS>MOLECULE
PGX
   57    58     1     0     0
SMALL
bcc


@<TRIPOS>ATOM
      1 C1          5.2820    1.8050   -0.4180 c         1 PGX      0.911600
      2 C2          4.2030    0.7510   -0.1340 c3        1 PGX     -0.196400
      3 C3          4.5100    0.0290    1.1570 c3        1 PGX     -0.060400
      4 C4          3.5400   -1.1110    1.4110 c3        1 PGX     -0.056200
      5 C5          3.7710   -1.7650    2.7230 c2        1 PGX     -0.144200
      6 C6          4.7310   -2.6480    3.0130 c2        1 PGX     -0.195200
      7 C7          5.7680   -3.1390    2.0720 c3        1 PGX     -0.037200
      8 C8          7.0710   -2.3880    2.2470 c3        1 PGX     -0.078700
      9 C9          8.0010   -2.9550    3.3470 c3        1 PGX      0.093100
     10 C10         9.3470   -2.2710    2.9760 c3        1 PGX     -0.130400
     11 C11         9.3360   -2.9330    1.5730 c3        1 PGX      0.099100
     12 C12         7.9820   -2.4600    0.9800 c3        1 PGX     -0.050500
     13 C13         8.0650   -1.1480    0.3010 c2        1 PGX     -0.200200
     14 C14         7.7610   -0.9050   -0.9760 c2        1 PGX     -0.151200
     15 C15         7.3360   -1.9260   -1.9770 c3        1 PGX      0.125300
     16 C16         8.4930   -2.7780   -2.4880 c3        1 PGX     -0.067400
     17 C17         9.5700   -1.9480   -3.1540 c3        1 PGX     -0.081400
     18 C18        10.7130   -2.8160   -3.6330 c3        1 PGX     -0.077400
     19 C19        11.7910   -1.9860   -4.2980 c3        1 PGX     -0.081400
     20 C20        12.9330   -2.8430   -4.7800 c3        1 PGX     -0.090100
     21 O1          6.0570    1.6180   -1.4110 o         1 PGX     -0.852300
     22 O2          5.3660    2.8130    0.3350 o         1 PGX     -0.852300
     23 O3          8.3030   -4.3530    2.9950 os        1 PGX     -0.233800
     24 O4          9.1160   -4.3420    1.9500 os        1 PGX     -0.237800
     25 O5          6.7790   -1.2720   -3.1550 os        1 PGX     -0.216800
     26 O6          5.6030   -0.8020   -2.9420 oh        1 PGX     -0.453000
     27 H21         4.1600    0.0210   -0.9830 hc        1 PGX      0.028200
     28 H22         3.2110    1.2620   -0.0620 hc        1 PGX      0.028200
     29 H31         5.5550   -0.3800    1.1090 hc        1 PGX      0.045200
     30 H32         4.4740    0.7620    2.0050 hc        1 PGX      0.045200
     31 H41         3.6330   -1.8640    0.5820 hc        1 PGX      0.037700
     32 H42         2.4900   -0.7150    1.3740 hc        1 PGX      0.037700
     33 H51         3.0640   -1.4630    3.5150 ha        1 PGX      0.103000
     34 H61         4.8020   -3.0660    4.0320 ha        1 PGX      0.102000
     35 H71         5.9470   -4.2360    2.2370 hc        1 PGX      0.056700
     36 H72         5.4180   -3.0080    1.0120 hc        1 PGX      0.056700
     37 H81         6.8500   -1.3150    2.4940 hc        1 PGX      0.082700
     38 H91         7.6380   -2.9480    4.3870 h1        1 PGX      0.097700
     39 H101       10.1950   -2.6080    3.6090 hc        1 PGX      0.071700
     40 H102        9.2890   -1.1640    2.9430 hc        1 PGX      0.071700
     41 H111       10.2290   -2.8930    0.9290 h1        1 PGX      0.102700
     42 H121        7.6050   -3.2570    0.2850 hc        1 PGX      0.073700
     43 H131        8.3540   -0.3060    0.9550 ha        1 PGX      0.128000
     44 H141        7.7440    0.1410   -1.3540 ha        1 PGX      0.196000
     45 H151        6.5340   -2.5880   -1.5420 h1        1 PGX      0.055700
     46 H161        8.0910   -3.5260   -3.2200 hc        1 PGX      0.041700
     47 H162        8.9240   -3.3390   -1.6170 hc        1 PGX      0.041700
     48 H171        9.9500   -1.1800   -2.4300 hc        1 PGX      0.056200
     49 H172        9.1220   -1.3920   -4.0190 hc        1 PGX      0.056200
     50 H181       11.1530   -3.3760   -2.7660 hc        1 PGX      0.032700
     51 H182       10.3280   -3.5810   -4.3580 hc        1 PGX      0.032700
     52 H191       12.1730   -1.2210   -3.5720 hc        1 PGX      0.041200
     53 H192       11.3480   -1.4260   -5.1640 hc        1 PGX      0.041200
     54 H201       13.4020   -3.3900   -3.9270 hc        1 PGX      0.026700
     55 H202       13.7160   -2.2110   -5.2660 hc        1 PGX      0.026700
     56 H203       12.5760   -3.5950   -5.5230 hc        1 PGX      0.026700
     57 HO61        5.6910    0.1040   -2.5260 ho        1 PGX      0.470000
@<TRIPOS>BOND
     1    1    2 1   
     2    1   21 1   
     3    1   22 1   
     4    2    3 1   
     5    2   27 1   
     6    2   28 1   
     7    3    4 1   
     8    3   29 1   
     9    3   30 1   
    10    4    5 1   
    11    4   31 1   
    12    4   32 1   
    13    5    6 2   
    14    5   33 1   
    15    6    7 1   
    16    6   34 1   
    17    7    8 1   
    18    7   35 1   
    19    7   36 1   
    20    8    9 1   
    21    8   12 1   
    22    8   37 1   
    23    9   10 1   
    24    9   23 1   
    25    9   38 1   
    26   10   11 1   
    27   10   39 1   
    28   10   40 1   
    29   11   12 1   
    30   11   24 1   
    31   11   41 1   
    32   12   13 1   
    33   12   42 1   
    34   13   14 2   
    35   13   43 1   
    36   14   15 1   
    37   14   44 1   
    38   15   16 1   
    39   15   25 1   
    40   15   45 1   
    41   16   17 1   
    42   16   46 1   
    43   16   47 1   
    44   17   18 1   
    45   17   48 1   
    46   17   49 1   
    47   18   19 1   
    48   18   50 1   
    49   18   51 1   
    50   19   20 1   
    51   19   52 1   
    52   19   53 1   
    53   20   54 1   
    54   20   55 1   
    55   20   56 1   
    56   23   24 1   
    57   25   26 1   
    58   26   57 1   
@<TRIPOS>SUBSTRUCTURE
     1 PGX         1 TEMP              0 ****  ****    0 ROOT
