@<TRIPOS>MOLECULE
PGY
   19    19     1     0     0
SMALL
bcc


@<TRIPOS>ATOM
      1 N           0.8350    1.8110   -1.3350 n3        1 PGY     -0.882800
      2 CA         -0.1930    0.8210   -1.0190 c3        1 PGY      0.045800
      3 CB         -0.0950    0.3600    0.4080 ca        1 PGY     -0.014300
      4 CG1        -1.0340    0.7710    1.3600 ca        1 PGY     -0.124000
      5 CG2         0.9440   -0.4980    0.7970 ca        1 PGY     -0.124000
      6 CD1        -0.9340    0.3360    2.6810 ca        1 PGY     -0.147000
      7 CD2         1.0420   -0.9270    2.1180 ca        1 PGY     -0.147000
      8 CE          0.1060   -0.5090    3.0640 ca        1 PGY     -0.161000
      9 C          -0.1360   -0.4300   -1.9710 c         1 PGY      0.893600
     10 O           1.0090   -0.8780   -2.2660 o         1 PGY     -0.833300
     11 OXT        -1.2280   -0.8790   -2.4050 o         1 PGY     -0.833300
     12 H           0.7960    1.9740   -2.3260 hn        1 PGY      0.331300
     13 H2          1.7330    1.3980   -1.1500 hn        1 PGY      0.331300
     14 HA         -1.1920    1.3200   -1.1770 h1        1 PGY      0.052700
     15 HG1        -1.8570    1.4360    1.0610 ha        1 PGY      0.147000
     16 HG2         1.6530   -0.8470    0.0240 ha        1 PGY      0.147000
     17 HD1        -1.6790    0.6600    3.4220 ha        1 PGY      0.107500
     18 HD2         1.8570   -1.6030    2.4140 ha        1 PGY      0.107500
     19 HE          0.1840   -0.8500    4.1050 ha        1 PGY      0.104000
@<TRIPOS>BOND
     1    1    2 1   
     2    1   12 1   
     3    1   13 1   
     4    2    3 1   
     5    2    9 1   
     6    2   14 1   
     7    3    4 ar  
     8    3    5 ar  
     9    4    6 ar  
    10    4   15 1   
    11    5    7 ar  
    12    5   16 1   
    13    6    8 ar  
    14    6   17 1   
    15    7    8 ar  
    16    7   18 1   
    17    8   19 1   
    18    9   10 1   
    19    9   11 1   
@<TRIPOS>SUBSTRUCTURE
     1 PGY         1 TEMP              0 ****  ****    0 ROOT
