@<TRIPOS>MOLECULE
PGY
   19    17     1     0     0
SMALL
bcc


@<TRIPOS>ATOM
      1 N          -1.7830    0.4950   -1.6500 n3        1 PGY     -0.315000
      2 CA         -0.5420   -0.2520   -1.5300 c3        1 PGY     -0.109000
      3 CB         -0.0720   -0.2170   -0.1110 c2        1 PGY     -0.007000
      4 CG1         0.1630   -1.4170    0.5730 c2        1 PGY     -0.130000
      5 CG2         0.1250    0.9870    0.5260 c1        1 PGY     -0.118000
      6 CD1         0.6010   -1.3940    1.9070 c1        1 PGY     -0.149000
      7 CD2         0.5650    1.0090    1.8670 c1        1 PGY     -0.153000
      8 CE          0.7990   -0.1940    2.5460 c1        1 PGY     -0.153000
      9 C           0.5000    0.3560   -2.4170 c2        1 PGY      0.313000
     10 O           1.5230   -0.3580   -2.7990 o         1 PGY     -0.568000
     11 OXT         0.3250    1.5610   -2.9020 o         1 PGY     -0.568000
     12 H          -2.3900    0.1680   -1.0580 hn        1 PGY      0.126500
     13 H2         -1.6260    1.3870   -1.4680 hn        1 PGY      0.126500
     14 HA         -0.6930   -1.1760   -1.7970 h1        1 PGY      0.092000
     15 HG1         0.0220   -2.2980    0.1070 ha        1 PGY      0.123000
     16 HG2        -0.0560    1.8690    0.0290 ha        1 PGY      0.171000
     17 HD1         0.7590   -2.2160    2.3730 ha        1 PGY      0.105000
     18 HD2         0.7100    1.8720    2.3280 ha        1 PGY      0.107000
     19 HE          1.0690   -0.1800    3.4760 ha        1 PGY      0.107000
@<TRIPOS>BOND
     1    1    2 1   
     2    1   12 1   
     3    1   13 1   
     4    2    3 1   
     5    2    9 1   
     6    2   14 1   
     7    3    4 1   
     8    3    5 1   
     9    4    6 1   
    10    4   15 1   
    11    5   16 1   
    12    6   17 1   
    13    7    8 1   
    14    7   18 1   
    15    8   19 1   
    16    9   10 1   
    17    9   11 1   
@<TRIPOS>SUBSTRUCTURE
     1 PGY         1 TEMP              0 ****  ****    0 ROOT
