@<TRIPOS>MOLECULE
PGZ
   61    63     1     0     0
SMALL
bcc


@<TRIPOS>ATOM
      1 O1B         0.3840   -1.1960    0.0170 o         1 PGZ     -0.626100
      2 C1B         1.3390   -0.4020    0.1600 c         1 PGZ      0.680700
      3 C5B         1.9680   -0.1560    1.4860 ca        1 PGZ     -0.154600
      4 C6B         1.1370   -0.1130    2.6120 ca        1 PGZ     -0.082000
      5 C7B         1.6840    0.1090    3.8730 ca        1 PGZ     -0.140500
      6 C2B         3.0660    0.2790    4.0260 ca        1 PGZ     -0.048300
      7 C8B         3.6470    0.5280    5.3650 c3        1 PGZ     -0.060800
      8 C3B         3.8930    0.2160    2.8980 ca        1 PGZ     -0.140500
      9 C4B         3.3500    0.0010    1.6330 ca        1 PGZ     -0.082000
     10 N1B         1.8630    0.2730   -0.9280 n         1 PGZ     -0.568900
     11 C3A         1.2270    0.2830   -2.2210 c3        1 PGZ      0.055700
     12 C4A         1.1360    1.7260   -2.7830 c3        1 PGZ      0.106100
     13 O4A         2.4060    2.3460   -2.8210 oh        1 PGZ     -0.592800
     14 C2D         0.4830    1.6740   -4.1660 c3        1 PGZ      0.051100
     15 C6A         0.3810    3.0670   -4.7950 c3        1 PGZ      0.142400
     16 O6A        -0.2200    3.0060   -6.0690 oh        1 PGZ     -0.593800
     17 O5A         1.3220    0.9110   -5.0370 os        1 PGZ     -0.415600
     18 C1A         1.4210   -0.4580   -4.6670 c3        1 PGZ      0.192200
     19 S1D         2.5900   -1.1410   -5.8290 ss        1 PGZ     -0.246200
     20 C1D         1.5770   -1.5350   -7.2040 c3        1 PGZ     -0.046000
     21 C2A         1.9560   -0.6550   -3.2380 c3        1 PGZ      0.161100
     22 O4P         1.6560   -1.9810   -2.8680 os        1 PGZ     -0.577200
     23 P           2.8390   -2.9450   -2.3520 p5        1 PGZ      1.638500
     24 O3P         2.1840   -3.3760   -0.9790 oh        1 PGZ     -0.754400
     25 O2P         4.1600   -2.3340   -2.3520 o         1 PGZ     -0.812300
     26 O1P         2.6630   -4.2440   -3.2670 os        1 PGZ     -0.565200
     27 C1C         3.8170   -4.7910   -3.8760 c3        1 PGZ      0.211700
     28 C5C         4.1610   -6.1290   -3.3020 ca        1 PGZ     -0.124300
     29 C6C         3.1570   -7.0090   -2.8870 ca        1 PGZ     -0.108500
     30 C7C         3.4930   -8.2700   -2.3950 ca        1 PGZ     -0.133500
     31 C2C         4.8310   -8.6570   -2.3200 ca        1 PGZ     -0.123000
     32 C4C         5.5030   -6.5170   -3.2200 ca        1 PGZ     -0.108500
     33 C3C         5.8340   -7.7800   -2.7330 ca        1 PGZ     -0.133500
     34 H1B         2.5910    0.9370   -0.7900 hn        1 PGZ      0.331500
     35 H6B         0.0530   -0.2670    2.4910 ha        1 PGZ      0.149500
     36 H4B         4.0220   -0.0660    0.7620 ha        1 PGZ      0.149500
     37 H7B         1.0280    0.1450    4.7550 ha        1 PGZ      0.139000
     38 H8B1        3.0090    0.0840    6.1690 hc        1 PGZ      0.049367
     39 H8B2        3.7230    1.6300    5.5470 hc        1 PGZ      0.049367
     40 H8B3        4.6720    0.0890    5.4440 hc        1 PGZ      0.049367
     41 H3B         4.9810    0.3330    3.0110 ha        1 PGZ      0.139000
     42 H3A         0.1750   -0.1220   -2.1100 h1        1 PGZ      0.103700
     43 H4A         0.5270    2.3720   -2.0890 h1        1 PGZ      0.093700
     44 H2A         3.0740   -0.4880   -3.2110 h1        1 PGZ      0.096700
     45 HA          2.9030    1.9430   -3.5470 ho        1 PGZ      0.419000
     46 H2D        -0.5320    1.1970   -4.1020 h1        1 PGZ      0.068700
     47 H6A1       -0.2990    3.7100   -4.1760 h1        1 PGZ      0.062700
     48 H6A2        1.4010    3.5300   -4.8560 h1        1 PGZ      0.062700
     49 H6A         0.3470    2.4550   -6.6240 ho        1 PGZ      0.413000
     50 H1A         0.4180   -0.9520   -4.7630 h2        1 PGZ      0.083700
     51 H1D1        0.7870   -2.2750   -6.9420 h1        1 PGZ      0.071033
     52 H1D2        2.2580   -1.9820   -7.9650 h1        1 PGZ      0.071033
     53 H1D3        1.0930   -0.6310   -7.6350 h1        1 PGZ      0.071033
     54 H1C1        3.5640   -4.9200   -4.9680 h1        1 PGZ      0.069200
     55 H1C2        4.6770   -4.0700   -3.7680 h1        1 PGZ      0.069200
     56 H6C         2.1040   -6.6920   -2.9450 ha        1 PGZ      0.141500
     57 H4C         6.2960   -5.8230   -3.5360 ha        1 PGZ      0.141500
     58 H7C         2.7010   -8.9570   -2.0650 ha        1 PGZ      0.132500
     59 H2C         5.0950   -9.6520   -1.9330 ha        1 PGZ      0.131000
     60 H3C         6.8900   -8.0830   -2.6700 ha        1 PGZ      0.132500
     61 H1B2        1.2970   -3.0580   -0.7860 ho        1 PGZ      0.510000
@<TRIPOS>BOND
     1    1    2 2   
     2    2    3 1   
     3    2   10 1   
     4    3    4 ar  
     5    3    9 ar  
     6    4    5 ar  
     7    4   35 1   
     8    5    6 ar  
     9    5   37 1   
    10    6    7 1   
    11    6    8 ar  
    12    7   38 1   
    13    7   39 1   
    14    7   40 1   
    15    8    9 ar  
    16    8   41 1   
    17    9   36 1   
    18   10   11 1   
    19   10   34 1   
    20   11   12 1   
    21   11   21 1   
    22   11   42 1   
    23   12   13 1   
    24   12   14 1   
    25   12   43 1   
    26   13   45 1   
    27   14   15 1   
    28   14   17 1   
    29   14   46 1   
    30   15   16 1   
    31   15   47 1   
    32   15   48 1   
    33   16   49 1   
    34   17   18 1   
    35   18   19 1   
    36   18   21 1   
    37   18   50 1   
    38   19   20 1   
    39   20   51 1   
    40   20   52 1   
    41   20   53 1   
    42   21   22 1   
    43   21   44 1   
    44   22   23 1   
    45   23   24 1   
    46   23   25 2   
    47   23   26 1   
    48   24   61 1   
    49   26   27 1   
    50   27   28 1   
    51   27   54 1   
    52   27   55 1   
    53   28   29 ar  
    54   28   32 ar  
    55   29   30 ar  
    56   29   56 1   
    57   30   31 ar  
    58   30   58 1   
    59   31   33 ar  
    60   31   59 1   
    61   32   33 ar  
    62   32   57 1   
    63   33   60 1   
@<TRIPOS>SUBSTRUCTURE
     1 PGZ         1 TEMP              0 ****  ****    0 ROOT
