@<TRIPOS>MOLECULE
PGZ
   61    63     1     0     0
SMALL
bcc


@<TRIPOS>ATOM
      1 O1B         0.3450   -1.2150   -0.0260 o         1 PGZ     -0.626100
      2 C1B         1.2960   -0.4200    0.1380 c         1 PGZ      0.680700
      3 C5B         1.9010   -0.1790    1.4760 ca        1 PGZ     -0.154600
      4 C6B         1.0500   -0.1420    2.5870 ca        1 PGZ     -0.082000
      5 C7B         1.5750    0.0740    3.8590 ca        1 PGZ     -0.140500
      6 C2B         2.9530    0.2450    4.0370 ca        1 PGZ     -0.048300
      7 C8B         3.5100    0.4880    5.3880 c3        1 PGZ     -0.060800
      8 C3B         3.8000    0.1890    2.9240 ca        1 PGZ     -0.140500
      9 C4B         3.2800   -0.0210    1.6480 ca        1 PGZ     -0.082000
     10 N1B         1.8380    0.2610   -0.9370 ns        1 PGZ     -0.568900
     11 C3A         1.2260    0.2750   -2.2420 c3        1 PGZ      0.055700
     12 C4A         1.1420    1.7210   -2.7990 c3        1 PGZ      0.106100
     13 O4A         2.4120    2.3440   -2.8110 oh        1 PGZ     -0.592800
     14 C2D         0.5150    1.6740   -4.1940 c3        1 PGZ      0.051100
     15 C6A         0.4210    3.0690   -4.8190 c3        1 PGZ      0.142400
     16 O6A        -0.1560    3.0120   -6.1030 oh        1 PGZ     -0.593800
     17 O5A         1.3720    0.9160   -5.0520 os        1 PGZ     -0.415600
     18 C1A         1.4660   -0.4540   -4.6870 c3        1 PGZ      0.192200
     19 S1D         2.6580   -1.1300   -5.8300 ss        1 PGZ     -0.246200
     20 C1D         1.6720   -1.5210   -7.2240 c3        1 PGZ     -0.046000
     21 C2A         1.9760   -0.6570   -3.2490 c3        1 PGZ      0.161100
     22 O4P         1.6710   -1.9850   -2.8900 os        1 PGZ     -0.577200
     23 P           2.8460   -2.9490   -2.3570 p5        1 PGZ      1.638500
     24 O3P         2.1660   -3.3880   -0.9980 oh        1 PGZ     -0.754400
     25 O2P         4.1650   -2.3350   -2.3280 o         1 PGZ     -0.812300
     26 O1P         2.6900   -4.2440   -3.2810 os        1 PGZ     -0.565200
     27 C1C         3.8570   -4.7870   -3.8680 c3        1 PGZ      0.211700
     28 C5C         4.1900   -6.1270   -3.2930 ca        1 PGZ     -0.124300
     29 C6C         3.1790   -7.0110   -2.9030 ca        1 PGZ     -0.108500
     30 C7C         3.5060   -8.2720   -2.4090 ca        1 PGZ     -0.133500
     31 C2C         4.8430   -8.6580   -2.3070 ca        1 PGZ     -0.123000
     32 C4C         5.5310   -6.5130   -3.1830 ca        1 PGZ     -0.108500
     33 C3C         5.8540   -7.7780   -2.6940 ca        1 PGZ     -0.133500
     34 H1B         2.5630    0.9260   -0.7830 hn        1 PGZ      0.331500
     35 H6B        -0.0320   -0.2970    2.4460 ha        1 PGZ      0.149500
     36 H4B         3.9670   -0.0820    0.7890 ha        1 PGZ      0.149500
     37 H7B         0.9020    0.1040    4.7290 ha        1 PGZ      0.139000
     38 H8B1        2.8610    0.0340    6.1770 hc        1 PGZ      0.049367
     39 H8B2        3.5750    1.5890    5.5790 hc        1 PGZ      0.049367
     40 H8B3        4.5370    0.0560    5.4810 hc        1 PGZ      0.049367
     41 H3B         4.8860    0.3060    3.0570 ha        1 PGZ      0.139000
     42 H3A         0.1730   -0.1330   -2.1510 h1        1 PGZ      0.103700
     43 H4A         0.5200    2.3630   -2.1140 h1        1 PGZ      0.093700
     44 H2A         3.0920   -0.4880   -3.2010 h1        1 PGZ      0.096700
     45 HA          2.9220    1.9440   -3.5300 ho        1 PGZ      0.419000
     46 H2D        -0.5010    1.1950   -4.1510 h1        1 PGZ      0.068700
     47 H6A1       -0.2710    3.7080   -4.2090 h1        1 PGZ      0.062700
     48 H6A2        1.4420    3.5340   -4.8590 h1        1 PGZ      0.062700
     49 H6A         0.4220    2.4650   -6.6500 ho        1 PGZ      0.413000
     50 H1A         0.4660   -0.9500   -4.8040 h2        1 PGZ      0.083700
     51 H1D1        1.1930   -0.6170   -7.6610 h1        1 PGZ      0.071033
     52 H1D2        0.8790   -2.2630   -6.9810 h1        1 PGZ      0.071033
     53 H1D3        2.3680   -1.9630   -7.9750 h1        1 PGZ      0.071033
     54 H1C1        3.6260   -4.9130   -4.9660 h1        1 PGZ      0.069200
     55 H1C2        4.7140   -4.0660   -3.7400 h1        1 PGZ      0.069200
     56 H6C         2.1270   -6.6940   -2.9830 ha        1 PGZ      0.141500
     57 H4C         6.3300   -5.8170   -3.4790 ha        1 PGZ      0.141500
     58 H7C         2.7080   -8.9630   -2.0990 ha        1 PGZ      0.132500
     59 H2C         5.1000   -9.6540   -1.9180 ha        1 PGZ      0.131000
     60 H3C         6.9080   -8.0800   -2.6100 ha        1 PGZ      0.132500
     61 H1B2        1.2740   -3.0720   -0.8210 ho        1 PGZ      0.510000
@<TRIPOS>BOND
     1    1    2 2   
     2    2    3 1   
     3    2   10 1   
     4    3    4 ar  
     5    3    9 ar  
     6    4    5 ar  
     7    4   35 1   
     8    5    6 ar  
     9    5   37 1   
    10    6    7 1   
    11    6    8 ar  
    12    7   38 1   
    13    7   39 1   
    14    7   40 1   
    15    8    9 ar  
    16    8   41 1   
    17    9   36 1   
    18   10   11 1   
    19   10   34 1   
    20   11   12 1   
    21   11   21 1   
    22   11   42 1   
    23   12   13 1   
    24   12   14 1   
    25   12   43 1   
    26   13   45 1   
    27   14   15 1   
    28   14   17 1   
    29   14   46 1   
    30   15   16 1   
    31   15   47 1   
    32   15   48 1   
    33   16   49 1   
    34   17   18 1   
    35   18   19 1   
    36   18   21 1   
    37   18   50 1   
    38   19   20 1   
    39   20   51 1   
    40   20   52 1   
    41   20   53 1   
    42   21   22 1   
    43   21   44 1   
    44   22   23 1   
    45   23   24 1   
    46   23   25 2   
    47   23   26 1   
    48   24   61 1   
    49   26   27 1   
    50   27   28 1   
    51   27   54 1   
    52   27   55 1   
    53   28   29 ar  
    54   28   32 ar  
    55   29   30 ar  
    56   29   56 1   
    57   30   31 ar  
    58   30   58 1   
    59   31   33 ar  
    60   31   59 1   
    61   32   33 ar  
    62   32   57 1   
    63   33   60 1   
@<TRIPOS>SUBSTRUCTURE
     1 PGZ         1 TEMP              0 ****  ****    0 ROOT
