@<TRIPOS>MOLECULE
PGZ
   60    62     1     0     0
SMALL
bcc


@<TRIPOS>ATOM
      1 O1B         3.1130    2.3170   -1.5520 o         1 PGZ     -0.671100
      2 C1B         2.2610    2.5320   -0.6530 c         1 PGZ      0.669700
      3 C5B         1.8890    3.9310   -0.2850 ca        1 PGZ     -0.139600
      4 C6B         2.8150    4.9430   -0.5760 ca        1 PGZ     -0.083500
      5 C7B         2.5270    6.2690   -0.2700 ca        1 PGZ     -0.155000
      6 C2B         1.3070    6.6060    0.3290 ca        1 PGZ     -0.074300
      7 C8B         1.0050    8.0140    0.6720 c3        1 PGZ     -0.048800
      8 C3B         0.3830    5.5940    0.6090 ca        1 PGZ     -0.155000
      9 C4B         0.6650    4.2610    0.3070 ca        1 PGZ     -0.083500
     10 N1B         1.7010    1.4990    0.0580 n         1 PGZ     -0.530900
     11 C3A         1.8670    0.1310   -0.3650 c3        1 PGZ      0.094700
     12 C4A         3.2890   -0.4230   -0.0920 c3        1 PGZ      0.102100
     13 O4A         3.4890   -0.4520    1.3100 oh        1 PGZ     -0.569800
     14 C2D         3.3800   -1.8190   -0.7220 c3        1 PGZ      0.060100
     15 C6A         4.7100   -2.5080   -0.4120 c3        1 PGZ      0.134400
     16 O6A         4.8240   -3.7410   -1.0940 oh        1 PGZ     -0.609800
     17 O5A         2.3740   -2.6970   -0.2170 os        1 PGZ     -0.426600
     18 C1A         1.0400   -2.2180   -0.3760 c3        1 PGZ      0.202200
     19 S1D         0.0430   -3.4890    0.3810 ss        1 PGZ     -0.195200
     20 C1D         0.1230   -4.7470   -0.8330 c3        1 PGZ     -0.063000
     21 C2A         0.8260   -0.8420    0.2860 c3        1 PGZ      0.194100
     22 O4P        -0.4620   -0.4070    0.0100 os        1 PGZ     -0.571200
     23 P          -1.3400    0.2300    1.2750 p5        1 PGZ      1.438800
     24 O3P        -1.0060    1.6700    1.2510 o         1 PGZ     -0.827500
     25 O2P        -1.1840   -0.6660    2.4310 o         1 PGZ     -0.827500
     26 O1P        -2.8230   -0.0050    0.6220 os        1 PGZ     -0.557200
     27 C1C        -3.2450   -1.3390    0.7340 c3        1 PGZ      0.198700
     28 C5C        -4.5570   -1.5530    0.0520 ca        1 PGZ     -0.059300
     29 C6C        -5.1590   -2.8160    0.1240 ca        1 PGZ     -0.122000
     30 C7C        -6.3800   -3.0490   -0.5050 ca        1 PGZ     -0.142000
     31 C2C        -7.0110   -2.0240   -1.2100 ca        1 PGZ     -0.153000
     32 C4C        -5.1930   -0.5280   -0.6560 ca        1 PGZ     -0.122000
     33 C3C        -6.4150   -0.7650   -1.2840 ca        1 PGZ     -0.142000
     34 H1B         0.9140    1.6800    0.6640 hn        1 PGZ      0.369500
     35 H6B         3.7680    4.6720   -1.0580 ha        1 PGZ      0.182000
     36 H4B        -0.0960    3.4870    0.5470 ha        1 PGZ      0.182000
     37 H7B         3.2590    7.0560   -0.5000 ha        1 PGZ      0.125500
     38 H8B1       -0.0940    8.2120    0.6170 hc        1 PGZ      0.036367
     39 H8B2        1.3480    8.2340    1.7140 hc        1 PGZ      0.036367
     40 H8B3        1.5270    8.7170   -0.0230 hc        1 PGZ      0.036367
     41 H3B        -0.5810    5.8460    1.0750 ha        1 PGZ      0.125500
     42 H3A         1.7270    0.0880   -1.4890 h1        1 PGZ      0.057700
     43 H4A         4.0530    0.2490   -0.5780 h1        1 PGZ      0.064700
     44 H2A         1.0030   -0.9150    1.3990 h1        1 PGZ      0.097700
     45 HA          4.4110   -0.6960    1.4510 ho        1 PGZ      0.386000
     46 H2D         3.2520   -1.7240   -1.8380 h1        1 PGZ      0.052700
     47 H6A1        5.5620   -1.8820   -0.7870 h1        1 PGZ      0.048200
     48 H6A2        4.8070   -2.6770    0.6940 h1        1 PGZ      0.048200
     49 H6A         4.0340   -4.2520   -0.8770 ho        1 PGZ      0.415000
     50 H1A         0.7990   -2.1440   -1.4700 h2        1 PGZ      0.057700
     51 H1D1        1.1690   -5.0750   -1.0240 h1        1 PGZ      0.055367
     52 H1D2       -0.4620   -5.6070   -0.4320 h1        1 PGZ      0.055367
     53 H1D3       -0.3250   -4.4260   -1.8000 h1        1 PGZ      0.055367
     54 H1C1       -2.4550   -2.0040    0.2750 h1        1 PGZ      0.056200
     55 H1C2       -3.3270   -1.5940    1.8300 h1        1 PGZ      0.056200
     56 H6C        -4.6610   -3.6230    0.6810 ha        1 PGZ      0.146000
     57 H4C        -4.7100    0.4620   -0.7060 ha        1 PGZ      0.146000
     58 H7C        -6.8470   -4.0420   -0.4450 ha        1 PGZ      0.116000
     59 H2C        -7.9730   -2.2080   -1.7060 ha        1 PGZ      0.112000
     60 H3C        -6.9100    0.0450   -1.8390 ha        1 PGZ      0.116000
@<TRIPOS>BOND
     1    1    2 2   
     2    2    3 1   
     3    2   10 1   
     4    3    4 ar  
     5    3    9 ar  
     6    4    5 ar  
     7    4   35 1   
     8    5    6 ar  
     9    5   37 1   
    10    6    7 1   
    11    6    8 ar  
    12    7   38 1   
    13    7   39 1   
    14    7   40 1   
    15    8    9 ar  
    16    8   41 1   
    17    9   36 1   
    18   10   11 1   
    19   10   34 1   
    20   11   12 1   
    21   11   21 1   
    22   11   42 1   
    23   12   13 1   
    24   12   14 1   
    25   12   43 1   
    26   13   45 1   
    27   14   15 1   
    28   14   17 1   
    29   14   46 1   
    30   15   16 1   
    31   15   47 1   
    32   15   48 1   
    33   16   49 1   
    34   17   18 1   
    35   18   19 1   
    36   18   21 1   
    37   18   50 1   
    38   19   20 1   
    39   20   51 1   
    40   20   52 1   
    41   20   53 1   
    42   21   22 1   
    43   21   44 1   
    44   22   23 1   
    45   23   24 1   
    46   23   25 1   
    47   23   26 1   
    48   26   27 1   
    49   27   28 1   
    50   27   54 1   
    51   27   55 1   
    52   28   29 ar  
    53   28   32 ar  
    54   29   30 ar  
    55   29   56 1   
    56   30   31 ar  
    57   30   58 1   
    58   31   33 ar  
    59   31   59 1   
    60   32   33 ar  
    61   32   57 1   
    62   33   60 1   
@<TRIPOS>SUBSTRUCTURE
     1 PGZ         1 TEMP              0 ****  ****    0 ROOT
