@<TRIPOS>MOLECULE
PGZ
   61    63     1     0     0
SMALL
bcc


@<TRIPOS>ATOM
      1 O1B         0.3940   -1.1740    0.0240 o         1 PGZ     -0.626100
      2 C1B         1.3540   -0.3840    0.1530 c         1 PGZ      0.680700
      3 C5B         1.9950   -0.1320    1.4730 ca        1 PGZ     -0.154600
      4 C6B         1.1730   -0.0750    2.6050 ca        1 PGZ     -0.082000
      5 C7B         1.7310    0.1530    3.8590 ca        1 PGZ     -0.140500
      6 C2B         3.1150    0.3150    4.0010 ca        1 PGZ     -0.048300
      7 C8B         3.7100    0.5390    5.3380 c3        1 PGZ     -0.060800
      8 C3B         3.9330    0.2410    2.8660 ca        1 PGZ     -0.140500
      9 C4B         3.3790    0.0200    1.6070 ca        1 PGZ     -0.082000
     10 N1B         1.8730    0.2800   -0.9430 n         1 PGZ     -0.568900
     11 C3A         1.2280    0.2830   -2.2320 c3        1 PGZ      0.055700
     12 C4A         1.1410    1.7220   -2.8040 c3        1 PGZ      0.106100
     13 O4A         2.4130    2.3350   -2.8570 oh        1 PGZ     -0.592800
     14 C2D         0.4770    1.6630   -4.1830 c3        1 PGZ      0.051100
     15 C6A         0.3770    3.0510   -4.8220 c3        1 PGZ      0.142400
     16 O6A        -0.2340    2.9830   -6.0900 oh        1 PGZ     -0.593800
     17 O5A         1.3060    0.8880   -5.0530 os        1 PGZ     -0.415600
     18 C1A         1.3990   -0.4780   -4.6740 c3        1 PGZ      0.192200
     19 S1D         2.5560   -1.1770   -5.8380 ss        1 PGZ     -0.246200
     20 C1D         1.5310   -1.5770   -7.2020 c3        1 PGZ     -0.046000
     21 C2A         1.9440   -0.6670   -3.2470 c3        1 PGZ      0.161100
     22 O4P         1.6400   -1.9890   -2.8640 os        1 PGZ     -0.577200
     23 P           2.8210   -2.9550   -2.3490 p5        1 PGZ      1.638500
     24 O3P         2.1730   -3.3720   -0.9680 oh        1 PGZ     -0.754400
     25 O2P         4.1450   -2.3510   -2.3630 o         1 PGZ     -0.812300
     26 O1P         2.6300   -4.2600   -3.2520 os        1 PGZ     -0.565200
     27 C1C         3.7770   -4.8190   -3.8650 c3        1 PGZ      0.211700
     28 C5C         4.1160   -6.1550   -3.2820 ca        1 PGZ     -0.124300
     29 C6C         3.1100   -7.0250   -2.8540 ca        1 PGZ     -0.108500
     30 C7C         3.4410   -8.2840   -2.3530 ca        1 PGZ     -0.133500
     31 C2C         4.7770   -8.6790   -2.2830 ca        1 PGZ     -0.123000
     32 C4C         5.4560   -6.5500   -3.2050 ca        1 PGZ     -0.108500
     33 C3C         5.7830   -7.8110   -2.7100 ca        1 PGZ     -0.133500
     34 H1B         1.2900   -3.0480   -0.7710 ho        1 PGZ      0.510000
     35 H6B         0.0870   -0.2230    2.4930 ha        1 PGZ      0.149500
     36 H4B         4.0430   -0.0560    0.7320 ha        1 PGZ      0.149500
     37 H7B         1.0820    0.2020    4.7460 ha        1 PGZ      0.139000
     38 H8B1        4.6410    1.1540    5.2650 hc        1 PGZ      0.049367
     39 H8B2        3.9770   -0.4440    5.8040 hc        1 PGZ      0.049367
     40 H8B3        2.9910    1.0630    6.0150 hc        1 PGZ      0.049367
     41 H3B         5.0220    0.3560    2.9700 ha        1 PGZ      0.139000
     42 H3A         0.1740   -0.1160   -2.1090 h1        1 PGZ      0.103700
     43 H4A         0.5400    2.3770   -2.1110 h1        1 PGZ      0.093700
     44 H2A         3.0630   -0.5070   -3.2290 h1        1 PGZ      0.096700
     45 HA          2.9030    1.9230   -3.5840 ho        1 PGZ      0.419000
     46 H2D        -0.5410    1.1920   -4.1070 h1        1 PGZ      0.068700
     47 H6A1       -0.2940    3.7030   -4.2030 h1        1 PGZ      0.062700
     48 H6A2        1.4000    3.5070   -4.8940 h1        1 PGZ      0.062700
     49 H6A         0.3270    2.4250   -6.6450 ho        1 PGZ      0.413000
     50 H1A         0.3930   -0.9680   -4.7580 h2        1 PGZ      0.083700
     51 H1D1        1.0480   -0.6740   -7.6370 h1        1 PGZ      0.071033
     52 H1D2        2.2040   -2.0340   -7.9650 h1        1 PGZ      0.071033
     53 H1D3        0.7400   -2.3100   -6.9290 h1        1 PGZ      0.071033
     54 H1C1        4.6430   -4.1030   -3.7690 h1        1 PGZ      0.069200
     55 H1C2        3.5160   -4.9560   -4.9550 h1        1 PGZ      0.069200
     56 H6C         2.0590   -6.7020   -2.9080 ha        1 PGZ      0.141500
     57 H4C         6.2520   -5.8640   -3.5320 ha        1 PGZ      0.141500
     58 H7C         2.6470   -8.9640   -2.0130 ha        1 PGZ      0.132500
     59 H2C         5.0380   -9.6720   -1.8900 ha        1 PGZ      0.131000
     60 H3C         6.8370   -8.1200   -2.6520 ha        1 PGZ      0.132500
     61 H1B2        2.6060    0.9410   -0.8160 hn        1 PGZ      0.331500
@<TRIPOS>BOND
     1    1    2 2   
     2    2    3 1   
     3    2   10 1   
     4    3    4 ar  
     5    3    9 ar  
     6    4    5 ar  
     7    4   35 1   
     8    5    6 ar  
     9    5   37 1   
    10    6    7 1   
    11    6    8 ar  
    12    7   38 1   
    13    7   39 1   
    14    7   40 1   
    15    8    9 ar  
    16    8   41 1   
    17    9   36 1   
    18   10   11 1   
    19   10   61 1   
    20   11   12 1   
    21   11   21 1   
    22   11   42 1   
    23   12   13 1   
    24   12   14 1   
    25   12   43 1   
    26   13   45 1   
    27   14   15 1   
    28   14   17 1   
    29   14   46 1   
    30   15   16 1   
    31   15   47 1   
    32   15   48 1   
    33   16   49 1   
    34   17   18 1   
    35   18   19 1   
    36   18   21 1   
    37   18   50 1   
    38   19   20 1   
    39   20   51 1   
    40   20   52 1   
    41   20   53 1   
    42   21   22 1   
    43   21   44 1   
    44   22   23 1   
    45   23   24 1   
    46   23   25 2   
    47   23   26 1   
    48   24   34 1   
    49   26   27 1   
    50   27   28 1   
    51   27   54 1   
    52   27   55 1   
    53   28   29 ar  
    54   28   32 ar  
    55   29   30 ar  
    56   29   56 1   
    57   30   31 ar  
    58   30   58 1   
    59   31   33 ar  
    60   31   59 1   
    61   32   33 ar  
    62   32   57 1   
    63   33   60 1   
@<TRIPOS>SUBSTRUCTURE
     1 PGZ         1 TEMP              0 ****  ****    0 ROOT
