@<TRIPOS>MOLECULE
PH0
   65    67     1     0     0
SMALL
bcc


@<TRIPOS>ATOM
      1 O1          2.2940    0.1660    0.7650 oh        1 PH0     -0.802400
      2 C1          4.7850    1.1920   -0.2390 c3        1 PH0     -0.047100
      3 C2          5.6540   -0.0110   -0.3620 ca        1 PH0     -0.083300
      4 C3          5.2350   -1.2390    0.1680 ca        1 PH0     -0.125000
      5 C4          6.0490   -2.3640    0.0570 ca        1 PH0     -0.132500
      6 C5          7.2880   -2.2750   -0.5780 ca        1 PH0     -0.135000
      7 C6          7.7120   -1.0550   -1.1030 ca        1 PH0     -0.132500
      8 C7          6.8990    0.0730   -0.9960 ca        1 PH0     -0.125000
      9 C8          3.6180    1.1770   -1.2330 c3        1 PH0     -0.122700
     10 C9          1.0000    0.7730   -1.4180 c3        1 PH0     -0.447600
     11 C10        -0.3770    0.8450   -0.7790 c3        1 PH0     -0.104700
     12 C11        -1.0820   -0.5260   -0.8380 c         1 PH0      0.646100
     13 C12        -3.2720   -1.6320   -0.6960 c3        1 PH0     -0.061300
     14 C13        -4.0480   -2.2360    0.4820 c3        1 PH0     -0.039100
     15 C14        -3.2100   -3.0610    1.3910 ca        1 PH0     -0.040300
     16 C15        -3.0010   -2.6750    2.7210 ca        1 PH0     -0.128000
     17 C16        -2.2370   -3.4680    3.5760 ca        1 PH0     -0.136500
     18 C17        -1.6720   -4.6550    3.1140 ca        1 PH0     -0.155000
     19 C18        -1.8720   -5.0460    1.7900 ca        1 PH0     -0.136500
     20 C19        -2.6360   -4.2560    0.9340 ca        1 PH0     -0.128000
     21 C20        -4.3300   -1.0990   -1.7320 c         1 PH0      0.906600
     22 P           2.1580    1.2860   -0.3940 p5        1 PH0      1.511100
     23 O5          1.9840    2.5410    0.3390 o         1 PH0     -0.890300
     24 N2          3.6090    2.2300   -2.2240 n3        1 PH0     -0.891800
     25 C21        -1.2680    1.9100   -1.4280 c3        1 PH0     -0.044100
     26 C22        -2.0130    2.7270   -0.4270 ca        1 PH0     -0.098300
     27 C23        -1.3290    3.5740    0.4550 ca        1 PH0     -0.128000
     28 C24        -2.0380    4.3640    1.3570 ca        1 PH0     -0.144500
     29 C25        -3.4320    4.3170    1.3880 ca        1 PH0     -0.144000
     30 C26        -4.1150    3.4740    0.5140 ca        1 PH0     -0.144500
     31 C27        -3.4130    2.6790   -0.3920 ca        1 PH0     -0.128000
     32 O2         -0.4850   -1.5230   -1.3010 o         1 PH0     -0.635100
     33 N1         -2.3370   -0.6040   -0.2660 n         1 PH0     -0.485900
     34 HO1         2.0170    0.4450    1.6330 ho        1 PH0      0.472000
     35 H11         4.3730    1.2410    0.8080 hc        1 PH0      0.059700
     36 H12A        5.4210    2.1120   -0.3760 hc        1 PH0      0.059700
     37 H3          4.2550   -1.3100    0.6700 ha        1 PH0      0.144000
     38 H4          5.7100   -3.3260    0.4710 ha        1 PH0      0.129000
     39 H5          7.9280   -3.1640   -0.6650 ha        1 PH0      0.125000
     40 H6          8.6880   -0.9800   -1.6040 ha        1 PH0      0.129000
     41 H7          7.2390    1.0330   -1.4110 ha        1 PH0      0.144000
     42 H8          3.6720    0.2000   -1.8000 h1        1 PH0      0.110700
     43 H91         1.1760   -0.2950   -1.7510 hc        1 PH0      0.137200
     44 H92         0.9910    1.3460   -2.3840 hc        1 PH0      0.137200
     45 H10        -0.2440    1.1010    0.3140 hc        1 PH0      0.062700
     46 H12        -2.6940   -2.4560   -1.2070 h1        1 PH0      0.078700
     47 H131       -4.5580   -1.4210    1.0590 hc        1 PH0      0.064200
     48 H132       -4.8520   -2.8810    0.0260 hc        1 PH0      0.064200
     49 H15        -3.4370   -1.7350    3.0880 ha        1 PH0      0.134500
     50 H16        -2.0770   -3.1520    4.6170 ha        1 PH0      0.114500
     51 H17        -1.0680   -5.2780    3.7880 ha        1 PH0      0.112000
     52 H18        -1.4210   -5.9770    1.4180 ha        1 PH0      0.114500
     53 H19        -2.7870   -4.5580   -0.1140 ha        1 PH0      0.134500
     54 HN21        3.6430    3.1200   -1.7610 hn        1 PH0      0.357300
     55 HN22        4.3910    2.1560   -2.8450 hn        1 PH0      0.357300
     56 H211       -0.6430    2.6120   -2.0440 hc        1 PH0      0.074200
     57 H212       -1.9970    1.4170   -2.1330 hc        1 PH0      0.074200
     58 H23        -0.2260    3.6160    0.4400 ha        1 PH0      0.183500
     59 H24        -1.4940    5.0240    2.0470 ha        1 PH0      0.122500
     60 H25        -3.9880    4.9410    2.1010 ha        1 PH0      0.113000
     61 H26        -5.2140    3.4280    0.5360 ha        1 PH0      0.122500
     62 H27        -3.9600    2.0000   -1.0800 ha        1 PH0      0.183500
     63 HN1        -2.7940    0.2800   -0.1340 hn        1 PH0      0.304500
     64 O3         -5.1540   -1.9400   -2.1740 o         1 PH0     -0.833300
     65 O4         -4.2890    0.1210   -2.0640 o         1 PH0     -0.833300
@<TRIPOS>BOND
     1    1   22 1   
     2    1   34 1   
     3    2    3 1   
     4    2    9 1   
     5    2   35 1   
     6    2   36 1   
     7    3    4 ar  
     8    3    8 ar  
     9    4    5 ar  
    10    4   37 1   
    11    5    6 ar  
    12    5   38 1   
    13    6    7 ar  
    14    6   39 1   
    15    7    8 ar  
    16    7   40 1   
    17    8   41 1   
    18    9   22 1   
    19    9   24 1   
    20    9   42 1   
    21   10   11 1   
    22   10   22 1   
    23   10   43 1   
    24   10   44 1   
    25   11   12 1   
    26   11   25 1   
    27   11   45 1   
    28   12   32 2   
    29   12   33 1   
    30   13   14 1   
    31   13   21 1   
    32   13   33 1   
    33   13   46 1   
    34   14   15 1   
    35   14   47 1   
    36   14   48 1   
    37   15   16 ar  
    38   15   20 ar  
    39   16   17 ar  
    40   16   49 1   
    41   17   18 ar  
    42   17   50 1   
    43   18   19 ar  
    44   18   51 1   
    45   19   20 ar  
    46   19   52 1   
    47   20   53 1   
    48   21   64 1   
    49   21   65 1   
    50   22   23 2   
    51   24   54 1   
    52   24   55 1   
    53   25   26 1   
    54   25   56 1   
    55   25   57 1   
    56   26   27 ar  
    57   26   31 ar  
    58   27   28 ar  
    59   27   58 1   
    60   28   29 ar  
    61   28   59 1   
    62   29   30 ar  
    63   29   60 1   
    64   30   31 ar  
    65   30   61 1   
    66   31   62 1   
    67   33   63 1   
@<TRIPOS>SUBSTRUCTURE
     1 PH0         1 TEMP              0 ****  ****    0 ROOT
