@<TRIPOS>MOLECULE
PH0
   65    59     1     0     0
SMALL
bcc


@<TRIPOS>ATOM
      1 O1         -1.0210   -3.6710   -0.0250 oh        1 PH0     -0.821000
      2 C1          2.1730   -4.4410    1.4170 c3        1 PH0     -0.171000
      3 C2          2.9780   -5.7050    1.1690 c1        1 PH0     -0.061000
      4 C3          2.5570   -6.9120    1.7120 c1        1 PH0     -0.136875
      5 C4          3.3440   -8.0450    1.5780 c1        1 PH0     -0.136875
      6 C5          4.5520   -7.9730    0.9020 c1        1 PH0     -0.136875
      7 C6          4.9730   -6.7690    0.3600 c1        1 PH0     -0.136875
      8 C7          4.1850   -5.6350    0.4940 c1        1 PH0     -0.134000
      9 C8          1.7500   -3.8450    0.0930 c3        1 PH0     -0.728000
     10 C9          0.3510   -1.3600   -0.7470 c3        1 PH0     -0.936000
     11 C10        -0.1930   -0.1530   -0.0080 c3        1 PH0     -0.104000
     12 C11        -0.2620    1.0290   -0.9540 c1        1 PH0      0.288000
     13 C12        -1.6500    2.8360   -1.9010 c3        1 PH0     -0.089000
     14 C13        -3.1130    3.2080   -1.9890 c3        1 PH0     -0.111000
     15 C14        -3.2460    4.6150   -2.5370 c2        1 PH0     -0.050000
     16 C15        -3.9550    4.8370   -3.7080 c2        1 PH0     -0.138000
     17 C16        -4.1670    6.1330   -4.1550 c1        1 PH0     -0.148000
     18 C17        -3.6710    7.2060   -3.4310 c1        1 PH0     -0.136875
     19 C18        -2.9620    6.9840   -2.2600 c1        1 PH0     -0.136875
     20 C19        -2.7500    5.6890   -1.8130 c1        1 PH0     -0.119000
     21 C20        -0.9430    3.7890   -0.9680 c2        1 PH0      0.324000
     22 P           0.2650   -2.8240    0.3350 p5        1 PH0      2.826000
     23 O5          0.1900   -2.3900    1.7470 o         1 PH0     -1.167000
     24 N2          2.8000   -3.0390   -0.4200 n3        1 PH0     -0.300000
     25 C21         0.7180    0.1820    1.1490 c3        1 PH0     -0.133000
     26 C22         0.0730    1.2480    2.0080 c2        1 PH0     -0.090000
     27 C23        -1.0290    0.9330    2.7890 c2        1 PH0     -0.133000
     28 C24        -1.5510    1.8740    3.6620 c1        1 PH0     -0.147000
     29 C25        -0.9710    3.1300    3.7560 c1        1 PH0     -0.136875
     30 C26         0.1300    3.4450    2.9760 c1        1 PH0     -0.136875
     31 C27         0.6520    2.5040    2.1020 c1        1 PH0     -0.121000
     32 O2          0.7580    1.5910   -1.3000 o         1 PH0     -0.391000
     33 N1         -1.5270    1.5070   -1.4050 n2        1 PH0     -0.296000
     34 O3          0.1070    4.3750   -1.3420 o         1 PH0     -0.571500
     35 O4         -1.4110    4.0090    0.1800 o         1 PH0     -0.571500
     36 HO1        -1.6470   -3.5340    0.5900 ho        1 PH0      0.269000
     37 H11         2.7230   -3.7950    1.9050 hc        1 PH0      0.115500
     38 H12A        1.3800   -4.6580    1.9450 hc        1 PH0      0.115500
     39 H3          1.7100   -6.9590    2.1990 ha        1 PH0      0.123625
     40 H4          3.0470   -8.8940    1.9600 ha        1 PH0      0.123625
     41 H5          5.1060   -8.7720    0.8080 ha        1 PH0      0.123625
     42 H6          5.8240   -6.7190   -0.1160 ha        1 PH0      0.123625
     43 H7          4.4820   -4.7870    0.1120 ha        1 PH0      0.130000
     44 H8          1.5520   -4.5640   -0.5400 h1        1 PH0      0.152000
     45 H91         1.2810   -1.1950   -1.0000 hc        1 PH0      0.173000
     46 H92        -0.1830   -1.5170   -1.5520 hc        1 PH0      0.173000
     47 H10        -1.0860   -0.3530    0.3290 hc        1 PH0      0.126000
     48 H12        -1.2460    2.8910   -2.7910 h1        1 PH0      0.125000
     49 H131       -3.5140    3.1660   -1.0980 hc        1 PH0      0.090500
     50 H132       -3.5730    2.5820   -2.5820 hc        1 PH0      0.090500
     51 H15        -4.3040    4.0810   -4.2180 ha        1 PH0      0.121000
     52 H16        -4.6670    6.2890   -4.9800 ha        1 PH0      0.110000
     53 H17        -3.8210    8.1170   -3.7460 ha        1 PH0      0.123625
     54 H18        -2.6260    7.7420   -1.7410 ha        1 PH0      0.123625
     55 H19        -2.2510    5.5330   -0.9890 ha        1 PH0      0.198000
     56 HN21        3.1260   -3.4160   -1.1880 hn        1 PH0      0.144500
     57 HN22        3.4720   -2.9810    0.2000 hn        1 PH0      0.144500
     58 H211        0.8710   -0.6200    1.6850 hc        1 PH0      0.111000
     59 H212        1.5730    0.5120    0.8060 hc        1 PH0      0.111000
     60 H23        -1.4370    0.0480    2.7230 ha        1 PH0      0.164000
     61 H24        -2.3200    1.6490    4.2190 ha        1 PH0      0.118000
     62 H25        -1.3400    3.7930    4.3720 ha        1 PH0      0.123625
     63 H26         0.5540    4.3190    3.0620 ha        1 PH0      0.123625
     64 H27         1.4280    2.7260    1.5520 ha        1 PH0      0.202000
     65 HN1        -2.2510    0.9550   -1.3960 hn        1 PH0      0.215000
@<TRIPOS>BOND
     1    1   22 1   
     2    1   36 1   
     3    2    3 1   
     4    2    9 1   
     5    2   37 1   
     6    2   38 1   
     7    3    8 1   
     8    4    5 1   
     9    4   39 1   
    10    5   40 1   
    11    6    7 1   
    12    6   41 1   
    13    7   42 1   
    14    8   43 1   
    15    9   22 1   
    16    9   24 1   
    17    9   44 1   
    18   10   11 1   
    19   10   22 1   
    20   10   45 1   
    21   10   46 1   
    22   11   12 1   
    23   11   25 1   
    24   11   47 1   
    25   12   32 1   
    26   13   14 1   
    27   13   21 1   
    28   13   33 1   
    29   13   48 1   
    30   14   15 1   
    31   14   49 1   
    32   14   50 1   
    33   15   16 1   
    34   15   20 1   
    35   16   17 1   
    36   16   51 1   
    37   17   52 1   
    38   18   19 1   
    39   18   53 1   
    40   19   54 1   
    41   20   55 1   
    42   21   34 1   
    43   21   35 1   
    44   22   23 1   
    45   24   56 1   
    46   24   57 1   
    47   25   26 1   
    48   25   58 1   
    49   25   59 1   
    50   26   27 1   
    51   26   31 1   
    52   27   28 1   
    53   27   60 1   
    54   28   61 1   
    55   29   30 1   
    56   29   62 1   
    57   30   63 1   
    58   31   64 1   
    59   33   65 1   
@<TRIPOS>SUBSTRUCTURE
     1 PH0         1 TEMP              0 ****  ****    0 ROOT
