@<TRIPOS>MOLECULE
PH1
  133   132     1     0     0
SMALL
bcc


@<TRIPOS>ATOM
      1 O1          0.3980    0.3990   -0.7920 os        1 PH1     -0.431600
      2 C1          1.6020   -0.3680   -0.8010 c3        1 PH1      0.133400
      3 C2          2.6670    0.4970   -0.1510 c3        1 PH1     -0.081400
      4 C3          3.9490   -0.2840    0.0970 c3        1 PH1     -0.063700
      5 C4          4.6180   -0.6570   -1.2100 c3        1 PH1     -0.092100
      6 C5          4.8860    0.5390    0.9730 c3        1 PH1     -0.076400
      7 C6          5.9530   -0.3120    1.6290 c3        1 PH1     -0.079400
      8 C7          6.8520    0.5320    2.5080 c3        1 PH1     -0.076400
      9 C8          7.8970   -0.3010    3.2390 c3        1 PH1     -0.064700
     10 C9          8.9730   -0.7770    2.2850 c3        1 PH1     -0.089100
     11 C10         8.5010    0.5120    4.3770 c3        1 PH1     -0.076400
     12 C11         9.2390   -0.3540    5.3770 c3        1 PH1     -0.079400
     13 C12         9.7770    0.4790    6.5210 c3        1 PH1     -0.076400
     14 C13        10.4860   -0.3670    7.5710 c3        1 PH1     -0.064700
     15 C14        11.8380   -0.8290    7.0690 c3        1 PH1     -0.089100
     16 C15        10.6280    0.4280    8.8630 c3        1 PH1     -0.076400
     17 C16        10.9930   -0.4480   10.0430 c3        1 PH1     -0.079400
     18 C17        11.0430    0.3600   11.3230 c3        1 PH1     -0.076400
     19 C18        11.4490   -0.4820   12.5240 c3        1 PH1     -0.067700
     20 C19        11.8900    0.4150   13.6630 c3        1 PH1     -0.089600
     21 C20        10.3180   -1.3810   12.9780 c3        1 PH1     -0.089600
     22 O31        -3.0300   -0.2700   -1.1670 os        1 PH1     -0.429600
     23 C31        -4.1600    0.3300   -0.5340 c3        1 PH1      0.133400
     24 C32        -5.2540   -0.7230   -0.5280 c3        1 PH1     -0.081400
     25 C33        -6.4430   -0.2900    0.3170 c3        1 PH1     -0.063700
     26 C34        -7.1560    0.8880   -0.3130 c3        1 PH1     -0.091100
     27 C35        -7.3940   -1.4670    0.5000 c3        1 PH1     -0.076400
     28 C36        -8.3360   -1.2680    1.6690 c3        1 PH1     -0.079400
     29 C37        -9.2510   -2.4620    1.8350 c3        1 PH1     -0.076400
     30 C38       -10.1680   -2.3280    3.0450 c3        1 PH1     -0.064700
     31 C39       -11.2520   -1.3010    2.7900 c3        1 PH1     -0.089100
     32 C40       -10.7720   -3.6840    3.3860 c3        1 PH1     -0.076400
     33 C41       -11.3620   -3.7170    4.7810 c3        1 PH1     -0.079400
     34 C42       -11.9040   -5.0930    5.1060 c3        1 PH1     -0.076400
     35 C43       -12.4630   -5.1770    6.5210 c3        1 PH1     -0.064700
     36 C44       -13.7930   -4.4590    6.6200 c3        1 PH1     -0.089100
     37 C45       -12.6000   -6.6360    6.9360 c3        1 PH1     -0.076400
     38 C46       -12.8030   -6.7970    8.4280 c3        1 PH1     -0.079400
     39 C47       -12.8520   -8.2610    8.8130 c3        1 PH1     -0.076400
     40 C48       -13.0990   -8.4590   10.3020 c3        1 PH1     -0.067700
     41 C49       -13.5540   -9.8800   10.5690 c3        1 PH1     -0.089600
     42 C50       -11.8600   -8.1480   11.1150 c3        1 PH1     -0.089600
     43 C51        -0.6860   -0.3020   -1.3970 c3        1 PH1      0.127400
     44 C52        -1.9100    0.6160   -1.2660 c3        1 PH1      0.138100
     45 C53        -2.0480    1.5240   -2.4720 c3        1 PH1     -0.118100
     46 H11         1.8740   -0.6240   -1.8600 h1        1 PH1      0.027200
     47 H12         1.4450   -1.3190   -0.2250 h1        1 PH1      0.027200
     48 H21         2.2660    0.8880    0.8220 hc        1 PH1      0.054700
     49 H22         2.8780    1.3830   -0.8040 hc        1 PH1      0.054700
     50 H3          3.6880   -1.2320    0.6480 hc        1 PH1      0.047700
     51 H41         3.9550   -1.3230   -1.8130 hc        1 PH1      0.034367
     52 H42         4.8430    0.2570   -1.8120 hc        1 PH1      0.034367
     53 H43A        5.5760   -1.1980   -1.0190 hc        1 PH1      0.034367
     54 H51         4.2900    1.0540    1.7720 hc        1 PH1      0.041700
     55 H52A        5.3690    1.3390    0.3520 hc        1 PH1      0.041700
     56 H61         6.5660   -0.8250    0.8420 hc        1 PH1      0.040700
     57 H62         5.4680   -1.1130    2.2470 hc        1 PH1      0.040700
     58 H71         6.2180    1.0730    3.2600 hc        1 PH1      0.040200
     59 H72         7.3650    1.3110    1.8860 hc        1 PH1      0.040200
     60 H8          7.3860   -1.2040    3.6800 hc        1 PH1      0.047700
     61 H91         9.5000    0.0920    1.8220 hc        1 PH1      0.033367
     62 H92         9.7260   -1.4000    2.8250 hc        1 PH1      0.033367
     63 H93         8.5270   -1.3950    1.4700 hc        1 PH1      0.033367
     64 H101        7.6830    1.0650    4.9120 hc        1 PH1      0.039700
     65 H102        9.2000    1.2810    3.9550 hc        1 PH1      0.039700
     66 H111        8.5450   -1.1400    5.7780 hc        1 PH1      0.040700
     67 H112       10.0830   -0.8860    4.8660 hc        1 PH1      0.040700
     68 H121        8.9230    1.0280    7.0020 hc        1 PH1      0.039700
     69 H122       10.4860    1.2520    6.1250 hc        1 PH1      0.039700
     70 H13         9.8530   -1.2750    7.7820 hc        1 PH1      0.047700
     71 H141       12.3350   -1.4800    7.8270 hc        1 PH1      0.033367
     72 H142       12.5020    0.0450    6.8640 hc        1 PH1      0.033367
     73 H143       11.7260   -1.4150    6.1250 hc        1 PH1      0.033367
     74 H151        9.6590    0.9490    9.0850 hc        1 PH1      0.039200
     75 H152       11.4080    1.2220    8.7270 hc        1 PH1      0.039200
     76 H161       10.2390   -1.2740   10.1450 hc        1 PH1      0.040700
     77 H162       11.9900   -0.9300    9.8660 hc        1 PH1      0.040700
     78 H171       11.7780    1.1990   11.1970 hc        1 PH1      0.039700
     79 H172       10.0400    0.8250   11.5160 hc        1 PH1      0.039700
     80 H18        12.3210   -1.1300   12.2260 hc        1 PH1      0.045700
     81 H191       12.7700    1.0310   13.3570 hc        1 PH1      0.033033
     82 H192       11.0640    1.1030   13.9620 hc        1 PH1      0.033033
     83 H193       12.1780   -0.1980   14.5500 hc        1 PH1      0.033033
     84 H201        9.4310   -0.7740   13.2800 hc        1 PH1      0.033033
     85 H202       10.0110   -2.0710   12.1560 hc        1 PH1      0.033033
     86 H203       10.6400   -1.9950   13.8540 hc        1 PH1      0.033033
     87 H311       -4.4740    1.2400   -1.1100 h1        1 PH1      0.027200
     88 H312       -3.8860    0.6350    0.5110 h1        1 PH1      0.027200
     89 H321       -4.8280   -1.6790   -0.1230 hc        1 PH1      0.054700
     90 H322       -5.5840   -0.9240   -1.5800 hc        1 PH1      0.054700
     91 H33        -6.0640    0.0220    1.3320 hc        1 PH1      0.047700
     92 H341       -8.0490    1.1750    0.2940 hc        1 PH1      0.034367
     93 H342       -7.4970    0.6350   -1.3460 hc        1 PH1      0.034367
     94 H343       -6.4740    1.7710   -0.3720 hc        1 PH1      0.034367
     95 H351       -7.9850   -1.6180   -0.4410 hc        1 PH1      0.041700
     96 H352       -6.7970   -2.4030    0.6700 hc        1 PH1      0.041700
     97 H361       -8.9470   -0.3410    1.5090 hc        1 PH1      0.040700
     98 H362       -7.7420   -1.1150    2.6090 hc        1 PH1      0.040700
     99 H371       -9.8720   -2.5940    0.9100 hc        1 PH1      0.040200
    100 H372       -8.6230   -3.3860    1.9470 hc        1 PH1      0.040200
    101 H38        -9.5490   -1.9840    3.9220 hc        1 PH1      0.047700
    102 H391      -11.8840   -1.6040    1.9210 hc        1 PH1      0.033367
    103 H392      -11.9100   -1.1980    3.6860 hc        1 PH1      0.033367
    104 H393      -10.8020   -0.3040    2.5690 hc        1 PH1      0.033367
    105 H401      -11.5660   -3.9380    2.6350 hc        1 PH1      0.039700
    106 H402       -9.9780   -4.4740    3.3100 hc        1 PH1      0.039700
    107 H411      -10.5740   -3.4370    5.5290 hc        1 PH1      0.040700
    108 H412      -12.1820   -2.9570    4.8640 hc        1 PH1      0.040700
    109 H421      -12.7070   -5.3660    4.3720 hc        1 PH1      0.039700
    110 H422      -11.0780   -5.8450    4.9890 hc        1 PH1      0.039700
    111 H43       -11.7340   -4.6770    7.2210 hc        1 PH1      0.047700
    112 H441      -14.5490   -4.9370    5.9510 hc        1 PH1      0.033367
    113 H442      -14.1780   -4.4920    7.6670 hc        1 PH1      0.033367
    114 H443      -13.6830   -3.3890    6.3210 hc        1 PH1      0.033367
    115 H451      -13.4600   -7.1000    6.3850 hc        1 PH1      0.039200
    116 H452      -11.6740   -7.1950    6.6350 hc        1 PH1      0.039200
    117 H461      -13.7590   -6.2970    8.7380 hc        1 PH1      0.040700
    118 H462      -11.9690   -6.2870    8.9770 hc        1 PH1      0.040700
    119 H471      -11.8900   -8.7590    8.5260 hc        1 PH1      0.039700
    120 H472      -13.6720   -8.7640    8.2350 hc        1 PH1      0.039700
    121 H48       -13.9210   -7.7580   10.6230 hc        1 PH1      0.045700
    122 H491      -12.7820  -10.6090   10.2260 hc        1 PH1      0.033033
    123 H492      -13.7250  -10.0330   11.6620 hc        1 PH1      0.033033
    124 H493      -14.5070  -10.0930   10.0280 hc        1 PH1      0.033033
    125 H501      -12.0660   -8.2920   12.2030 hc        1 PH1      0.033033
    126 H502      -11.5390   -7.0920   10.9530 hc        1 PH1      0.033033
    127 H503      -11.0190   -8.8230   10.8230 hc        1 PH1      0.033033
    128 H511       -0.4520   -0.5100   -2.4730 h1        1 PH1      0.040700
    129 H512       -0.8670   -1.2700   -0.8600 h1        1 PH1      0.040700
    130 H52        -1.8150    1.2290   -0.3270 h1        1 PH1      0.057700
    131 H531       -2.2630    0.9260   -3.3890 hc        1 PH1      0.044700
    132 H532       -1.0970    2.0890   -2.6190 hc        1 PH1      0.044700
    133 H533       -2.8820    2.2510   -2.3200 hc        1 PH1      0.044700
@<TRIPOS>BOND
     1    1    2 1   
     2    1   43 1   
     3    2    3 1   
     4    2   46 1   
     5    2   47 1   
     6    3    4 1   
     7    3   48 1   
     8    3   49 1   
     9    4    5 1   
    10    4    6 1   
    11    4   50 1   
    12    5   51 1   
    13    5   52 1   
    14    5   53 1   
    15    6    7 1   
    16    6   54 1   
    17    6   55 1   
    18    7    8 1   
    19    7   56 1   
    20    7   57 1   
    21    8    9 1   
    22    8   58 1   
    23    8   59 1   
    24    9   10 1   
    25    9   11 1   
    26    9   60 1   
    27   10   61 1   
    28   10   62 1   
    29   10   63 1   
    30   11   12 1   
    31   11   64 1   
    32   11   65 1   
    33   12   13 1   
    34   12   66 1   
    35   12   67 1   
    36   13   14 1   
    37   13   68 1   
    38   13   69 1   
    39   14   15 1   
    40   14   16 1   
    41   14   70 1   
    42   15   71 1   
    43   15   72 1   
    44   15   73 1   
    45   16   17 1   
    46   16   74 1   
    47   16   75 1   
    48   17   18 1   
    49   17   76 1   
    50   17   77 1   
    51   18   19 1   
    52   18   78 1   
    53   18   79 1   
    54   19   20 1   
    55   19   21 1   
    56   19   80 1   
    57   20   81 1   
    58   20   82 1   
    59   20   83 1   
    60   21   84 1   
    61   21   85 1   
    62   21   86 1   
    63   22   23 1   
    64   22   44 1   
    65   23   24 1   
    66   23   87 1   
    67   23   88 1   
    68   24   25 1   
    69   24   89 1   
    70   24   90 1   
    71   25   26 1   
    72   25   27 1   
    73   25   91 1   
    74   26   92 1   
    75   26   93 1   
    76   26   94 1   
    77   27   28 1   
    78   27   95 1   
    79   27   96 1   
    80   28   29 1   
    81   28   97 1   
    82   28   98 1   
    83   29   30 1   
    84   29   99 1   
    85   29  100 1   
    86   30   31 1   
    87   30   32 1   
    88   30  101 1   
    89   31  102 1   
    90   31  103 1   
    91   31  104 1   
    92   32   33 1   
    93   32  105 1   
    94   32  106 1   
    95   33   34 1   
    96   33  107 1   
    97   33  108 1   
    98   34   35 1   
    99   34  109 1   
   100   34  110 1   
   101   35   36 1   
   102   35   37 1   
   103   35  111 1   
   104   36  112 1   
   105   36  113 1   
   106   36  114 1   
   107   37   38 1   
   108   37  115 1   
   109   37  116 1   
   110   38   39 1   
   111   38  117 1   
   112   38  118 1   
   113   39   40 1   
   114   39  119 1   
   115   39  120 1   
   116   40   41 1   
   117   40   42 1   
   118   40  121 1   
   119   41  122 1   
   120   41  123 1   
   121   41  124 1   
   122   42  125 1   
   123   42  126 1   
   124   42  127 1   
   125   43   44 1   
   126   43  128 1   
   127   43  129 1   
   128   44   45 1   
   129   44  130 1   
   130   45  131 1   
   131   45  132 1   
   132   45  133 1   
@<TRIPOS>SUBSTRUCTURE
     1 PH1         1 TEMP              0 ****  ****    0 ROOT
