@<TRIPOS>MOLECULE
PH1
  133   132     1     0     0
SMALL
bcc


@<TRIPOS>ATOM
      1 O1         -7.2550   -0.4370    1.4450 os        1 PH1     -0.429600
      2 C1         -6.9140    0.3810    2.5640 c3        1 PH1      0.132400
      3 C2         -6.0370   -0.4700    3.4660 c3        1 PH1     -0.081400
      4 C3         -5.4270    0.3520    4.5920 c3        1 PH1     -0.064700
      5 C4         -6.4930    0.8210    5.5610 c3        1 PH1     -0.091100
      6 C5         -4.3660   -0.4740    5.3090 c3        1 PH1     -0.076400
      7 C6         -3.4160    0.3870    6.1150 c3        1 PH1     -0.079400
      8 C7         -2.3630   -0.4630    6.7960 c3        1 PH1     -0.076400
      9 C8         -1.3480    0.3760    7.5630 c3        1 PH1     -0.064700
     10 C9         -1.9620    0.9490    8.8240 c3        1 PH1     -0.089100
     11 C10        -0.1240   -0.4690    7.8910 c3        1 PH1     -0.076400
     12 C11         1.0700    0.3740    8.2890 c3        1 PH1     -0.079400
     13 C12         2.2820   -0.4950    8.5530 c3        1 PH1     -0.076400
     14 C13         3.5150    0.3250    8.9120 c3        1 PH1     -0.064700
     15 C14         3.4090    0.8720   10.3200 c3        1 PH1     -0.089100
     16 C15         4.7660   -0.5310    8.7530 c3        1 PH1     -0.076400
     17 C16         6.0340    0.2960    8.7440 c3        1 PH1     -0.079400
     18 C17         7.2480   -0.5770    8.5010 c3        1 PH1     -0.076400
     19 C18         8.5470    0.2170    8.5290 c3        1 PH1     -0.067700
     20 C19         9.7250   -0.7200    8.7050 c3        1 PH1     -0.089600
     21 C20         8.7200    1.0390    7.2690 c3        1 PH1     -0.089600
     22 O31        -7.4520   -0.0590   -1.7220 os        1 PH1     -0.427600
     23 C31        -6.9120   -0.9940   -2.6540 c3        1 PH1      0.133400
     24 C32        -6.1620   -0.1780   -3.6930 c3        1 PH1     -0.081400
     25 C33        -5.3470   -1.0660   -4.6220 c3        1 PH1     -0.064700
     26 C34        -6.2510   -1.9140   -5.4930 c3        1 PH1     -0.091100
     27 C35        -4.4250   -0.2030   -5.4730 c3        1 PH1     -0.076400
     28 C36        -3.2860   -0.9990   -6.0760 c3        1 PH1     -0.079400
     29 C37        -2.3780   -0.1080   -6.8970 c3        1 PH1     -0.076400
     30 C38        -1.1810   -0.8630   -7.4630 c3        1 PH1     -0.064700
     31 C39        -1.6050   -1.7810   -8.5900 c3        1 PH1     -0.089100
     32 C40        -0.1250    0.1280   -7.9370 c3        1 PH1     -0.076400
     33 C41         1.2280   -0.5230   -8.1360 c3        1 PH1     -0.079400
     34 C42         2.2640    0.5000   -8.5530 c3        1 PH1     -0.076400
     35 C43         3.6500   -0.1120   -8.7160 c3        1 PH1     -0.064700
     36 C44         3.7290   -0.9400   -9.9820 c3        1 PH1     -0.089100
     37 C45         4.7020    0.9890   -8.7190 c3        1 PH1     -0.076400
     38 C46         6.1030    0.4510   -8.5170 c3        1 PH1     -0.079400
     39 C47         7.1110    1.5780   -8.4430 c3        1 PH1     -0.076400
     40 C48         8.5370    1.0710   -8.2830 c3        1 PH1     -0.067700
     41 C49         9.5230    2.1670   -8.6330 c3        1 PH1     -0.089600
     42 C50         8.7920    0.5720   -6.8760 c3        1 PH1     -0.089600
     43 C51        -8.1140    0.2370    0.5280 c3        1 PH1      0.126400
     44 C52        -8.2380   -0.6760   -0.6980 c3        1 PH1      0.137100
     45 C53        -9.6820   -0.7860   -1.1510 c3        1 PH1     -0.118100
     46 H11        -7.8510    0.7020    3.0920 h1        1 PH1      0.026700
     47 H12        -6.3630    1.2920    2.2080 h1        1 PH1      0.026700
     48 H21        -5.2220   -0.9270    2.8440 hc        1 PH1      0.054700
     49 H22        -6.6430   -1.3110    3.8900 hc        1 PH1      0.054700
     50 H3         -4.9290    1.2570    4.1420 hc        1 PH1      0.048700
     51 H41        -7.0480   -0.0500    5.9870 hc        1 PH1      0.034367
     52 H42        -6.0320    1.3920    6.4020 hc        1 PH1      0.034367
     53 H43A       -7.2240    1.4880    5.0440 hc        1 PH1      0.034367
     54 H51        -3.7740   -1.0560    4.5520 hc        1 PH1      0.041700
     55 H52A       -4.8650   -1.2190    5.9820 hc        1 PH1      0.041700
     56 H61        -3.9910    0.9670    6.8840 hc        1 PH1      0.040700
     57 H62        -2.9190    1.1330    5.4410 hc        1 PH1      0.040700
     58 H71        -1.8290   -1.0700    6.0170 hc        1 PH1      0.040200
     59 H72        -2.8560   -1.1850    7.4990 hc        1 PH1      0.040200
     60 H8         -1.0230    1.2300    6.9040 hc        1 PH1      0.047700
     61 H91        -2.3030    0.1300    9.5020 hc        1 PH1      0.033367
     62 H92        -1.2170    1.5740    9.3720 hc        1 PH1      0.033367
     63 H93        -2.8410    1.5900    8.5740 hc        1 PH1      0.033367
     64 H101        0.1520   -1.0860    6.9940 hc        1 PH1      0.039700
     65 H102       -0.3740   -1.1830    8.7190 hc        1 PH1      0.039700
     66 H111        0.8240    0.9700    9.2060 hc        1 PH1      0.040700
     67 H112        1.3030    1.1060    7.4710 hc        1 PH1      0.040700
     68 H121        2.4960   -1.1060    7.6360 hc        1 PH1      0.039700
     69 H122        2.0580   -1.2130    9.3840 hc        1 PH1      0.039700
     70 H13         3.5860    1.1920    8.1950 hc        1 PH1      0.047700
     71 H141        3.3540    0.0400   11.0630 hc        1 PH1      0.033367
     72 H142        4.2980    1.5040   10.5620 hc        1 PH1      0.033367
     73 H143        2.4930    1.5020   10.4260 hc        1 PH1      0.033367
     74 H151        4.7020   -1.1060    7.7910 hc        1 PH1      0.039200
     75 H152        4.8110   -1.2820    9.5850 hc        1 PH1      0.039200
     76 H161        6.1480    0.8300    9.7240 hc        1 PH1      0.040700
     77 H162        5.9650    1.0810    7.9450 hc        1 PH1      0.040700
     78 H171        7.1490   -1.0950    7.5110 hc        1 PH1      0.039700
     79 H172        7.2880   -1.3740    9.2900 hc        1 PH1      0.039700
     80 H18         8.5170    0.9180    9.4100 hc        1 PH1      0.045700
     81 H191       10.6810   -0.1420    8.7140 hc        1 PH1      0.033033
     82 H192        9.6400   -1.2790    9.6680 hc        1 PH1      0.033033
     83 H193        9.7660   -1.4590    7.8690 hc        1 PH1      0.033033
     84 H201        8.7510    0.3780    6.3700 hc        1 PH1      0.033033
     85 H202        7.8740    1.7580    7.1500 hc        1 PH1      0.033033
     86 H203        9.6730    1.6190    7.3140 hc        1 PH1      0.033033
     87 H311       -6.2210   -1.6990   -2.1190 h1        1 PH1      0.027200
     88 H312       -7.7440   -1.5830   -3.1230 h1        1 PH1      0.027200
     89 H321       -6.8910    0.4310   -4.2870 hc        1 PH1      0.054700
     90 H322       -5.4820    0.5390   -3.1610 hc        1 PH1      0.054700
     91 H33        -4.7110   -1.7520   -3.9920 hc        1 PH1      0.048700
     92 H341       -6.9380   -1.2690   -6.0920 hc        1 PH1      0.034367
     93 H342       -5.6460   -2.5340   -6.1970 hc        1 PH1      0.034367
     94 H343       -6.8680   -2.6000   -4.8640 hc        1 PH1      0.034367
     95 H351       -5.0190    0.2840   -6.2900 hc        1 PH1      0.041700
     96 H352       -3.9970    0.6200   -4.8400 hc        1 PH1      0.041700
     97 H361       -2.6940   -1.4870   -5.2570 hc        1 PH1      0.040700
     98 H362       -3.6970   -1.8200   -6.7200 hc        1 PH1      0.040700
     99 H371       -2.9610    0.3510   -7.7390 hc        1 PH1      0.040200
    100 H372       -2.0130    0.7330   -6.2490 hc        1 PH1      0.040200
    101 H38        -0.7360   -1.4890   -6.6390 hc        1 PH1      0.047700
    102 H391       -2.0590   -1.1960   -9.4260 hc        1 PH1      0.033367
    103 H392       -0.7250   -2.3410   -8.9890 hc        1 PH1      0.033367
    104 H393       -2.3570   -2.5230   -8.2290 hc        1 PH1      0.033367
    105 H401       -0.4620    0.6000   -8.8970 hc        1 PH1      0.039700
    106 H402       -0.0230    0.9510   -7.1800 hc        1 PH1      0.039700
    107 H411        1.5510   -1.0180   -7.1820 hc        1 PH1      0.040700
    108 H412        1.1510   -1.3250   -8.9150 hc        1 PH1      0.040700
    109 H421        1.9530    0.9800   -9.5180 hc        1 PH1      0.039700
    110 H422        2.3050    1.3110   -7.7780 hc        1 PH1      0.039700
    111 H43         3.8450   -0.7870   -7.8350 hc        1 PH1      0.047700
    112 H441        3.5550   -0.3020  -10.8820 hc        1 PH1      0.033700
    113 H442        4.7350   -1.4160  -10.0750 hc        1 PH1      0.033700
    114 H443        2.9600   -1.7490   -9.9690 hc        1 PH1      0.033700
    115 H451        4.6490    1.5510   -9.6890 hc        1 PH1      0.039200
    116 H452        4.4740    1.7210   -7.8990 hc        1 PH1      0.039200
    117 H461        6.1400   -0.1540   -7.5730 hc        1 PH1      0.040700
    118 H462        6.3720   -0.2370   -9.3610 hc        1 PH1      0.040700
    119 H471        7.0430    2.1910   -9.3810 hc        1 PH1      0.039700
    120 H472        6.8580    2.2560   -7.5860 hc        1 PH1      0.039700
    121 H48         8.6920    0.2130   -8.9980 hc        1 PH1      0.045700
    122 H491       10.5700    1.8020   -8.5050 hc        1 PH1      0.033033
    123 H492        9.3870    2.4910   -9.6930 hc        1 PH1      0.033033
    124 H493        9.3730    3.0530   -7.9710 hc        1 PH1      0.033033
    125 H501        8.6450    1.3940   -6.1350 hc        1 PH1      0.033033
    126 H502        8.0940   -0.2620   -6.6220 hc        1 PH1      0.033033
    127 H503        9.8390    0.1960   -6.7830 hc        1 PH1      0.033033
    128 H511       -9.1140    0.3970    1.0100 h1        1 PH1      0.042200
    129 H512       -7.6730    1.2280    0.2370 h1        1 PH1      0.042200
    130 H52        -7.8270   -1.6950   -0.4500 h1        1 PH1      0.062700
    131 H531      -10.0960    0.2240   -1.3820 hc        1 PH1      0.043033
    132 H532       -9.7470   -1.4120   -2.0730 hc        1 PH1      0.043033
    133 H533      -10.2970   -1.2580   -0.3490 hc        1 PH1      0.043033
@<TRIPOS>BOND
     1    1    2 1   
     2    1   43 1   
     3    2    3 1   
     4    2   46 1   
     5    2   47 1   
     6    3    4 1   
     7    3   48 1   
     8    3   49 1   
     9    4    5 1   
    10    4    6 1   
    11    4   50 1   
    12    5   51 1   
    13    5   52 1   
    14    5   53 1   
    15    6    7 1   
    16    6   54 1   
    17    6   55 1   
    18    7    8 1   
    19    7   56 1   
    20    7   57 1   
    21    8    9 1   
    22    8   58 1   
    23    8   59 1   
    24    9   10 1   
    25    9   11 1   
    26    9   60 1   
    27   10   61 1   
    28   10   62 1   
    29   10   63 1   
    30   11   12 1   
    31   11   64 1   
    32   11   65 1   
    33   12   13 1   
    34   12   66 1   
    35   12   67 1   
    36   13   14 1   
    37   13   68 1   
    38   13   69 1   
    39   14   15 1   
    40   14   16 1   
    41   14   70 1   
    42   15   71 1   
    43   15   72 1   
    44   15   73 1   
    45   16   17 1   
    46   16   74 1   
    47   16   75 1   
    48   17   18 1   
    49   17   76 1   
    50   17   77 1   
    51   18   19 1   
    52   18   78 1   
    53   18   79 1   
    54   19   20 1   
    55   19   21 1   
    56   19   80 1   
    57   20   81 1   
    58   20   82 1   
    59   20   83 1   
    60   21   84 1   
    61   21   85 1   
    62   21   86 1   
    63   22   23 1   
    64   22   44 1   
    65   23   24 1   
    66   23   87 1   
    67   23   88 1   
    68   24   25 1   
    69   24   89 1   
    70   24   90 1   
    71   25   26 1   
    72   25   27 1   
    73   25   91 1   
    74   26   92 1   
    75   26   93 1   
    76   26   94 1   
    77   27   28 1   
    78   27   95 1   
    79   27   96 1   
    80   28   29 1   
    81   28   97 1   
    82   28   98 1   
    83   29   30 1   
    84   29   99 1   
    85   29  100 1   
    86   30   31 1   
    87   30   32 1   
    88   30  101 1   
    89   31  102 1   
    90   31  103 1   
    91   31  104 1   
    92   32   33 1   
    93   32  105 1   
    94   32  106 1   
    95   33   34 1   
    96   33  107 1   
    97   33  108 1   
    98   34   35 1   
    99   34  109 1   
   100   34  110 1   
   101   35   36 1   
   102   35   37 1   
   103   35  111 1   
   104   36  112 1   
   105   36  113 1   
   106   36  114 1   
   107   37   38 1   
   108   37  115 1   
   109   37  116 1   
   110   38   39 1   
   111   38  117 1   
   112   38  118 1   
   113   39   40 1   
   114   39  119 1   
   115   39  120 1   
   116   40   41 1   
   117   40   42 1   
   118   40  121 1   
   119   41  122 1   
   120   41  123 1   
   121   41  124 1   
   122   42  125 1   
   123   42  126 1   
   124   42  127 1   
   125   43   44 1   
   126   43  128 1   
   127   43  129 1   
   128   44   45 1   
   129   44  130 1   
   130   45  131 1   
   131   45  132 1   
   132   45  133 1   
@<TRIPOS>SUBSTRUCTURE
     1 PH1         1 TEMP              0 ****  ****    0 ROOT
