@<TRIPOS>MOLECULE
PH1
  133   132     1     0     0
SMALL
bcc


@<TRIPOS>ATOM
      1 O1          0.3760    0.5240   -0.7510 os        1 PH1     -0.430600
      2 C1          1.5980   -0.2150   -0.7730 c3        1 PH1      0.132400
      3 C2          2.6400    0.6590   -0.0970 c3        1 PH1     -0.081400
      4 C3          3.9440   -0.0930    0.1250 c3        1 PH1     -0.063700
      5 C4          4.6280   -0.3930   -1.1930 c3        1 PH1     -0.092100
      6 C5          4.8530    0.7210    1.0380 c3        1 PH1     -0.076400
      7 C6          5.9480   -0.1220    1.6570 c3        1 PH1     -0.079400
      8 C7          6.8140    0.7100    2.5800 c3        1 PH1     -0.076400
      9 C8          7.8960   -0.1170    3.2620 c3        1 PH1     -0.064700
     10 C9          8.9980   -0.4740    2.2850 c3        1 PH1     -0.089100
     11 C10         8.4540    0.6480    4.4560 c3        1 PH1     -0.076400
     12 C11         9.2480   -0.2410    5.3900 c3        1 PH1     -0.079400
     13 C12         9.7290    0.5370    6.5980 c3        1 PH1     -0.076400
     14 C13        10.5010   -0.3370    7.5790 c3        1 PH1     -0.064700
     15 C14        11.8830   -0.6530    7.0480 c3        1 PH1     -0.089100
     16 C15        10.5830    0.3580    8.9320 c3        1 PH1     -0.076400
     17 C16        11.0170   -0.5810   10.0390 c3        1 PH1     -0.079400
     18 C17        11.0060    0.1210   11.3800 c3        1 PH1     -0.076400
     19 C18        11.4780   -0.7820   12.5100 c3        1 PH1     -0.067700
     20 C19        11.8520    0.0500   13.7210 c3        1 PH1     -0.089600
     21 C20        10.4210   -1.7990   12.8850 c3        1 PH1     -0.089600
     22 O31        -3.0340   -0.2130   -1.1600 os        1 PH1     -0.429600
     23 C31        -4.1840    0.3520   -0.5320 c3        1 PH1      0.133400
     24 C32        -5.2520   -0.7280   -0.5460 c3        1 PH1     -0.081400
     25 C33        -6.4660   -0.3260    0.2770 c3        1 PH1     -0.063700
     26 C34        -7.2070    0.8240   -0.3750 c3        1 PH1     -0.091100
     27 C35        -7.3810   -1.5310    0.4580 c3        1 PH1     -0.076400
     28 C36        -8.3560   -1.3460    1.6020 c3        1 PH1     -0.079400
     29 C37        -9.2270   -2.5730    1.7730 c3        1 PH1     -0.076400
     30 C38       -10.1860   -2.4430    2.9510 c3        1 PH1     -0.064700
     31 C39       -11.3140   -1.4850    2.6260 c3        1 PH1     -0.089100
     32 C40       -10.7290   -3.8160    3.3260 c3        1 PH1     -0.076400
     33 C41       -11.3760   -3.8260    4.6950 c3        1 PH1     -0.079400
     34 C42       -11.8450   -5.2180    5.0620 c3        1 PH1     -0.076400
     35 C43       -12.4670   -5.2730    6.4520 c3        1 PH1     -0.064700
     36 C44       -13.8470   -4.6490    6.4510 c3        1 PH1     -0.089100
     37 C45       -12.5230   -6.7170    6.9350 c3        1 PH1     -0.076400
     38 C46       -12.7970   -6.8190    8.4210 c3        1 PH1     -0.079400
     39 C47       -12.7590   -8.2610    8.8810 c3        1 PH1     -0.076400
     40 C48       -13.0750   -8.4050   10.3630 c3        1 PH1     -0.067700
     41 C49       -13.4370   -9.8420   10.6810 c3        1 PH1     -0.089600
     42 C50       -11.9110   -7.9590   11.2230 c3        1 PH1     -0.089600
     43 C51        -0.6890   -0.1890   -1.3750 c3        1 PH1      0.127400
     44 C52        -1.9330    0.6990   -1.2340 c3        1 PH1      0.138100
     45 C53        -2.0830    1.6290   -2.4220 c3        1 PH1     -0.118100
     46 H11         1.8800   -0.4390   -1.8360 h1        1 PH1      0.027200
     47 H12         1.4610   -1.1820   -0.2200 h1        1 PH1      0.027200
     48 H21         2.2290    1.0080    0.8870 hc        1 PH1      0.054700
     49 H22         2.8240    1.5710   -0.7220 hc        1 PH1      0.054700
     50 H3          3.7080   -1.0690    0.6370 hc        1 PH1      0.047700
     51 H41         3.9830   -1.0480   -1.8270 hc        1 PH1      0.034367
     52 H42         4.8330    0.5510   -1.7530 hc        1 PH1      0.034367
     53 H43A        5.5980   -0.9190   -1.0190 hc        1 PH1      0.034367
     54 H51         4.2400    1.1790    1.8590 hc        1 PH1      0.041700
     55 H52A        5.3070    1.5640    0.4540 hc        1 PH1      0.041700
     56 H61         6.5820   -0.5730    0.8480 hc        1 PH1      0.040700
     57 H62         5.4910   -0.9700    2.2320 hc        1 PH1      0.040700
     58 H71         6.1590    1.1810    3.3610 hc        1 PH1      0.040200
     59 H72         7.2910    1.5440    2.0010 hc        1 PH1      0.040200
     60 H8          7.4290   -1.0710    3.6390 hc        1 PH1      0.047700
     61 H91         9.4920    0.4490    1.8960 hc        1 PH1      0.033367
     62 H92         9.7720   -1.1060    2.7840 hc        1 PH1      0.033367
     63 H93         8.5840   -1.0450    1.4200 hc        1 PH1      0.033367
     64 H101        7.6060    1.1090    5.0290 hc        1 PH1      0.039700
     65 H102        9.1020    1.4870    4.0910 hc        1 PH1      0.039700
     66 H111        8.6100   -1.1000    5.7260 hc        1 PH1      0.040700
     67 H112       10.1270   -0.6740    4.8450 hc        1 PH1      0.040700
     68 H121        8.8390    0.9830    7.1180 hc        1 PH1      0.039700
     69 H122       10.3790    1.3870    6.2650 hc        1 PH1      0.039700
     70 H13         9.9380   -1.3040    7.7120 hc        1 PH1      0.047700
     71 H141       12.4270   -1.3280    7.7520 hc        1 PH1      0.033367
     72 H142       12.4800    0.2820    6.9230 hc        1 PH1      0.033367
     73 H143       11.8150   -1.1630    6.0570 hc        1 PH1      0.033367
     74 H151        9.5770    0.7830    9.1920 hc        1 PH1      0.039200
     75 H152       11.2990    1.2190    8.8650 hc        1 PH1      0.039200
     76 H161       10.3300   -1.4680   10.0690 hc        1 PH1      0.040700
     77 H162       12.0490   -0.9670    9.8270 hc        1 PH1      0.040700
     78 H171       11.6740    1.0220   11.3270 hc        1 PH1      0.039700
     79 H172        9.9710    0.4900   11.6060 hc        1 PH1      0.039700
     80 H18        12.3970   -1.3350   12.1640 hc        1 PH1      0.045700
     81 H191       12.6810    0.7540   13.4700 hc        1 PH1      0.033033
     82 H192       10.9750    0.6460   14.0710 hc        1 PH1      0.033033
     83 H193       12.1880   -0.6100   14.5560 hc        1 PH1      0.033033
     84 H201        9.4900   -1.2890   13.2320 hc        1 PH1      0.033033
     85 H202       10.1660   -2.4410   12.0080 hc        1 PH1      0.033033
     86 H203       10.7910   -2.4560   13.7080 hc        1 PH1      0.033033
     87 H311       -4.5160    1.2600   -1.1010 h1        1 PH1      0.027200
     88 H312       -3.9280    0.6520    0.5200 h1        1 PH1      0.027200
     89 H321       -4.8090   -1.6740   -0.1350 hc        1 PH1      0.054200
     90 H322       -5.5570   -0.9360   -1.6040 hc        1 PH1      0.054200
     91 H33        -6.1130    0.0070    1.2940 hc        1 PH1      0.047700
     92 H341       -8.1130    1.0920    0.2200 hc        1 PH1      0.034367
     93 H342       -7.5320    0.5470   -1.4070 hc        1 PH1      0.034367
     94 H343       -6.5510    1.7250   -0.4390 hc        1 PH1      0.034367
     95 H351       -7.9460   -1.7150   -0.4930 hc        1 PH1      0.041700
     96 H352       -6.7580   -2.4440    0.6560 hc        1 PH1      0.041700
     97 H361       -8.9990   -0.4470    1.4110 hc        1 PH1      0.040700
     98 H362       -7.7890   -1.1520    2.5510 hc        1 PH1      0.040700
     99 H371       -9.8130   -2.7530    0.8340 hc        1 PH1      0.040200
    100 H372       -8.5670   -3.4670    1.9290 hc        1 PH1      0.040200
    101 H38        -9.6130   -2.0360    3.8320 hc        1 PH1      0.047700
    102 H391      -11.9110   -1.8600    1.7600 hc        1 PH1      0.033367
    103 H392      -11.9950   -1.3730    3.5030 hc        1 PH1      0.033367
    104 H393      -10.9090   -0.4780    2.3660 hc        1 PH1      0.033367
    105 H401      -11.4730   -4.1460    2.5550 hc        1 PH1      0.039700
    106 H402       -9.8900   -4.5620    3.3170 hc        1 PH1      0.039700
    107 H411      -10.6410   -3.4620    5.4620 hc        1 PH1      0.040700
    108 H412      -12.2460   -3.1180    4.7080 hc        1 PH1      0.040700
    109 H421      -12.5910   -5.5770    4.3060 hc        1 PH1      0.039700
    110 H422      -10.9680   -5.9180    5.0200 hc        1 PH1      0.039700
    111 H43       -11.8110   -4.6890    7.1580 hc        1 PH1      0.047700
    112 H441      -14.5350   -5.2150    5.7780 hc        1 PH1      0.033367
    113 H442      -14.2790   -4.6530    7.4810 hc        1 PH1      0.033367
    114 H443      -13.7980   -3.5910    6.0960 hc        1 PH1      0.033367
    115 H451      -13.3160   -7.2690    6.3660 hc        1 PH1      0.039200
    116 H452      -11.5440   -7.2190    6.7130 hc        1 PH1      0.039200
    117 H461      -13.8030   -6.3790    8.6540 hc        1 PH1      0.040700
    118 H462      -12.0350   -6.2200    8.9860 hc        1 PH1      0.040700
    119 H471      -11.7470   -8.6980    8.6720 hc        1 PH1      0.039700
    120 H472      -13.5050   -8.8540    8.2870 hc        1 PH1      0.039700
    121 H48       -13.9640   -7.7550   10.6020 hc        1 PH1      0.045700
    122 H491      -12.5930  -10.5250   10.4190 hc        1 PH1      0.033033
    123 H492      -13.6580   -9.9540   11.7690 hc        1 PH1      0.033033
    124 H493      -14.3380  -10.1550   10.1010 hc        1 PH1      0.033033
    125 H501      -12.1680   -8.0650   12.3050 hc        1 PH1      0.033033
    126 H502      -11.6610   -6.8900   11.0220 hc        1 PH1      0.033033
    127 H503      -11.0070   -8.5790   11.0120 hc        1 PH1      0.033033
    128 H511       -0.4450   -0.3730   -2.4530 h1        1 PH1      0.040700
    129 H512       -0.8510   -1.1710   -0.8570 h1        1 PH1      0.040700
    130 H52        -1.8580    1.2950   -0.2810 h1        1 PH1      0.057700
    131 H531       -2.2820    1.0450   -3.3520 hc        1 PH1      0.044700
    132 H532       -1.1420    2.2150   -2.5510 hc        1 PH1      0.044700
    133 H533       -2.9320    2.3350   -2.2600 hc        1 PH1      0.044700
@<TRIPOS>BOND
     1    1    2 1   
     2    1   43 1   
     3    2    3 1   
     4    2   46 1   
     5    2   47 1   
     6    3    4 1   
     7    3   48 1   
     8    3   49 1   
     9    4    5 1   
    10    4    6 1   
    11    4   50 1   
    12    5   51 1   
    13    5   52 1   
    14    5   53 1   
    15    6    7 1   
    16    6   54 1   
    17    6   55 1   
    18    7    8 1   
    19    7   56 1   
    20    7   57 1   
    21    8    9 1   
    22    8   58 1   
    23    8   59 1   
    24    9   10 1   
    25    9   11 1   
    26    9   60 1   
    27   10   61 1   
    28   10   62 1   
    29   10   63 1   
    30   11   12 1   
    31   11   64 1   
    32   11   65 1   
    33   12   13 1   
    34   12   66 1   
    35   12   67 1   
    36   13   14 1   
    37   13   68 1   
    38   13   69 1   
    39   14   15 1   
    40   14   16 1   
    41   14   70 1   
    42   15   71 1   
    43   15   72 1   
    44   15   73 1   
    45   16   17 1   
    46   16   74 1   
    47   16   75 1   
    48   17   18 1   
    49   17   76 1   
    50   17   77 1   
    51   18   19 1   
    52   18   78 1   
    53   18   79 1   
    54   19   20 1   
    55   19   21 1   
    56   19   80 1   
    57   20   81 1   
    58   20   82 1   
    59   20   83 1   
    60   21   84 1   
    61   21   85 1   
    62   21   86 1   
    63   22   23 1   
    64   22   44 1   
    65   23   24 1   
    66   23   87 1   
    67   23   88 1   
    68   24   25 1   
    69   24   89 1   
    70   24   90 1   
    71   25   26 1   
    72   25   27 1   
    73   25   91 1   
    74   26   92 1   
    75   26   93 1   
    76   26   94 1   
    77   27   28 1   
    78   27   95 1   
    79   27   96 1   
    80   28   29 1   
    81   28   97 1   
    82   28   98 1   
    83   29   30 1   
    84   29   99 1   
    85   29  100 1   
    86   30   31 1   
    87   30   32 1   
    88   30  101 1   
    89   31  102 1   
    90   31  103 1   
    91   31  104 1   
    92   32   33 1   
    93   32  105 1   
    94   32  106 1   
    95   33   34 1   
    96   33  107 1   
    97   33  108 1   
    98   34   35 1   
    99   34  109 1   
   100   34  110 1   
   101   35   36 1   
   102   35   37 1   
   103   35  111 1   
   104   36  112 1   
   105   36  113 1   
   106   36  114 1   
   107   37   38 1   
   108   37  115 1   
   109   37  116 1   
   110   38   39 1   
   111   38  117 1   
   112   38  118 1   
   113   39   40 1   
   114   39  119 1   
   115   39  120 1   
   116   40   41 1   
   117   40   42 1   
   118   40  121 1   
   119   41  122 1   
   120   41  123 1   
   121   41  124 1   
   122   42  125 1   
   123   42  126 1   
   124   42  127 1   
   125   43   44 1   
   126   43  128 1   
   127   43  129 1   
   128   44   45 1   
   129   44  130 1   
   130   45  131 1   
   131   45  132 1   
   132   45  133 1   
@<TRIPOS>SUBSTRUCTURE
     1 PH1         1 TEMP              0 ****  ****    0 ROOT
