@<TRIPOS>MOLECULE
PH2
   23    24     1     0     0
SMALL
bcc


@<TRIPOS>ATOM
      1 N1         -0.5810   -0.2250   -1.3760 ne        1 PH2     -0.459300
      2 C2          0.4400   -0.1690   -2.1790 c2        1 PH2      0.285300
      3 C3          1.8850   -0.0400   -1.7350 c3        1 PH2      0.158500
      4 N4          2.0570   -0.0090   -0.3040 nh        1 PH2     -0.751000
      5 N5          1.2110    0.0730    1.9120 nc        1 PH2     -0.742300
      6 C6          0.1370    0.0560    2.7370 cd        1 PH2      0.723800
      7 N6          0.3500    0.2670    4.1090 nh        1 PH2     -0.906800
      8 N7         -1.1770   -0.1100    2.2900 n         1 PH2     -0.511400
      9 C8         -1.4820   -0.2020    0.9020 c         1 PH2      0.751700
     10 O8         -2.6830   -0.3210    0.6170 o         1 PH2     -0.605500
     11 C9         -0.3410   -0.1520   -0.0040 cc        1 PH2     -0.189600
     12 C10         0.9710   -0.0210    0.5430 cd        1 PH2      0.454600
     13 C11         0.2690   -0.2430   -3.6770 c3        1 PH2      0.114100
     14 O4         -0.6290    0.7190   -4.1830 oh        1 PH2     -0.594800
     15 H31         2.4720   -0.9150   -2.1430 h1        1 PH2      0.047700
     16 H32         2.3180    0.9040   -2.1830 h1        1 PH2      0.047700
     17 HN4         2.9700    0.1520    0.0520 hn        1 PH2      0.454800
     18 HN61        1.2990    0.2530    4.4110 hn        1 PH2      0.431800
     19 HN62       -0.3060   -0.1340    4.7370 hn        1 PH2      0.431800
     20 HN7        -1.9440   -0.0890    2.9270 hn        1 PH2      0.334500
     21 H111        1.2440   -0.0130   -4.1870 h1        1 PH2      0.052700
     22 H112       -0.0680   -1.2780   -3.9610 h1        1 PH2      0.052700
     23 HO4        -1.4830    0.5870   -3.7500 ho        1 PH2      0.421000
@<TRIPOS>BOND
     1    1    2 2   
     2    1   11 1   
     3    2    3 1   
     4    2   13 1   
     5    3    4 1   
     6    3   15 1   
     7    3   16 1   
     8    4   12 1   
     9    4   17 1   
    10    5    6 2   
    11    5   12 1   
    12    6    7 1   
    13    6    8 1   
    14    7   18 1   
    15    7   19 1   
    16    8    9 1   
    17    8   20 1   
    18    9   10 2   
    19    9   11 1   
    20   11   12 2   
    21   13   14 1   
    22   13   21 1   
    23   13   22 1   
    24   14   23 1   
@<TRIPOS>SUBSTRUCTURE
     1 PH2         1 TEMP              0 ****  ****    0 ROOT
