@<TRIPOS>MOLECULE
PH2
   23    24     1     0     0
SMALL
bcc


@<TRIPOS>ATOM
      1 N1          0.0160   -0.2520   -0.0890 ne        1 PH2     -0.459300
      2 C2          1.3040   -0.0750   -0.0510 c2        1 PH2      0.284300
      3 C3          2.1000    0.2210    1.2050 c3        1 PH2      0.158500
      4 N4          1.3030    0.2620    2.4060 nu        1 PH2     -0.751000
      5 N5         -0.7770    0.2410    3.5490 nc        1 PH2     -0.742300
      6 C6         -2.1150    0.0380    3.5000 cd        1 PH2      0.723800
      7 N6         -2.8310    0.0390    4.7090 nv        1 PH2     -0.906800
      8 N7         -2.8140   -0.2220    2.3180 ns        1 PH2     -0.511400
      9 C8         -2.1400   -0.3450    1.0700 c         1 PH2      0.751700
     10 O8         -2.8570   -0.5950    0.0880 o         1 PH2     -0.605500
     11 C9         -0.6950   -0.1560    1.1060 cc        1 PH2     -0.190600
     12 C10        -0.0660    0.1170    2.3580 cd        1 PH2      0.454600
     13 C11         2.1490   -0.1650   -1.2980 c3        1 PH2      0.114100
     14 O4          1.7030    0.6790   -2.3360 oh        1 PH2     -0.594800
     15 H31         2.8930   -0.5750    1.3320 h1        1 PH2      0.047700
     16 H32         2.6270    1.2130    1.0750 h1        1 PH2      0.047700
     17 HN4         1.7540    0.5040    3.2570 hn        1 PH2      0.454800
     18 HN61       -2.3310    0.3490    5.5120 hn        1 PH2      0.431300
     19 HN62       -3.7870    0.3060    4.6680 hn        1 PH2      0.431300
     20 HN7        -3.7960   -0.3960    2.3280 hn        1 PH2      0.334500
     21 H111        2.1770   -1.2330   -1.6500 h1        1 PH2      0.052700
     22 H112        3.1950    0.1860   -1.0810 h1        1 PH2      0.052700
     23 HO4         0.7900    0.4410   -2.5430 ho        1 PH2      0.421000
@<TRIPOS>BOND
     1    1    2 2   
     2    1   11 1   
     3    2    3 1   
     4    2   13 1   
     5    3    4 1   
     6    3   15 1   
     7    3   16 1   
     8    4   12 1   
     9    4   17 1   
    10    5    6 2   
    11    5   12 1   
    12    6    7 1   
    13    6    8 1   
    14    7   18 1   
    15    7   19 1   
    16    8    9 1   
    17    8   20 1   
    18    9   10 2   
    19    9   11 1   
    20   11   12 2   
    21   13   14 1   
    22   13   21 1   
    23   13   22 1   
    24   14   23 1   
@<TRIPOS>SUBSTRUCTURE
     1 PH2         1 TEMP              0 ****  ****    0 ROOT
