@<TRIPOS>MOLECULE
PH2
   24    25     1     0     0
SMALL
bcc


@<TRIPOS>ATOM
      1 N1          0.0310   -0.2750   -0.0840 ne        1 PH2     -0.493300
      2 C2          1.3150   -0.0710   -0.0640 c2        1 PH2      0.371300
      3 C3          2.1250    0.2450    1.1810 c3        1 PH2      0.132500
      4 N4          1.3400    0.3030    2.3960 nh        1 PH2     -0.733000
      5 N5         -0.7580    0.2870    3.5490 nc        1 PH2     -0.621300
      6 C6         -2.0650    0.0770    3.4750 cd        1 PH2      0.560800
      7 N6         -2.8110    0.2390    4.7730 n4        1 PH2     -0.808600
      8 N7         -2.7920   -0.2650    2.3510 n         1 PH2     -0.497400
      9 C8         -2.1090   -0.4110    1.0870 c         1 PH2      0.743700
     10 O8         -2.8290   -0.7160    0.1390 o         1 PH2     -0.510500
     11 C9         -0.6640   -0.1760    1.1270 cc        1 PH2     -0.077600
     12 C10        -0.0240    0.1450    2.3510 cd        1 PH2      0.395600
     13 C11         2.1460   -0.1370   -1.3310 c3        1 PH2      0.101100
     14 O4          1.6250    0.6700   -2.3560 oh        1 PH2     -0.571800
     15 H31         2.9150   -0.5540    1.3150 h1        1 PH2      0.079200
     16 H32         2.6490    1.2360    1.0300 h1        1 PH2      0.079200
     17 HN4         1.7900    0.6180    3.2260 hn        1 PH2      0.469800
     18 HN61       -3.5120    0.9840    4.6760 hn        1 PH2      0.484133
     19 HN62       -3.2720   -0.6460    5.0170 hn        1 PH2      0.484133
     20 HN7        -3.7800   -0.4140    2.3650 hn        1 PH2      0.352500
     21 H111        2.2280   -1.2110   -1.6530 h1        1 PH2      0.074700
     22 H112        3.1720    0.2810   -1.1330 h1        1 PH2      0.074700
     23 HO4         0.8020    0.2700   -2.6680 ho        1 PH2      0.425000
     24 H63        -2.1510    0.4930    5.5240 hn        1 PH2      0.484133
@<TRIPOS>BOND
     1    1    2 2   
     2    1   11 1   
     3    2    3 1   
     4    2   13 1   
     5    3    4 1   
     6    3   15 1   
     7    3   16 1   
     8    4   12 1   
     9    4   17 1   
    10    5    6 2   
    11    5   12 1   
    12    6    7 1   
    13    6    8 1   
    14    7   18 1   
    15    7   19 1   
    16    7   24 1   
    17    8    9 1   
    18    8   20 1   
    19    9   10 2   
    20    9   11 1   
    21   11   12 2   
    22   13   14 1   
    23   13   21 1   
    24   13   22 1   
    25   14   23 1   
@<TRIPOS>SUBSTRUCTURE
     1 PH2         1 TEMP              0 ****  ****    0 ROOT
