@<TRIPOS>MOLECULE
PH3
   20    19     1     0     0
SMALL
bcc


@<TRIPOS>ATOM
      1 CL         -0.3850    0.3420    0.0860 cl        1 PH3     -0.005000
      2 C1          4.3320    0.0050   -0.4970 c2        1 PH3      0.078000
      3 C2          3.8680   -1.0130    0.4460 c2        1 PH3     -0.470000
      4 C3          2.6110   -1.1820    0.8260 c1        1 PH3      0.189000
      5 C4          1.2790    0.6300    0.0070 c2        1 PH3     -0.120000
      6 C5          1.9930    0.4390   -1.1160 c2        1 PH3     -0.131000
      7 C6          3.4150    0.6980   -1.2280 c2        1 PH3     -0.189000
      8 CZ          6.6500   -0.7860   -0.3950 c2        1 PH3      0.087000
      9 NH1         6.3680   -2.0770   -1.0610 n3        1 PH3     -0.131000
     10 NH2         7.6680   -0.5730    0.3880 n2        1 PH3     -0.273000
     11 OH          7.4450   -2.6020   -1.6240 oh        1 PH3     -0.217000
     12 H2          5.9840    1.1510   -0.2530 hn        1 PH3      0.226000
     13 H3          4.6230   -1.6980    0.8900 ha        1 PH3      0.208000
     14 H5          1.6840    1.0470    0.9420 h4        1 PH3      0.166000
     15 H6          1.5140    0.0790   -2.0460 ha        1 PH3      0.153000
     16 HNE         3.7080    1.4580   -1.9690 ha        1 PH3      0.158000
     17 HN1         5.6040   -1.9810   -1.7260 hn        1 PH3      0.177000
     18 HN2         8.3350   -1.3140    0.4430 hn        1 PH3      0.177000
     19 HO          7.7360   -2.0660   -2.3910 ho        1 PH3      0.177000
     20 NE          5.7160    0.2740   -0.6650 n3        1 PH3     -0.258000
@<TRIPOS>BOND
     1    1    5 1   
     2    2    3 1   
     3    2    7 1   
     4    2   20 1   
     5    3    4 1   
     6    3   13 1   
     7    5    6 1   
     8    5   14 1   
     9    6    7 1   
    10    6   15 1   
    11    7   16 1   
    12    8    9 1   
    13    8   10 1   
    14    8   20 1   
    15    9   11 1   
    16    9   17 1   
    17   10   18 1   
    18   11   19 1   
    19   12   20 1   
@<TRIPOS>SUBSTRUCTURE
     1 PH3         1 TEMP              0 ****  ****    0 ROOT
