@<TRIPOS>MOLECULE
PH3
   21    19     1     0     0
SMALL
bcc


@<TRIPOS>ATOM
      1 Cl         -0.4310    0.2870    1.3300 cl        1 PH3      0.062000
      2 C1          3.8860    0.0400   -0.6250 c2        1 PH3      0.052000
      3 C2          3.7620   -0.9690    0.4160 c2        1 PH3     -0.491000
      4 C3          2.6420   -1.1360    1.1250 c1        1 PH3      0.281000
      5 C4          1.0980    0.6530    0.7430 c2        1 PH3     -0.078000
      6 C5          1.4860    0.3610   -0.5140 c2        1 PH3     -0.183000
      7 C6          2.7870    0.7140   -1.0600 c2        1 PH3     -0.112000
      8 CZ          6.2850   -0.0130   -0.5740 c1        1 PH3      0.301000
      9 NH1         7.3900   -2.1550   -2.1590 n8        1 PH3     -0.227000
     10 NH2         7.2820   -0.1250    0.0770 n2        1 PH3     -0.082000
     11 OH          8.1730   -2.5210   -1.1490 oh        1 PH3     -0.291000
     12 H2          5.2300    0.8600   -2.0280 hn        1 PH3      0.307000
     13 H3          4.6020   -1.6620    0.6100 ha        1 PH3      0.191000
     14 H5          1.7200    1.2090    1.4650 h4        1 PH3      0.168000
     15 H6          0.8090   -0.1460   -1.2280 ha        1 PH3      0.182000
     16 HNE         2.8030    1.4890   -1.8430 ha        1 PH3      0.172000
     17 HN1         6.7360   -2.8980   -2.3960 hn        1 PH3      0.154000
     18 HN2         8.0210   -0.7940    0.1800 hn        1 PH3      0.366000
     19 HO          8.7000   -3.3170   -1.3660 ho        1 PH3      0.216000
     20 HH13        7.9390   -1.9720   -2.9950 hn        1 PH3      0.154000
     21 NE          5.1750    0.3100   -1.1850 n7        1 PH3     -0.141000
@<TRIPOS>BOND
     1    1    5 1   
     2    2    3 1   
     3    2    7 1   
     4    2   21 1   
     5    3    4 1   
     6    3   13 1   
     7    5    6 1   
     8    5   14 1   
     9    6    7 1   
    10    6   15 1   
    11    7   16 1   
    12    8   10 1   
    13    8   21 1   
    14    9   11 1   
    15    9   17 1   
    16    9   20 1   
    17   10   18 1   
    18   11   19 1   
    19   12   21 1   
@<TRIPOS>SUBSTRUCTURE
     1 PH3         1 TEMP              0 ****  ****    0 ROOT
