@<TRIPOS>MOLECULE
PH3
   21    19     1     0     0
SMALL
bcc


@<TRIPOS>ATOM
      1 CL         -0.5760   -0.2270    0.1850 cl        1 PH3      0.063000
      2 C1          4.1510   -0.3070    0.5530 c2        1 PH3      0.066000
      3 C2          3.6420    0.9200    1.1490 c2        1 PH3     -0.481000
      4 C3          2.3410    1.2100    1.2050 c1        1 PH3      0.286000
      5 C4          1.0690   -0.3170   -0.1310 c2        1 PH3     -0.084000
      6 C5          1.8850   -1.1850    0.4980 c2        1 PH3     -0.179000
      7 C6          3.3040   -1.3170    0.2190 c2        1 PH3     -0.132000
      8 CZ          6.1470   -1.2690   -0.3980 c1        1 PH3      0.282000
      9 NH1         7.5680   -0.1470   -2.9140 n3        1 PH3     -0.233000
     10 NH2         6.6780   -2.2150   -0.8980 n2        1 PH3     -0.091000
     11 OH          7.4870   -1.3540   -3.5130 oh        1 PH3     -0.308000
     12 H2          6.1440    0.2950    0.8470 hn        1 PH3      0.314000
     13 H3          4.3450    1.6460    1.6040 ha        1 PH3      0.202000
     14 H5          1.3940    0.3560   -0.9420 h4        1 PH3      0.166000
     15 H6          1.5020   -1.8870    1.2660 ha        1 PH3      0.183000
     16 HNE         3.6310   -2.2780   -0.2100 ha        1 PH3      0.160000
     17 HN1         7.5250    0.5930   -3.6130 hn        1 PH3      0.158000
     18 HN2         8.5140   -0.1020   -2.5350 hn        1 PH3      0.158000
     19 HO          7.0630   -2.4860   -1.7850 hn        1 PH3      0.373000
     20 HH13        6.7220   -1.3250   -4.1190 ho        1 PH3      0.236000
     21 NE          5.5670   -0.3700    0.3530 n3        1 PH3     -0.140000
@<TRIPOS>BOND
     1    1    5 1   
     2    2    3 1   
     3    2    7 1   
     4    2   21 1   
     5    3    4 1   
     6    3   13 1   
     7    5    6 1   
     8    5   14 1   
     9    6    7 1   
    10    6   15 1   
    11    7   16 1   
    12    8   10 1   
    13    8   21 1   
    14    9   11 1   
    15    9   17 1   
    16    9   18 1   
    17   10   19 1   
    18   11   20 1   
    19   12   21 1   
@<TRIPOS>SUBSTRUCTURE
     1 PH3         1 TEMP              0 ****  ****    0 ROOT
