@<TRIPOS>MOLECULE
PH3
   20    20     1     0     0
SMALL
bcc


@<TRIPOS>ATOM
      1 CL         -0.3660   -0.3790   -3.9970 cl        1 PH3     -0.090400
      2 C1          0.7970   -0.0640    0.3460 ca        1 PH3      0.121600
      3 C2          1.5610    0.5800   -0.6540 ca        1 PH3     -0.171000
      4 C3          1.2030    0.4750   -1.9930 ca        1 PH3     -0.091000
      5 C4          0.0730   -0.2600   -2.3600 ca        1 PH3     -0.012600
      6 C5         -0.6980   -0.8970   -1.3840 ca        1 PH3     -0.091000
      7 C6         -0.3430   -0.8020   -0.0430 ca        1 PH3     -0.171000
      8 CZ          0.2150   -0.0730    2.7350 c2        1 PH3      0.676100
      9 NH1        -0.8670    0.9260    2.6150 nh        1 PH3     -0.520700
     10 NH2         0.3040   -0.8390    3.7790 n2        1 PH3     -0.783100
     11 OH         -2.0030    0.5740    3.2200 oh        1 PH3     -0.397300
     12 H2          2.4550    1.1630   -0.3840 ha        1 PH3      0.144500
     13 H3          1.8120    0.9770   -2.7610 ha        1 PH3      0.150500
     14 H5         -1.5870   -1.4800   -1.6710 ha        1 PH3      0.150500
     15 H6         -0.9530   -1.3240    0.7120 ha        1 PH3      0.144500
     16 HNE         1.9440    0.6290    1.8720 hn        1 PH3      0.414800
     17 HN1        -1.1050    1.0260    1.6250 hn        1 PH3      0.396800
     18 HN2         1.1130   -1.4190    3.8390 hn        1 PH3      0.416400
     19 HO         -1.8740    0.7700    4.1690 ho        1 PH3      0.438000
     20 NE          1.2270   -0.0460    1.6880 nh        1 PH3     -0.725600
@<TRIPOS>BOND
     1    1    5 1   
     2    2    3 ar  
     3    2    7 ar  
     4    2   20 1   
     5    3    4 ar  
     6    3   12 1   
     7    4    5 ar  
     8    4   13 1   
     9    5    6 ar  
    10    6    7 ar  
    11    6   14 1   
    12    7   15 1   
    13    8    9 1   
    14    8   10 2   
    15    8   20 1   
    16    9   11 1   
    17    9   17 1   
    18   10   18 1   
    19   11   19 1   
    20   16   20 1   
@<TRIPOS>SUBSTRUCTURE
     1 PH3         1 TEMP              0 ****  ****    0 ROOT
