@<TRIPOS>MOLECULE
PH4
   27    26     1     0     0
SMALL
bcc


@<TRIPOS>ATOM
      1 N3         -0.0240    0.5800    0.7900 n         1 PH4     -0.318300
      2 C4          1.4100    0.8740    0.9600 c3        1 PH4      0.063000
      3 C5          2.2380   -0.2670    1.5460 c3        1 PH4     -0.103400
      4 C6          3.7050    0.1480    1.7580 c3        1 PH4      0.225400
      5 O62         6.3040   -2.2450    3.1010 o         1 PH4     -0.945167
      6 P6          6.0220   -1.0110    2.2800 p5        1 PH4      1.322900
      7 O63         6.6690    0.2550    2.7870 o         1 PH4     -0.945167
      8 O61         6.0860   -1.1970    0.7850 o         1 PH4     -0.945167
      9 O6          4.3400   -0.7460    2.5880 os        1 PH4     -0.577200
     10 O3         -0.5660    0.1850    1.9520 oh        1 PH4     -0.453100
     11 C2         -0.8280    1.5900    0.1170 c         1 PH4      0.591100
     12 O2         -0.2550    2.3230   -0.7050 o         1 PH4     -0.607100
     13 C1         -2.3340    1.5910    0.4320 c3        1 PH4      0.166400
     14 O1         -3.0310    2.4670   -0.3480 os        1 PH4     -0.548200
     15 P1         -4.7250    2.0670   -0.5310 p5        1 PH4      1.318900
     16 O12        -5.2980    2.5170    0.7870 o         1 PH4     -0.936500
     17 O13        -5.1440    2.8760   -1.7290 o         1 PH4     -0.936500
     18 O11        -4.6820    0.5720   -0.7210 o         1 PH4     -0.936500
     19 H4          1.7850    1.1230   -0.0710 h1        1 PH4      0.035200
     20 H4A         1.5430    1.7860    1.6090 h1        1 PH4      0.035200
     21 H5          2.2050   -1.1550    0.8660 hc        1 PH4      0.031700
     22 H5A         1.8080   -0.5820    2.5310 hc        1 PH4      0.031700
     23 H6          3.6930    1.1830    2.2230 h1        1 PH4     -0.012800
     24 H6A         4.2350    0.2100    0.7660 h1        1 PH4     -0.012800
     25 HO3        -1.1520   -0.5560    1.7120 ho        1 PH4      0.402000
     26 H1         -2.3880    1.8780    1.5280 h1        1 PH4      0.026700
     27 H1A        -2.7300    0.5400    0.3010 h1        1 PH4      0.026700
@<TRIPOS>BOND
     1    1    2 1   
     2    1   10 1   
     3    1   11 1   
     4    2    3 1   
     5    2   19 1   
     6    2   20 1   
     7    3    4 1   
     8    3   21 1   
     9    3   22 1   
    10    4    9 1   
    11    4   23 1   
    12    4   24 1   
    13    5    6 1   
    14    6    7 1   
    15    6    8 1   
    16    6    9 1   
    17   10   25 1   
    18   11   12 2   
    19   11   13 1   
    20   13   14 1   
    21   13   26 1   
    22   13   27 1   
    23   14   15 1   
    24   15   16 1   
    25   15   17 1   
    26   15   18 1   
@<TRIPOS>SUBSTRUCTURE
     1 PH4         1 TEMP              0 ****  ****    0 ROOT
