@<TRIPOS>MOLECULE
PH4
   27    26     1     0     0
SMALL
bcc


@<TRIPOS>ATOM
      1 N3         -0.6520    0.4310   -0.3860 n         1 PH4     -0.318300
      2 C4          0.7820    0.3950   -0.1890 c3        1 PH4      0.063000
      3 C5          1.0910    0.4040    1.3030 c3        1 PH4     -0.103400
      4 C6          2.6130    0.4180    1.5130 c3        1 PH4      0.225400
      5 O62         4.5100    0.0230    4.8390 o         1 PH4     -0.945167
      6 P6          4.4150    0.3790    3.3760 p5        1 PH4      1.322900
      7 O63         4.9260    1.7850    3.1670 o         1 PH4     -0.945167
      8 O61         5.2440   -0.5780    2.5750 o         1 PH4     -0.945167
      9 O6          2.9020    0.2890    2.9060 os        1 PH4     -0.577200
     10 O3         -1.3730    1.4860    0.0730 oh        1 PH4     -0.453100
     11 C2         -1.2900   -0.5830   -1.1640 c         1 PH4      0.591100
     12 O2         -0.7180   -1.6460   -1.3740 o         1 PH4     -0.607100
     13 C1         -2.7070   -0.3540   -1.7070 c3        1 PH4      0.166400
     14 O1         -3.1960   -1.5470   -2.2550 os        1 PH4     -0.548200
     15 P1         -4.4830   -1.4890   -3.1350 p5        1 PH4      1.318900
     16 O12        -5.1980   -2.8120   -3.0640 o         1 PH4     -0.936500
     17 O13        -5.4020   -0.3840   -2.6200 o         1 PH4     -0.936500
     18 O11        -4.1020   -1.2000   -4.5630 o         1 PH4     -0.936500
     19 H4          1.1940    1.1890   -0.6150 h1        1 PH4      0.035200
     20 H4A         1.1470   -0.4180   -0.5920 h1        1 PH4      0.035200
     21 H5          0.7120   -0.3970    1.7190 hc        1 PH4      0.031700
     22 H5A         0.6990    1.1980    1.7110 hc        1 PH4      0.031700
     23 H6          2.9810    1.2640    1.1790 h1        1 PH4     -0.012800
     24 H6A         3.0160   -0.3270    1.0260 h1        1 PH4     -0.012800
     25 HO3        -1.1330    2.2090   -0.3520 ho        1 PH4      0.402000
     26 H1         -2.6830    0.3300   -2.3920 h1        1 PH4      0.026700
     27 H1A        -3.2930   -0.0650   -0.9790 h1        1 PH4      0.026700
@<TRIPOS>BOND
     1    1    2 1   
     2    1   10 1   
     3    1   11 1   
     4    2    3 1   
     5    2   19 1   
     6    2   20 1   
     7    3    4 1   
     8    3   21 1   
     9    3   22 1   
    10    4    9 1   
    11    4   23 1   
    12    4   24 1   
    13    5    6 1   
    14    6    7 1   
    15    6    8 1   
    16    6    9 1   
    17   10   25 1   
    18   11   12 2   
    19   11   13 1   
    20   13   14 1   
    21   13   26 1   
    22   13   27 1   
    23   14   15 1   
    24   15   16 1   
    25   15   17 1   
    26   15   18 1   
@<TRIPOS>SUBSTRUCTURE
     1 PH4         1 TEMP              0 ****  ****    0 ROOT
