@<TRIPOS>MOLECULE
PH4
   27    26     1     0     0
SMALL
bcc


@<TRIPOS>ATOM
      1 N3         -0.6130   -0.7010    0.1110 n         1 PH4     -0.318300
      2 C4          0.6910   -0.3740   -0.4930 c3        1 PH4      0.063000
      3 C5          1.9060   -0.7740    0.3410 c3        1 PH4     -0.103400
      4 C6          3.2210   -0.3310   -0.3270 c3        1 PH4      0.225400
      5 O62         6.6030   -1.0890    1.1810 o         1 PH4     -0.945167
      6 P6          5.8110   -0.7900   -0.0680 p5        1 PH4      1.322900
      7 O63         6.2200    0.4650   -0.7980 o         1 PH4     -0.945167
      8 O61         5.5290   -1.9740   -0.9580 o         1 PH4     -0.945167
      9 O6          4.2570   -0.3840    0.5760 os        1 PH4     -0.577200
     10 O3         -0.7140   -0.1630    1.3360 oh        1 PH4     -0.453100
     11 C2         -1.7960   -0.4570   -0.7030 c         1 PH4      0.591100
     12 O2         -1.6630   -0.5150   -1.9360 o         1 PH4     -0.607100
     13 C1         -3.1160   -0.2320    0.0540 c3        1 PH4      0.166400
     14 O1         -4.1920   -0.1580   -0.7810 os        1 PH4     -0.548200
     15 P1         -5.7140   -0.5690   -0.0220 p5        1 PH4      1.318900
     16 O12        -6.0210    0.6790    0.7630 o         1 PH4     -0.936500
     17 O13        -6.6230   -0.8380   -1.1910 o         1 PH4     -0.936500
     18 O11        -5.3410   -1.7640    0.8180 o         1 PH4     -0.936500
     19 H4          0.7080   -0.9240   -1.4750 h1        1 PH4      0.035200
     20 H4A         0.7500    0.7300   -0.7110 h1        1 PH4      0.035200
     21 H5          1.8430   -0.3040    1.3550 hc        1 PH4      0.031700
     22 H5A         1.9260   -1.8830    0.4850 hc        1 PH4      0.031700
     23 H6          3.4400   -0.9860   -1.2170 h1        1 PH4     -0.012800
     24 H6A         3.0660    0.7310   -0.6940 h1        1 PH4     -0.012800
     25 HO3        -1.1330   -0.8580    1.8770 ho        1 PH4      0.402000
     26 H1         -3.2490   -1.0700    0.8020 h1        1 PH4      0.026700
     27 H1A        -2.9540    0.7430    0.6100 h1        1 PH4      0.026700
@<TRIPOS>BOND
     1    1    2 1   
     2    1   10 1   
     3    1   11 1   
     4    2    3 1   
     5    2   19 1   
     6    2   20 1   
     7    3    4 1   
     8    3   21 1   
     9    3   22 1   
    10    4    9 1   
    11    4   23 1   
    12    4   24 1   
    13    5    6 1   
    14    6    7 1   
    15    6    8 1   
    16    6    9 1   
    17   10   25 1   
    18   11   12 2   
    19   11   13 1   
    20   13   14 1   
    21   13   26 1   
    22   13   27 1   
    23   14   15 1   
    24   15   16 1   
    25   15   17 1   
    26   15   18 1   
@<TRIPOS>SUBSTRUCTURE
     1 PH4         1 TEMP              0 ****  ****    0 ROOT
