@<TRIPOS>MOLECULE
PH5
   56    57     1     0     0
SMALL
bcc


@<TRIPOS>ATOM
      1 C1          1.8460   -0.1020   -0.3240 c         1 PH5      0.897600
      2 O1A         2.4430   -1.1210    0.1070 o         1 PH5     -0.792800
      3 O1B         2.3670    0.8910   -0.8890 o         1 PH5     -0.792800
      4 C2          0.2720   -0.1380   -0.2720 c3        1 PH5      0.201600
      5 O2         -0.3370   -0.1830    0.9900 os        1 PH5     -0.404600
      6 C3         -0.3780    1.0170   -1.0440 c3        1 PH5     -0.109400
      7 C4         -0.0570    0.9000   -2.5280 c3        1 PH5      0.124100
      8 O4         -0.7360    1.8550   -3.3220 oh        1 PH5     -0.636800
      9 C5         -0.4440   -0.5160   -3.0290 c3        1 PH5      0.059500
     10 N5         -0.1350   -0.7270   -4.4810 n4        1 PH5     -0.667800
     11 C10        -0.7930    0.2960   -5.3790 c         1 PH5      0.576100
     12 O10        -2.0090    0.2220   -5.4740 o         1 PH5     -0.438100
     13 C11         0.1350    1.2690   -6.0490 c3        1 PH5     -0.151400
     14 C12        -0.5350    1.9220   -7.2320 c3        1 PH5     -0.099100
     15 C6          0.2950   -1.5650   -2.1540 c3        1 PH5      0.100100
     16 O6         -0.1900   -1.3970   -0.8390 os        1 PH5     -0.433600
     17 C7          0.0300   -3.0160   -2.5900 c3        1 PH5      0.094100
     18 O7         -1.2560   -3.1410   -3.1670 oh        1 PH5     -0.633800
     19 C8          0.2570   -3.9740   -1.4070 c3        1 PH5      0.094100
     20 O8          1.5780   -3.8500   -0.9260 oh        1 PH5     -0.614800
     21 C9          0.1040   -5.4300   -1.8660 c3        1 PH5      0.136400
     22 O9          0.1510   -6.3110   -0.7680 oh        1 PH5     -0.596800
     23 CB          0.3780   -0.9670    1.9610 c3        1 PH5      0.177700
     24 CG         -0.4900   -1.1420    3.1620 ca        1 PH5     -0.079300
     25 CD1        -1.8690   -0.9120    3.1280 ca        1 PH5     -0.120500
     26 CD2         0.1080   -1.5720    4.3540 ca        1 PH5     -0.120500
     27 CE1        -2.6410   -1.1100    4.2720 ca        1 PH5     -0.133500
     28 CE2        -0.6670   -1.7730    5.4930 ca        1 PH5     -0.133500
     29 CZ         -2.0420   -1.5420    5.4550 ca        1 PH5     -0.136000
     30 H3C1       -1.4840    1.0160   -0.8760 hc        1 PH5      0.082700
     31 H3C2        0.0570    1.9760   -0.6550 hc        1 PH5      0.082700
     32 H4          1.0500    1.0950   -2.6790 h1        1 PH5      0.137700
     33 HA         -1.5300    2.1420   -2.8530 ho        1 PH5      0.429000
     34 H5         -1.5600   -0.6590   -2.9160 hx        1 PH5      0.117700
     35 HB          0.8800   -0.6990   -4.6060 hn        1 PH5      0.459300
     36 H111        0.4050    2.0480   -5.2750 hc        1 PH5      0.107200
     37 H112        1.0810    0.7610   -6.3750 hc        1 PH5      0.107200
     38 H121       -1.4900    2.4130   -6.9230 hc        1 PH5      0.063033
     39 H122       -0.7650    1.1720   -8.0270 hc        1 PH5      0.063033
     40 H123        0.1470    2.6990   -7.6580 hc        1 PH5      0.063033
     41 H6          1.4110   -1.3830   -2.1920 h1        1 PH5      0.103700
     42 H7          0.7410   -3.2840   -3.4240 h1        1 PH5      0.067700
     43 HC         -1.8980   -3.1890   -2.4450 ho        1 PH5      0.433000
     44 H8         -0.4860   -3.7430   -0.5920 h1        1 PH5      0.074700
     45 HD          1.6500   -3.0060   -0.4400 ho        1 PH5      0.466000
     46 H9C1        0.9120   -5.6830   -2.6030 h1        1 PH5      0.049700
     47 H9C2       -0.9060   -5.5810   -2.3320 h1        1 PH5      0.049700
     48 H9          0.9740   -6.1260   -0.2930 ho        1 PH5      0.422000
     49 HBC1        0.6380   -1.9650    1.5110 h1        1 PH5      0.070700
     50 HBC2        1.3300   -0.4290    2.2200 h1        1 PH5      0.070700
     51 HD1        -2.3370   -0.5680    2.1930 ha        1 PH5      0.139500
     52 HD2         1.1940   -1.7490    4.3850 ha        1 PH5      0.139500
     53 HE1        -3.7240   -0.9250    4.2390 ha        1 PH5      0.126500
     54 HE2        -0.1920   -2.1120    6.4250 ha        1 PH5      0.126500
     55 HZ         -2.6520   -1.7000    6.3560 ha        1 PH5      0.126000
     56 H52        -0.4850   -1.6690   -4.7200 hn        1 PH5      0.459300
@<TRIPOS>BOND
     1    1    2 1   
     2    1    3 1   
     3    1    4 1   
     4    4    5 1   
     5    4    6 1   
     6    4   16 1   
     7    5   23 1   
     8    6    7 1   
     9    6   30 1   
    10    6   31 1   
    11    7    8 1   
    12    7    9 1   
    13    7   32 1   
    14    8   33 1   
    15    9   10 1   
    16    9   15 1   
    17    9   34 1   
    18   10   11 1   
    19   10   35 1   
    20   10   56 1   
    21   11   12 2   
    22   11   13 1   
    23   13   14 1   
    24   13   36 1   
    25   13   37 1   
    26   14   38 1   
    27   14   39 1   
    28   14   40 1   
    29   15   16 1   
    30   15   17 1   
    31   15   41 1   
    32   17   18 1   
    33   17   19 1   
    34   17   42 1   
    35   18   43 1   
    36   19   20 1   
    37   19   21 1   
    38   19   44 1   
    39   20   45 1   
    40   21   22 1   
    41   21   46 1   
    42   21   47 1   
    43   22   48 1   
    44   23   24 1   
    45   23   49 1   
    46   23   50 1   
    47   24   25 ar  
    48   24   26 ar  
    49   25   27 ar  
    50   25   51 1   
    51   26   28 ar  
    52   26   52 1   
    53   27   29 ar  
    54   27   53 1   
    55   28   29 ar  
    56   28   54 1   
    57   29   55 1   
@<TRIPOS>SUBSTRUCTURE
     1 PH5         1 TEMP              0 ****  ****    0 ROOT
