@<TRIPOS>MOLECULE
PH5
   56    57     1     0     0
SMALL
bcc


@<TRIPOS>ATOM
      1 C1          1.8710   -0.1580   -0.3220 c         1 PH5      0.897600
      2 O1A         2.4400   -1.1910    0.1110 o         1 PH5     -0.792800
      3 O1B         2.4200    0.8220   -0.8850 o         1 PH5     -0.792800
      4 C2          0.2970   -0.1530   -0.2770 c3        1 PH5      0.201600
      5 O2         -0.3180   -0.1830    0.9830 os        1 PH5     -0.404600
      6 C3         -0.3200    1.0180   -1.0500 c3        1 PH5     -0.109400
      7 C4          0.0040    0.8940   -2.5330 c3        1 PH5      0.124100
      8 O4         -0.6490    1.8660   -3.3300 oh        1 PH5     -0.636800
      9 C5         -0.4180   -0.5110   -3.0360 c3        1 PH5      0.059500
     10 N5         -0.1100   -0.7300   -4.4880 n4        1 PH5     -0.667800
     11 C10        -0.7380    0.3100   -5.3880 c         1 PH5      0.576100
     12 O10        -1.9560    0.2660   -5.4860 o         1 PH5     -0.438100
     13 C11         0.2160    1.2590   -6.0540 c3        1 PH5     -0.151400
     14 C12        -0.4330    1.9280   -7.2400 c3        1 PH5     -0.099100
     15 C6          0.2910   -1.5800   -2.1590 c3        1 PH5      0.100100
     16 O6         -0.1950   -1.4000   -0.8460 os        1 PH5     -0.433600
     17 C7         -0.0090   -3.0230   -2.5970 c3        1 PH5      0.094100
     18 O7         -1.2960   -3.1160   -3.1780 oh        1 PH5     -0.633800
     19 C8          0.1890   -3.9880   -1.4130 c3        1 PH5      0.094100
     20 O8          1.5120   -3.8970   -0.9280 oh        1 PH5     -0.614800
     21 C9          0.0010   -5.4390   -1.8740 c3        1 PH5      0.136400
     22 O9          0.0220   -6.3210   -0.7760 oh        1 PH5     -0.596800
     23 CB          0.3710   -0.9880    1.9560 c3        1 PH5      0.177700
     24 CG         -0.5060   -1.1410    3.1530 ca        1 PH5     -0.079300
     25 CD1        -1.8750   -0.8620    3.1180 ca        1 PH5     -0.120500
     26 CD2         0.0740   -1.6010    4.3430 ca        1 PH5     -0.120500
     27 CE1        -2.6570   -1.0410    4.2590 ca        1 PH5     -0.133500
     28 CE2        -0.7110   -1.7830    5.4790 ca        1 PH5     -0.133500
     29 CZ         -2.0780   -1.5030    5.4390 ca        1 PH5     -0.136000
     30 H3C1        0.1370    1.9650   -0.6600 hc        1 PH5      0.082700
     31 H3C2       -1.4270    1.0460   -0.8870 hc        1 PH5      0.082700
     32 H4          1.1150    1.0600   -2.6790 h1        1 PH5      0.137700
     33 HA         -1.4370    2.1730   -2.8630 ho        1 PH5      0.429000
     34 H5         -1.5380   -0.6260   -2.9280 hx        1 PH5      0.117700
     35 HB         -0.4820   -1.6630   -4.7280 hn        1 PH5      0.459300
     36 H111        0.5020    2.0310   -5.2790 hc        1 PH5      0.107200
     37 H112        1.1510    0.7270   -6.3760 hc        1 PH5      0.107200
     38 H121       -0.6780    1.1840   -8.0350 hc        1 PH5      0.063033
     39 H122        0.2690    2.6880   -7.6630 hc        1 PH5      0.063033
     40 H123       -1.3770    2.4430   -6.9350 hc        1 PH5      0.063033
     41 H6          1.4110   -1.4260   -2.1930 h1        1 PH5      0.103700
     42 H7          0.6980   -3.3080   -3.4280 h1        1 PH5      0.067700
     43 HC         -1.9410   -3.1480   -2.4590 ho        1 PH5      0.433000
     44 H8         -0.5510   -3.7380   -0.6020 h1        1 PH5      0.074700
     45 HD          1.6030   -3.0560   -0.4410 ho        1 PH5      0.466000
     46 H9C1        0.8050   -5.7120   -2.6080 h1        1 PH5      0.049700
     47 H9C2       -1.0100   -5.5640   -2.3440 h1        1 PH5      0.049700
     48 H9          0.8470   -6.1570   -0.2990 ho        1 PH5      0.422000
     49 HBC1        1.3360   -0.4750    2.2200 h1        1 PH5      0.070700
     50 HBC2        0.6080   -1.9910    1.5050 h1        1 PH5      0.070700
     51 HD1        -2.3290   -0.4940    2.1850 ha        1 PH5      0.139500
     52 HD2         1.1520   -1.8180    4.3750 ha        1 PH5      0.139500
     53 HE1        -3.7330   -0.8170    4.2250 ha        1 PH5      0.126500
     54 HE2        -0.2510   -2.1460    6.4090 ha        1 PH5      0.126500
     55 HZ         -2.6940   -1.6450    6.3380 ha        1 PH5      0.126000
     56 H52         0.9060   -0.7270   -4.6090 hn        1 PH5      0.459300
@<TRIPOS>BOND
     1    1    2 1   
     2    1    3 1   
     3    1    4 1   
     4    4    5 1   
     5    4    6 1   
     6    4   16 1   
     7    5   23 1   
     8    6    7 1   
     9    6   30 1   
    10    6   31 1   
    11    7    8 1   
    12    7    9 1   
    13    7   32 1   
    14    8   33 1   
    15    9   10 1   
    16    9   15 1   
    17    9   34 1   
    18   10   11 1   
    19   10   35 1   
    20   10   56 1   
    21   11   12 2   
    22   11   13 1   
    23   13   14 1   
    24   13   36 1   
    25   13   37 1   
    26   14   38 1   
    27   14   39 1   
    28   14   40 1   
    29   15   16 1   
    30   15   17 1   
    31   15   41 1   
    32   17   18 1   
    33   17   19 1   
    34   17   42 1   
    35   18   43 1   
    36   19   20 1   
    37   19   21 1   
    38   19   44 1   
    39   20   45 1   
    40   21   22 1   
    41   21   46 1   
    42   21   47 1   
    43   22   48 1   
    44   23   24 1   
    45   23   49 1   
    46   23   50 1   
    47   24   25 ar  
    48   24   26 ar  
    49   25   27 ar  
    50   25   51 1   
    51   26   28 ar  
    52   26   52 1   
    53   27   29 ar  
    54   27   53 1   
    55   28   29 ar  
    56   28   54 1   
    57   29   55 1   
@<TRIPOS>SUBSTRUCTURE
     1 PH5         1 TEMP              0 ****  ****    0 ROOT
