@<TRIPOS>MOLECULE
PH5
   55    56     1     0     0
SMALL
bcc


@<TRIPOS>ATOM
      1 C1         -1.2980   -0.8670   -1.1780 c         1 PH5      0.890600
      2 O1A        -1.5430   -2.0070   -1.6550 o         1 PH5     -0.809800
      3 O1B        -1.3380    0.2170   -1.8160 o         1 PH5     -0.809800
      4 C2         -0.9040   -0.8080    0.3370 c3        1 PH5      0.218600
      5 O2         -2.0060   -0.8000    1.2280 os        1 PH5     -0.404600
      6 C3         -0.0190   -1.9880    0.7470 c3        1 PH5     -0.120400
      7 C4          1.3450   -1.8390    0.0890 c3        1 PH5      0.126100
      8 O4          2.2360   -2.8620    0.5240 oh        1 PH5     -0.614800
      9 C5          1.9840   -0.4720    0.4620 c3        1 PH5      0.077700
     10 N5          3.2720   -0.3020   -0.1660 n         1 PH5     -0.539900
     11 C10         4.3910    0.1480    0.4870 c         1 PH5      0.653100
     12 O10         4.3570    0.5670    1.6650 o         1 PH5     -0.636100
     13 C11         5.6920    0.1790   -0.3020 c3        1 PH5     -0.159400
     14 C12         6.1170   -1.1900   -0.7610 c3        1 PH5     -0.090100
     15 C6          0.9740    0.6380    0.0410 c3        1 PH5      0.112100
     16 O6         -0.2620    0.4220    0.7120 os        1 PH5     -0.450600
     17 C7          1.4360    2.0450    0.4690 c3        1 PH5      0.121100
     18 O7          0.4400    2.7520    1.1880 oh        1 PH5     -0.615800
     19 C8          1.8450    2.8980   -0.7520 c3        1 PH5      0.067100
     20 O8          3.0150    2.3960   -1.3740 oh        1 PH5     -0.594800
     21 C9          2.0840    4.3580   -0.3390 c3        1 PH5      0.113400
     22 O9          0.8890    5.1060   -0.3050 oh        1 PH5     -0.610800
     23 CB         -3.0230    0.1550    0.9230 c3        1 PH5      0.170700
     24 CG         -4.3390   -0.5410    0.7690 ca        1 PH5     -0.085300
     25 CD1        -5.4530   -0.1030    1.4930 ca        1 PH5     -0.115500
     26 CD2        -4.4710   -1.6150   -0.1210 ca        1 PH5     -0.115500
     27 CE1        -6.6890   -0.7280    1.3260 ca        1 PH5     -0.145000
     28 CE2        -5.7070   -2.2380   -0.2810 ca        1 PH5     -0.145000
     29 CZ         -6.8170   -1.7960    0.4400 ca        1 PH5     -0.147000
     30 H3C1       -0.5130   -2.9290    0.3930 hc        1 PH5      0.068700
     31 H3C2        0.0860   -2.0230    1.8600 hc        1 PH5      0.068700
     32 H4          1.2220   -1.9130   -1.0310 h1        1 PH5      0.062700
     33 HA          1.7420   -3.6890    0.4730 ho        1 PH5      0.400000
     34 H5          2.1210   -0.4320    1.5830 h1        1 PH5      0.098700
     35 HB          3.3520   -0.6070   -1.1070 hn        1 PH5      0.315500
     36 H111        6.4770    0.6190    0.3690 hc        1 PH5      0.064200
     37 H112        5.5670    0.8650   -1.1810 hc        1 PH5      0.064200
     38 H121        6.1500   -1.9020    0.1000 hc        1 PH5      0.039367
     39 H122        5.4130   -1.5990   -1.5260 hc        1 PH5      0.039367
     40 H123        7.1360   -1.1390   -1.2170 hc        1 PH5      0.039367
     41 H6          0.8050    0.6030   -1.0740 h1        1 PH5      0.097700
     42 H7          2.3050    1.9680    1.1870 h1        1 PH5      0.080700
     43 HC         -0.4280    2.4780    0.8570 ho        1 PH5      0.434000
     44 H8          1.0500    2.8470   -1.5490 h1        1 PH5      0.107700
     45 HD          3.6950    2.3410   -0.6900 ho        1 PH5      0.391000
     46 H9C1        2.5940    4.3940    0.6600 h1        1 PH5      0.040200
     47 H9C2        2.7230    4.8680   -1.1090 h1        1 PH5      0.040200
     48 H9          0.3090    4.6890    0.3460 ho        1 PH5      0.420000
     49 HBC1       -3.0450    0.8610    1.7980 h1        1 PH5      0.063700
     50 HBC2       -2.7800    0.7290   -0.0150 h1        1 PH5      0.063700
     51 HD1        -5.3540    0.7350    2.1970 ha        1 PH5      0.156500
     52 HD2        -3.5830   -1.9510   -0.6930 ha        1 PH5      0.156500
     53 HE1        -7.5610   -0.3770    1.8950 ha        1 PH5      0.117500
     54 HE2        -5.8050   -3.0790   -0.9830 ha        1 PH5      0.117500
     55 HZ         -7.7910   -2.2880    0.3090 ha        1 PH5      0.111000
@<TRIPOS>BOND
     1    1    2 1   
     2    1    3 1   
     3    1    4 1   
     4    4    5 1   
     5    4    6 1   
     6    4   16 1   
     7    5   23 1   
     8    6    7 1   
     9    6   30 1   
    10    6   31 1   
    11    7    8 1   
    12    7    9 1   
    13    7   32 1   
    14    8   33 1   
    15    9   10 1   
    16    9   15 1   
    17    9   34 1   
    18   10   11 1   
    19   10   35 1   
    20   11   12 2   
    21   11   13 1   
    22   13   14 1   
    23   13   36 1   
    24   13   37 1   
    25   14   38 1   
    26   14   39 1   
    27   14   40 1   
    28   15   16 1   
    29   15   17 1   
    30   15   41 1   
    31   17   18 1   
    32   17   19 1   
    33   17   42 1   
    34   18   43 1   
    35   19   20 1   
    36   19   21 1   
    37   19   44 1   
    38   20   45 1   
    39   21   22 1   
    40   21   46 1   
    41   21   47 1   
    42   22   48 1   
    43   23   24 1   
    44   23   49 1   
    45   23   50 1   
    46   24   25 ar  
    47   24   26 ar  
    48   25   27 ar  
    49   25   51 1   
    50   26   28 ar  
    51   26   52 1   
    52   27   29 ar  
    53   27   53 1   
    54   28   29 ar  
    55   28   54 1   
    56   29   55 1   
@<TRIPOS>SUBSTRUCTURE
     1 PH5         1 TEMP              0 ****  ****    0 ROOT
