@<TRIPOS>MOLECULE
PH5
   56    57     1     0     0
SMALL
bcc


@<TRIPOS>ATOM
      1 C1          1.8650   -0.1370   -0.3300 c         1 PH5      0.897600
      2 O1A         2.4450   -1.1640    0.1050 o         1 PH5     -0.792800
      3 O1B         2.4040    0.8450   -0.8990 o         1 PH5     -0.792800
      4 C2          0.2910   -0.1450   -0.2790 c3        1 PH5      0.201600
      5 O2         -0.3190   -0.1750    0.9830 os        1 PH5     -0.404600
      6 C3         -0.3380    1.0180   -1.0560 c3        1 PH5     -0.109400
      7 C4         -0.0180    0.8900   -2.5390 c3        1 PH5      0.124100
      8 O4         -0.6810    1.8540   -3.3370 oh        1 PH5     -0.636800
      9 C5         -0.4300   -0.5210   -3.0350 c3        1 PH5      0.059500
     10 N5         -0.1240   -0.7430   -4.4860 ny        1 PH5     -0.667800
     11 C10        -0.7650    0.2880   -5.3880 c         1 PH5      0.576100
     12 O10        -1.9820    0.2340   -5.4820 o         1 PH5     -0.438100
     13 C11         0.1790    1.2420   -6.0620 c3        1 PH5     -0.151400
     14 C12        -0.4790    1.9020   -7.2480 c3        1 PH5     -0.099100
     15 C6          0.2910   -1.5800   -2.1560 c3        1 PH5      0.100100
     16 O6         -0.1920   -1.3990   -0.8420 os        1 PH5     -0.433600
     17 C7          0.0020   -3.0270   -2.5870 c3        1 PH5      0.094100
     18 O7         -1.2860   -3.1330   -3.1630 oh        1 PH5     -0.633800
     19 C8          0.2120   -3.9850   -1.4000 c3        1 PH5      0.094100
     20 O8          1.5350   -3.8820   -0.9190 oh        1 PH5     -0.614800
     21 C9          0.0340   -5.4390   -1.8540 c3        1 PH5      0.136400
     22 O9          0.0660   -6.3170   -0.7530 oh        1 PH5     -0.596800
     23 CB          0.3800   -0.9690    1.9560 c3        1 PH5      0.177700
     24 CG         -0.4910   -1.1240    3.1570 ca        1 PH5     -0.079300
     25 CD1        -1.8650   -0.8660    3.1220 ca        1 PH5     -0.120500
     26 CD2         0.0980   -1.5650    4.3500 ca        1 PH5     -0.120500
     27 CE1        -2.6410   -1.0470    4.2670 ca        1 PH5     -0.133500
     28 CE2        -0.6820   -1.7490    5.4890 ca        1 PH5     -0.133500
     29 CZ         -2.0530   -1.4900    5.4500 ca        1 PH5     -0.136000
     30 H3C1        0.1120    1.9700   -0.6700 hc        1 PH5      0.082700
     31 H3C2       -1.4450    1.0370   -0.8880 hc        1 PH5      0.082700
     32 H4          1.0910    1.0650   -2.6900 h1        1 PH5      0.137700
     33 HA         -1.4710    2.1560   -2.8700 ho        1 PH5      0.429000
     34 H5         -1.5480   -0.6440   -2.9220 hx        1 PH5      0.117700
     35 HB         -0.4900   -1.6790   -4.7220 hn        1 PH5      0.459300
     36 H111        0.4620    2.0200   -5.2910 hc        1 PH5      0.107200
     37 H112        1.1170    0.7170   -6.3850 hc        1 PH5      0.107200
     38 H121       -0.7210    1.1520   -8.0400 hc        1 PH5      0.063033
     39 H122        0.2150    2.6650   -7.6770 hc        1 PH5      0.063033
     40 H123       -1.4270    2.4090   -6.9420 hc        1 PH5      0.063033
     41 H6          1.4100   -1.4160   -2.1950 h1        1 PH5      0.103700
     42 H7          0.7080   -3.3100   -3.4190 h1        1 PH5      0.067700
     43 HC         -1.9290   -3.1670   -2.4420 ho        1 PH5      0.433000
     44 H8         -0.5280   -3.7380   -0.5870 h1        1 PH5      0.074700
     45 HD          1.6210   -3.0370   -0.4360 ho        1 PH5      0.466000
     46 H9C1       -0.9780   -5.5750   -2.3200 h1        1 PH5      0.049700
     47 H9C2        0.8380   -5.7090   -2.5900 h1        1 PH5      0.049700
     48 H9          0.8920   -6.1450   -0.2790 ho        1 PH5      0.422000
     49 HBC1        1.3420   -0.4470    2.2160 h1        1 PH5      0.070700
     50 HBC2        0.6250   -1.9720    1.5100 h1        1 PH5      0.070700
     51 HD1        -2.3260   -0.5140    2.1870 ha        1 PH5      0.139500
     52 HD2         1.1790   -1.7660    4.3810 ha        1 PH5      0.139500
     53 HE1        -3.7200   -0.8400    4.2340 ha        1 PH5      0.126500
     54 HE2        -0.2140   -2.0970    6.4220 ha        1 PH5      0.126500
     55 HZ         -2.6650   -1.6340    6.3510 ha        1 PH5      0.126000
     56 H52         0.8910   -0.7320   -4.6110 hn        1 PH5      0.459300
@<TRIPOS>BOND
     1    1    2 1   
     2    1    3 1   
     3    1    4 1   
     4    4    5 1   
     5    4    6 1   
     6    4   16 1   
     7    5   23 1   
     8    6    7 1   
     9    6   30 1   
    10    6   31 1   
    11    7    8 1   
    12    7    9 1   
    13    7   32 1   
    14    8   33 1   
    15    9   10 1   
    16    9   15 1   
    17    9   34 1   
    18   10   11 1   
    19   10   35 1   
    20   10   56 1   
    21   11   12 2   
    22   11   13 1   
    23   13   14 1   
    24   13   36 1   
    25   13   37 1   
    26   14   38 1   
    27   14   39 1   
    28   14   40 1   
    29   15   16 1   
    30   15   17 1   
    31   15   41 1   
    32   17   18 1   
    33   17   19 1   
    34   17   42 1   
    35   18   43 1   
    36   19   20 1   
    37   19   21 1   
    38   19   44 1   
    39   20   45 1   
    40   21   22 1   
    41   21   46 1   
    42   21   47 1   
    43   22   48 1   
    44   23   24 1   
    45   23   49 1   
    46   23   50 1   
    47   24   25 ar  
    48   24   26 ar  
    49   25   27 ar  
    50   25   51 1   
    51   26   28 ar  
    52   26   52 1   
    53   27   29 ar  
    54   27   53 1   
    55   28   29 ar  
    56   28   54 1   
    57   29   55 1   
@<TRIPOS>SUBSTRUCTURE
     1 PH5         1 TEMP              0 ****  ****    0 ROOT
