@<TRIPOS>MOLECULE
PH7
   43    36     1     0     0
SMALL
bcc


@<TRIPOS>ATOM
      1 C1          2.8980   -0.7810   -0.5030 c1        1 PH7     -0.175000
      2 C2          2.4680   -0.1400   -1.6080 c1        1 PH7     -0.043000
      3 N           1.2200    0.5350   -1.5960 n2        1 PH7     -0.280000
      4 C           0.2970    0.3380   -2.6560 c2        1 PH7      0.330000
      5 O          -0.2040   -0.7550   -2.8300 o         1 PH7     -0.356000
      6 CB2         2.0500   -0.7810    0.7510 c1        1 PH7      0.028000
      7 CB3         1.9300    0.3760    1.5040 c1        1 PH7     -0.113000
      8 CB6         0.6800   -0.8300    3.1610 c1        1 PH7      0.055000
      9 CB1         1.4850   -1.9630    1.2030 c2        1 PH7     -0.125000
     10 CB5         0.8010   -1.9880    2.4080 c1        1 PH7     -0.132000
     11 CA1        -1.2730   -1.2690    4.2800 c1        1 PH7      0.055000
     12 CA2        -1.6890   -2.5020    4.7570 c1        1 PH7     -0.205000
     13 CA3        -3.0180   -2.8770    4.6400 c1        1 PH7     -0.087000
     14 CA4        -3.9310   -2.0200    4.0470 c1        1 PH7     -0.133500
     15 CA5        -3.5150   -0.7870    3.5690 c1        1 PH7     -0.133500
     16 CA6        -2.1860   -0.4120    3.6860 c1        1 PH7     -0.159500
     17 CD2         3.3150   -0.1400   -2.8610 c2        1 PH7      0.353000
     18 OC1         3.8140    0.9350   -3.2830 o         1 PH7     -0.552500
     19 OC2         3.5400   -1.2200   -3.4680 o         1 PH7     -0.552500
     20 CC1        -0.0740    1.4940   -3.5590 c2        1 PH7     -0.127000
     21 CC2        -0.8900    2.5090   -3.0850 c2        1 PH7     -0.088000
     22 CC3        -1.2690    3.5430   -3.9250 c1        1 PH7     -0.156000
     23 CC4        -0.8320    3.5630   -5.2400 c1        1 PH7     -0.133500
     24 CC5        -0.0160    2.5480   -5.7150 c1        1 PH7     -0.133500
     25 CC6         0.3620    1.5130   -4.8740 c1        1 PH7     -0.095000
     26 CB4         1.2450    0.3520    2.7080 c1        1 PH7     -0.159500
     27 OAB         0.0670   -0.8760    4.4240 os        1 PH7     -0.152000
     28 BRA2       -0.4440   -3.6540    5.6390 br        1 PH7      0.050000
     29 H1          3.7570   -1.2460   -0.5110 ha        1 PH7      0.164000
     30 HN          1.0280    1.1260   -0.9290 hn        1 PH7      0.223000
     31 HB3         2.3430    1.2050    1.1940 ha        1 PH7      0.149000
     32 HB1         1.5800   -2.7810    0.6790 ha        1 PH7      0.138000
     33 HB5         0.4190   -2.8250    2.7350 ha        1 PH7      0.134000
     34 HA3        -3.3120   -3.7430    4.9830 ha        1 PH7      0.136000
     35 HA4        -4.8670   -2.2850    3.9640 ha        1 PH7      0.128000
     36 HA5        -4.1570   -0.1860    3.1460 ha        1 PH7      0.128000
     37 HA6        -1.8930    0.4570    3.3500 ha        1 PH7      0.154000
     38 HC2        -1.1980    2.4950   -2.1580 ha        1 PH7      0.142000
     39 HC3        -1.8440    4.2580   -3.5910 ha        1 PH7      0.120000
     40 HC4        -1.0830    4.3030   -5.8270 ha        1 PH7      0.128000
     41 HC5         0.2760    2.5520   -6.6460 ha        1 PH7      0.128000
     42 HC6         0.9370    0.7990   -5.2090 ha        1 PH7      0.195000
     43 HB4         1.1790    1.1620    3.2480 ha        1 PH7      0.154000
@<TRIPOS>BOND
     1    1    2 1   
     2    1   29 1   
     3    2   17 1   
     4    3    4 1   
     5    3   30 1   
     6    4    5 1   
     7    4   20 1   
     8    6    7 1   
     9    6    9 1   
    10    7   31 1   
    11    8   26 1   
    12    8   27 1   
    13    9   10 1   
    14    9   32 1   
    15   10   33 1   
    16   11   16 1   
    17   11   27 1   
    18   12   13 1   
    19   12   28 1   
    20   13   34 1   
    21   14   15 1   
    22   14   35 1   
    23   15   36 1   
    24   16   37 1   
    25   17   18 1   
    26   17   19 1   
    27   20   21 1   
    28   20   25 1   
    29   21   22 1   
    30   21   38 1   
    31   22   39 1   
    32   23   24 1   
    33   23   40 1   
    34   24   41 1   
    35   25   42 1   
    36   26   43 1   
@<TRIPOS>SUBSTRUCTURE
     1 PH7         1 TEMP              0 ****  ****    0 ROOT
