@<TRIPOS>MOLECULE
PH7
   44    46     1     0     0
SMALL
bcc


@<TRIPOS>ATOM
      1 C1          0.5880   -0.3630    0.8540 ce        1 PH7     -0.038200
      2 C2          1.6880   -1.1200    0.9770 cf        1 PH7     -0.166200
      3 N           2.0470   -1.9140    2.1510 n4        1 PH7     -0.543600
      4 C           2.4790   -1.1560    3.3670 c         1 PH7      0.574700
      5 O           1.9070   -1.4920    4.4070 o         1 PH7     -0.490100
      6 CB2        -0.4730   -0.1290    1.8200 ca        1 PH7     -0.133800
      7 CB3        -1.7900   -0.4740    1.4700 ca        1 PH7     -0.087000
      8 CB6        -2.5750    0.3740    3.5820 ca        1 PH7      0.133100
      9 CB1        -0.2300    0.4840    3.0540 ca        1 PH7     -0.087000
     10 CB5        -1.2740    0.7390    3.9400 ca        1 PH7     -0.161000
     11 CA1        -3.5290    1.3790    5.5020 ca        1 PH7      0.105100
     12 CA2        -3.6180    2.7750    5.3760 ca        1 PH7     -0.037900
     13 CA3        -3.6050    3.5510    6.5410 ca        1 PH7     -0.099000
     14 CA4        -3.5070    2.9510    7.7950 ca        1 PH7     -0.130000
     15 CA5        -3.4210    1.5630    7.9070 ca        1 PH7     -0.110000
     16 CA6        -3.4270    0.7710    6.7630 ca        1 PH7     -0.129000
     17 CD2         2.6670   -1.3310   -0.2280 c         1 PH7      0.930800
     18 OC1         2.4300   -0.6740   -1.2550 o         1 PH7     -0.764300
     19 OC2         3.5940   -2.1650   -0.0110 o         1 PH7     -0.764300
     20 CC1         3.5180   -0.1300    3.2540 ca        1 PH7     -0.185600
     21 CC2         3.5330    0.8650    4.2510 ca        1 PH7     -0.064500
     22 CC3         4.5020    1.8610    4.2230 ca        1 PH7     -0.140500
     23 CC4         5.4650    1.8710    3.2100 ca        1 PH7     -0.074000
     24 CC5         5.4570    0.8810    2.2280 ca        1 PH7     -0.140500
     25 CC6         4.4860   -0.1220    2.2420 ca        1 PH7     -0.064500
     26 CB4        -2.8430   -0.2340    2.3420 ca        1 PH7     -0.161000
     27 OAB        -3.6820    0.5250    4.4080 os        1 PH7     -0.244200
     28 BRA2       -3.7620    3.6380    3.7220 br        1 PH7     -0.058100
     29 H1          0.4550    0.1280   -0.1370 ha        1 PH7      0.201000
     30 HN          1.2680   -2.5300    2.4070 hn        1 PH7      0.471300
     31 HB3        -1.9880   -0.9350    0.4890 ha        1 PH7      0.139500
     32 HB1         0.7950    0.7810    3.3290 ha        1 PH7      0.139500
     33 HB5        -1.0780    1.2250    4.9070 ha        1 PH7      0.154500
     34 HA3        -3.6770    4.6490    6.4700 ha        1 PH7      0.152000
     35 HA4        -3.5020    3.5780    8.7000 ha        1 PH7      0.143000
     36 HA5        -3.3490    1.0920    8.8990 ha        1 PH7      0.143000
     37 HA6        -3.3690   -0.3250    6.8290 ha        1 PH7      0.156000
     38 HC2         2.7740    0.8440    5.0500 ha        1 PH7      0.175500
     39 HC3         4.5090    2.6410    4.9980 ha        1 PH7      0.153000
     40 HC4         6.2300    2.6620    3.1890 ha        1 PH7      0.146000
     41 HC5         6.2130    0.8870    1.4270 ha        1 PH7      0.153000
     42 HC6         4.5010   -0.8900    1.4420 ha        1 PH7      0.175500
     43 HB4        -3.8760   -0.5050    2.0800 ha        1 PH7      0.154500
     44 HN3         2.8590   -2.5010    1.8230 hn        1 PH7      0.471300
@<TRIPOS>BOND
     1    1    2 2   
     2    1    6 1   
     3    1   29 1   
     4    2    3 1   
     5    2   17 1   
     6    3    4 1   
     7    3   30 1   
     8    3   44 1   
     9    4    5 2   
    10    4   20 1   
    11    6    7 ar  
    12    6    9 ar  
    13    7   26 ar  
    14    7   31 1   
    15    8   10 ar  
    16    8   26 ar  
    17    8   27 1   
    18    9   10 ar  
    19    9   32 1   
    20   10   33 1   
    21   11   12 ar  
    22   11   16 ar  
    23   11   27 1   
    24   12   13 ar  
    25   12   28 1   
    26   13   14 ar  
    27   13   34 1   
    28   14   15 ar  
    29   14   35 1   
    30   15   16 ar  
    31   15   36 1   
    32   16   37 1   
    33   17   18 1   
    34   17   19 1   
    35   20   21 ar  
    36   20   25 ar  
    37   21   22 ar  
    38   21   38 1   
    39   22   23 ar  
    40   22   39 1   
    41   23   24 ar  
    42   23   40 1   
    43   24   25 ar  
    44   24   41 1   
    45   25   42 1   
    46   26   43 1   
@<TRIPOS>SUBSTRUCTURE
     1 PH7         1 TEMP              0 ****  ****    0 ROOT
