@<TRIPOS>MOLECULE
PH7
   44    46     1     0     0
SMALL
bcc


@<TRIPOS>ATOM
      1 C1          0.6720   -0.4550    0.8950 ce        1 PH7     -0.038200
      2 C2          1.7910   -1.1730    1.0690 cf        1 PH7     -0.166200
      3 N           2.1480   -1.9110    2.2800 n4        1 PH7     -0.543600
      4 C           2.5310   -1.0960    3.4750 c         1 PH7      0.574700
      5 O           1.9480   -1.4100    4.5140 o         1 PH7     -0.490100
      6 CB2        -0.4160   -0.2170    1.8300 ca        1 PH7     -0.133800
      7 CB3        -1.7150   -0.6130    1.4650 ca        1 PH7     -0.087000
      8 CB6        -2.5700    0.2880    3.5270 ca        1 PH7      0.133100
      9 CB1        -0.2180    0.4480    3.0440 ca        1 PH7     -0.087000
     10 CB5        -1.2880    0.7040    3.8990 ca        1 PH7     -0.161000
     11 CA1        -3.5930    1.3340    5.3890 ca        1 PH7      0.105100
     12 CA2        -3.7170    2.7210    5.2100 ca        1 PH7     -0.037900
     13 CA3        -3.7520    3.5390    6.3470 ca        1 PH7     -0.099000
     14 CA4        -3.6660    2.9870    7.6230 ca        1 PH7     -0.130000
     15 CA5        -3.5450    1.6070    7.7880 ca        1 PH7     -0.110000
     16 CA6        -3.5030    0.7750    6.6730 ca        1 PH7     -0.129000
     17 CD2         2.8010   -1.4000   -0.1070 c         1 PH7      0.930800
     18 OC1         2.5670   -0.7890   -1.1630 o         1 PH7     -0.764300
     19 OC2         3.7470   -2.1960    0.1610 o         1 PH7     -0.764300
     20 CC1         3.5420   -0.0430    3.3430 ca        1 PH7     -0.185600
     21 CC2         3.5060    0.9870    4.3020 ca        1 PH7     -0.064500
     22 CC3         4.4450    2.0100    4.2560 ca        1 PH7     -0.140500
     23 CC4         5.4290    2.0120    3.2630 ca        1 PH7     -0.074000
     24 CC5         5.4720    0.9870    2.3200 ca        1 PH7     -0.140500
     25 CC6         4.5310   -0.0440    2.3520 ca        1 PH7     -0.064500
     26 CB4        -2.7930   -0.3720    2.3060 ca        1 PH7     -0.161000
     27 OAB        -3.6990    0.4380    4.3240 os        1 PH7     -0.244200
     28 BRA2       -3.8480    3.5210    3.5240 br        1 PH7     -0.058100
     29 H1          0.5460   -0.0050   -0.1170 ha        1 PH7      0.201000
     30 HN          1.3810   -2.5410    2.5430 hn        1 PH7      0.471300
     31 HB3        -1.8780   -1.1150    0.4990 ha        1 PH7      0.139500
     32 HB1         0.7920    0.7850    3.3300 ha        1 PH7      0.139500
     33 HB5        -1.1270    1.2320    4.8510 ha        1 PH7      0.154500
     34 HA3        -3.8520    4.6310    6.2350 ha        1 PH7      0.152000
     35 HA4        -3.6970    3.6450    8.5050 ha        1 PH7      0.143000
     36 HA5        -3.4820    1.1730    8.7970 ha        1 PH7      0.143000
     37 HA6        -3.4170   -0.3170    6.7800 ha        1 PH7      0.156000
     38 HC2         2.7310    0.9740    5.0860 ha        1 PH7      0.175500
     39 HC3         4.4120    2.8190    5.0010 ha        1 PH7      0.153000
     40 HC4         6.1710    2.8250    3.2270 ha        1 PH7      0.146000
     41 HC5         6.2440    0.9850    1.5350 ha        1 PH7      0.153000
     42 HC6         4.5850   -0.8410    1.5820 ha        1 PH7      0.175500
     43 HB4        -3.8120   -0.6830    2.0320 ha        1 PH7      0.154500
     44 HN3         2.9830   -2.4860    1.9910 hn        1 PH7      0.471300
@<TRIPOS>BOND
     1    1    2 2   
     2    1    6 1   
     3    1   29 1   
     4    2    3 1   
     5    2   17 1   
     6    3    4 1   
     7    3   30 1   
     8    3   44 1   
     9    4    5 2   
    10    4   20 1   
    11    6    7 ar  
    12    6    9 ar  
    13    7   26 ar  
    14    7   31 1   
    15    8   10 ar  
    16    8   26 ar  
    17    8   27 1   
    18    9   10 ar  
    19    9   32 1   
    20   10   33 1   
    21   11   12 ar  
    22   11   16 ar  
    23   11   27 1   
    24   12   13 ar  
    25   12   28 1   
    26   13   14 ar  
    27   13   34 1   
    28   14   15 ar  
    29   14   35 1   
    30   15   16 ar  
    31   15   36 1   
    32   16   37 1   
    33   17   18 1   
    34   17   19 1   
    35   20   21 ar  
    36   20   25 ar  
    37   21   22 ar  
    38   21   38 1   
    39   22   23 ar  
    40   22   39 1   
    41   23   24 ar  
    42   23   40 1   
    43   24   25 ar  
    44   24   41 1   
    45   25   42 1   
    46   26   43 1   
@<TRIPOS>SUBSTRUCTURE
     1 PH7         1 TEMP              0 ****  ****    0 ROOT
