@<TRIPOS>MOLECULE
PH7
   43    45     1     0     0
SMALL
bcc


@<TRIPOS>ATOM
      1 C1         -9.6810   55.4360   47.0000 ce        1 PH7     -0.188200
      2 C2         -8.7070   54.7880   47.6690 cf        1 PH7     -0.046600
      3 N          -8.6490   54.5590   49.0600 n         1 PH7     -0.442100
      4 C          -8.6560   55.5280   50.0440 c         1 PH7      0.657700
      5 O          -8.9390   56.7300   49.8540 o         1 PH7     -0.623100
      6 CB2       -10.8900   56.0630   47.5110 ca        1 PH7      0.002200
      7 CB3       -12.0980   55.3490   47.4990 ca        1 PH7     -0.110000
      8 CB6       -13.2520   57.2700   48.3670 ca        1 PH7      0.040100
      9 CB1       -10.8850   57.3950   47.9540 ca        1 PH7     -0.110000
     10 CB5       -12.0610   58.0050   48.3830 ca        1 PH7     -0.139500
     11 CA1       -14.7590   58.0460   50.0160 ca        1 PH7      0.166100
     12 CA2       -15.9990   58.6330   50.3410 ca        1 PH7     -0.064900
     13 CA3       -16.3280   58.8060   51.6900 ca        1 PH7     -0.086000
     14 CA4       -15.4540   58.4080   52.6970 ca        1 PH7     -0.178000
     15 CA5       -14.2280   57.8280   52.3660 ca        1 PH7     -0.085000
     16 CA6       -13.8770   57.6460   51.0350 ca        1 PH7     -0.188000
     17 CD2        -7.5860   54.0870   46.8450 c         1 PH7      0.907800
     18 OC1        -7.4600   54.4280   45.6420 o         1 PH7     -0.813800
     19 OC2        -6.8930   53.2160   47.4410 o         1 PH7     -0.813800
     20 CC1        -8.3380   55.0610   51.4350 ca        1 PH7     -0.126600
     21 CC2        -7.6340   55.9310   52.2760 ca        1 PH7     -0.090500
     22 CC3        -7.3280   55.5470   53.5800 ca        1 PH7     -0.147000
     23 CC4        -7.7280   54.2970   54.0520 ca        1 PH7     -0.126000
     24 CC5        -8.4370   53.4320   53.2190 ca        1 PH7     -0.147000
     25 CC6        -8.7420   53.8100   51.9110 ca        1 PH7     -0.090500
     26 CB4       -13.2820   55.9410   47.9310 ca        1 PH7     -0.139500
     27 OAB       -14.4690   57.8950   48.6730 os        1 PH7     -0.242200
     28 BRA2      -17.2390   59.1980   49.0530 br        1 PH7     -0.090100
     29 H1         -9.5660   55.4880   45.8990 ha        1 PH7      0.169000
     30 HN         -8.0980   53.7400   49.2650 hn        1 PH7      0.335500
     31 HB3       -12.1040   54.3060   47.1470 ha        1 PH7      0.150500
     32 HB1        -9.9300   57.9430   47.9960 ha        1 PH7      0.150500
     33 HB5       -12.0610   59.0460   48.7330 ha        1 PH7      0.135000
     34 HA3       -17.2920   59.2630   51.9620 ha        1 PH7      0.136000
     35 HA4       -15.7300   58.5510   53.7510 ha        1 PH7      0.128000
     36 HA5       -13.5330   57.5130   53.1600 ha        1 PH7      0.135000
     37 HA6       -12.9070   57.1930   50.7690 ha        1 PH7      0.171000
     38 HC2        -7.3360   56.9210   51.8940 ha        1 PH7      0.149500
     39 HC3        -6.7700   56.2300   54.2360 ha        1 PH7      0.125500
     40 HC4        -7.4850   53.9930   55.0810 ha        1 PH7      0.120000
     41 HC5        -8.7550   52.4480   53.5900 ha        1 PH7      0.125500
     42 HC6        -9.3050   53.1200   51.2630 ha        1 PH7      0.149500
     43 HB4       -14.2290   55.3850   47.9240 ha        1 PH7      0.135000
@<TRIPOS>BOND
     1    1    2 2   
     2    1    6 1   
     3    1   29 1   
     4    2    3 1   
     5    2   17 1   
     6    3    4 1   
     7    3   30 1   
     8    4    5 2   
     9    4   20 1   
    10    6    7 ar  
    11    6    9 ar  
    12    7   26 ar  
    13    7   31 1   
    14    8   10 ar  
    15    8   26 ar  
    16    8   27 1   
    17    9   10 ar  
    18    9   32 1   
    19   10   33 1   
    20   11   12 ar  
    21   11   16 ar  
    22   11   27 1   
    23   12   13 ar  
    24   12   28 1   
    25   13   14 ar  
    26   13   34 1   
    27   14   15 ar  
    28   14   35 1   
    29   15   16 ar  
    30   15   36 1   
    31   16   37 1   
    32   17   18 1   
    33   17   19 1   
    34   20   21 ar  
    35   20   25 ar  
    36   21   22 ar  
    37   21   38 1   
    38   22   23 ar  
    39   22   39 1   
    40   23   24 ar  
    41   23   40 1   
    42   24   25 ar  
    43   24   41 1   
    44   25   42 1   
    45   26   43 1   
@<TRIPOS>SUBSTRUCTURE
     1 PH7         1 TEMP              0 ****  ****    0 ROOT
