@<TRIPOS>MOLECULE
PH7
   44    46     1     0     0
SMALL
bcc


@<TRIPOS>ATOM
      1 C1          0.7140    1.3120    1.0890 ce        1 PH7     -0.038200
      2 C2          1.6610    0.5420    0.5320 cf        1 PH7     -0.165200
      3 N           1.8660   -0.8770    0.8220 ny        1 PH7     -0.544600
      4 C           2.3620   -1.1990    2.1980 c         1 PH7      0.577700
      5 O           1.6490   -1.9840    2.8250 o         1 PH7     -0.488100
      6 CB2        -0.2910    0.9250    2.0650 ca        1 PH7     -0.131800
      7 CB3        -1.2040   -0.1050    1.7940 ca        1 PH7     -0.087500
      8 CB6        -2.2590    0.2650    3.9260 ca        1 PH7      0.134100
      9 CB1        -0.3890    1.6320    3.2720 ca        1 PH7     -0.087500
     10 CB5        -1.3620    1.3000    4.2110 ca        1 PH7     -0.160000
     11 CA1        -3.5510    0.6670    5.8680 ca        1 PH7      0.105100
     12 CA2        -4.3970    1.7770    5.7090 ca        1 PH7     -0.037900
     13 CA3        -4.7830    2.4900    6.8510 ca        1 PH7     -0.097000
     14 CA4        -4.3390    2.1050    8.1140 ca        1 PH7     -0.130000
     15 CA5        -3.5010    0.9990    8.2590 ca        1 PH7     -0.110000
     16 CA6        -3.1000    0.2780    7.1380 ca        1 PH7     -0.130000
     17 CD2         2.6120    1.0880   -0.5850 c         1 PH7      0.930800
     18 OC1         2.5170    2.2990   -0.8490 o         1 PH7     -0.764300
     19 OC2         3.3750    0.2180   -1.0950 o         1 PH7     -0.764300
     20 CC1         3.6170   -0.6120    2.6750 ca        1 PH7     -0.183600
     21 CC2         4.5880   -0.0600    1.8300 ca        1 PH7     -0.062500
     22 CC3         5.7630    0.4550    2.3770 ca        1 PH7     -0.143000
     23 CC4         5.9740    0.4270    3.7550 ca        1 PH7     -0.073000
     24 CC5         5.0080   -0.1260    4.5990 ca        1 PH7     -0.143000
     25 CC6         3.8340   -0.6470    4.0670 ca        1 PH7     -0.062500
     26 CB4        -2.1920   -0.4400    2.7120 ca        1 PH7     -0.160000
     27 OAB        -3.2360   -0.1830    4.8070 os        1 PH7     -0.244200
     28 BrA2       -5.0360    2.3370    4.0410 br        1 PH7     -0.058100
     29 H1          0.6960    2.3740    0.7580 ha        1 PH7      0.200000
     30 HN          0.9940   -1.3930    0.6590 hn        1 PH7      0.468800
     31 HB3        -1.1630   -0.6360    0.8300 ha        1 PH7      0.137500
     32 HB1         0.3120    2.4560    3.4800 ha        1 PH7      0.137500
     33 HB5        -1.4330    1.8530    5.1590 ha        1 PH7      0.154500
     34 HA3        -5.4480    3.3640    6.7540 ha        1 PH7      0.153000
     35 HA4        -4.6550    2.6760    9.0000 ha        1 PH7      0.143000
     36 HA5        -3.1560    0.6940    9.2590 ha        1 PH7      0.143000
     37 HA6        -2.4470   -0.6020    7.2310 ha        1 PH7      0.155000
     38 HC2         4.4500   -0.0130    0.7300 ha        1 PH7      0.177000
     39 HC3         6.5210    0.8920    1.7080 ha        1 PH7      0.152000
     40 HC4         6.9020    0.8410    4.1790 ha        1 PH7      0.145000
     41 HC5         5.1740   -0.1510    5.6870 ha        1 PH7      0.152000
     42 HC6         3.0700   -1.0910    4.7250 ha        1 PH7      0.177000
     43 HB4        -2.9170   -1.2400    2.5050 ha        1 PH7      0.154500
     44 HN3         2.5880   -1.1830    0.1200 hn        1 PH7      0.468800
@<TRIPOS>BOND
     1    1    2 2   
     2    1    6 1   
     3    1   29 1   
     4    2    3 1   
     5    2   17 1   
     6    3    4 1   
     7    3   30 1   
     8    3   44 1   
     9    4    5 2   
    10    4   20 1   
    11    6    7 ar  
    12    6    9 ar  
    13    7   26 ar  
    14    7   31 1   
    15    8   10 ar  
    16    8   26 ar  
    17    8   27 1   
    18    9   10 ar  
    19    9   32 1   
    20   10   33 1   
    21   11   12 ar  
    22   11   16 ar  
    23   11   27 1   
    24   12   13 ar  
    25   12   28 1   
    26   13   14 ar  
    27   13   34 1   
    28   14   15 ar  
    29   14   35 1   
    30   15   16 ar  
    31   15   36 1   
    32   16   37 1   
    33   17   18 1   
    34   17   19 1   
    35   20   21 ar  
    36   20   25 ar  
    37   21   22 ar  
    38   21   38 1   
    39   22   23 ar  
    40   22   39 1   
    41   23   24 ar  
    42   23   40 1   
    43   24   25 ar  
    44   24   41 1   
    45   25   42 1   
    46   26   43 1   
@<TRIPOS>SUBSTRUCTURE
     1 PH7         1 TEMP              0 ****  ****    0 ROOT
