@<TRIPOS>MOLECULE
PH9
   60    64     1     0     0
SMALL
bcc


@<TRIPOS>ATOM
      1 CB2        -0.2070    0.6660    0.8020 ca        1 PH9     -0.143300
      2 CB3         0.2510   -0.6380    0.5660 ca        1 PH9     -0.104000
      3 CB4         1.1490   -1.2450    1.4350 ca        1 PH9     -0.158500
      4 CB6         1.6020   -0.5270    2.5550 ca        1 PH9      0.127100
      5 CB5         1.1660    0.7790    2.8010 ca        1 PH9     -0.158500
      6 CB1         0.2610    1.3670    1.9190 ca        1 PH9     -0.104000
      7 C2         -2.5950    0.8040    0.0240 c3        1 PH9     -0.046500
      8 C1         -1.1640    1.3050   -0.1380 c3        1 PH9     -0.046100
      9 N          -3.1100    0.9840    1.4260 ny        1 PH9     -0.663800
     10 C          -3.8780   -0.1940    1.9270 c         1 PH9      0.554100
     11 CO2        -3.5060    1.6420   -0.9890 c         1 PH9      0.926600
     12 O          -3.2520   -0.9460    2.6700 o         1 PH9     -0.470100
     13 OC1        -3.4960    1.2380   -2.1640 o         1 PH9     -0.764300
     14 OC2        -4.1390    2.5990   -0.4680 o         1 PH9     -0.764300
     15 OAB         2.5370   -1.1960    3.3380 os        1 PH9     -0.244200
     16 CA1         2.8040   -0.6470    4.5920 ca        1 PH9      0.108100
     17 CA2         1.9460   -0.8350    5.6880 ca        1 PH9     -0.040900
     18 CA3         2.3610   -0.3810    6.9460 ca        1 PH9     -0.099000
     19 CA4         3.5980    0.2410    7.1060 ca        1 PH9     -0.131000
     20 CA5         4.4420    0.4210    6.0100 ca        1 PH9     -0.109000
     21 CA6         4.0480   -0.0180    4.7490 ca        1 PH9     -0.129000
     22 BrA2        0.2780   -1.6710    5.5400 br        1 PH9     -0.062100
     23 CC4        -8.1900   -0.2820    2.1570 c3        1 PH9     -0.077733
     24 CC3        -7.4210   -1.5990    2.1450 c3        1 PH9     -0.056367
     25 CC5        -7.5640    0.6770    1.1520 c3        1 PH9     -0.056367
     26 CC2        -5.9700   -1.3390    2.5290 c3        1 PH9     -0.081733
     27 CC6        -6.1080    0.9490    1.5210 c3        1 PH9     -0.081733
     28 CC1        -5.3310   -0.3710    1.5180 c3        1 PH9     -0.100000
     29 C10        -7.6200    0.0660   -0.2450 c3        1 PH9     -0.077733
     30 CC8        -6.8510   -1.2510   -0.2530 c3        1 PH9     -0.056367
     31 CC9        -7.4750   -2.2140    0.7510 c3        1 PH9     -0.077733
     32 CC7        -5.3930   -0.9910    0.1150 c3        1 PH9     -0.081733
     33 HB3        -0.1050   -1.1860   -0.3210 ha        1 PH9      0.138000
     34 HB4         1.5120   -2.2680    1.2600 ha        1 PH9      0.152500
     35 HB5         1.5350    1.3340    3.6750 ha        1 PH9      0.152500
     36 HB1        -0.0680    2.4020    2.0970 ha        1 PH9      0.138000
     37 H2         -2.6550   -0.2870   -0.2380 hx        1 PH9      0.091700
     38 H11        -1.1430    2.4230   -0.0220 hc        1 PH9      0.089200
     39 H12        -0.8790    1.0800   -1.2040 hc        1 PH9      0.089200
     40 HN         -3.7250    1.8270    1.3920 hn        1 PH9      0.462800
     41 HA3         1.7080   -0.5200    7.8230 ha        1 PH9      0.151000
     42 HA4         3.9080    0.5880    8.1020 ha        1 PH9      0.143000
     43 HA5         5.4200    0.9090    6.1390 ha        1 PH9      0.143000
     44 HA6         4.7020    0.1070    3.8730 ha        1 PH9      0.157000
     45 HC3        -7.8730   -2.3080    2.8880 hc        1 PH9      0.063367
     46 HC5        -8.1250    1.6500    1.1590 hc        1 PH9      0.063367
     47 HC21       -5.9180   -0.8950    3.5560 hc        1 PH9      0.066200
     48 HC22       -5.3970   -2.3020    2.5380 hc        1 PH9      0.066200
     49 HC61       -6.0540    1.4190    2.5350 hc        1 PH9      0.066200
     50 HC62       -5.6870    1.6650    0.7600 hc        1 PH9      0.066200
     51 H101       -7.1720    0.7740   -0.9890 hc        1 PH9      0.051033
     52 H102       -8.6860   -0.1170   -0.5360 hc        1 PH9      0.051033
     53 HC8        -6.8870   -1.7010   -1.2820 hc        1 PH9      0.063367
     54 HC91       -6.9220   -3.1880    0.7430 hc        1 PH9      0.051033
     55 HC92       -8.5390   -2.4180    0.4690 hc        1 PH9      0.051033
     56 HC71       -4.9410   -0.2900   -0.6380 hc        1 PH9      0.066200
     57 HC72       -4.8190   -1.9520    0.1020 hc        1 PH9      0.066200
     58 HC42       -8.1630    0.1660    3.1830 hc        1 PH9      0.051033
     59 HN3        -2.3170    1.1610    2.0540 hn        1 PH9      0.462800
     60 HC41       -9.2610   -0.4670    1.8880 hc        1 PH9      0.051033
@<TRIPOS>BOND
     1    1    2 ar  
     2    1    6 ar  
     3    1    8 1   
     4    2    3 ar  
     5    2   33 1   
     6    3    4 ar  
     7    3   34 1   
     8    4    5 ar  
     9    4   15 1   
    10    5    6 ar  
    11    5   35 1   
    12    6   36 1   
    13    7    8 1   
    14    7    9 1   
    15    7   11 1   
    16    7   37 1   
    17    8   38 1   
    18    8   39 1   
    19    9   10 1   
    20    9   40 1   
    21    9   59 1   
    22   10   12 2   
    23   10   28 1   
    24   11   13 1   
    25   11   14 1   
    26   15   16 1   
    27   16   17 ar  
    28   16   21 ar  
    29   17   18 ar  
    30   17   22 1   
    31   18   19 ar  
    32   18   41 1   
    33   19   20 ar  
    34   19   42 1   
    35   20   21 ar  
    36   20   43 1   
    37   21   44 1   
    38   23   24 1   
    39   23   25 1   
    40   23   58 1   
    41   23   60 1   
    42   24   26 1   
    43   24   31 1   
    44   24   45 1   
    45   25   27 1   
    46   25   29 1   
    47   25   46 1   
    48   26   28 1   
    49   26   47 1   
    50   26   48 1   
    51   27   28 1   
    52   27   49 1   
    53   27   50 1   
    54   28   32 1   
    55   29   30 1   
    56   29   51 1   
    57   29   52 1   
    58   30   31 1   
    59   30   32 1   
    60   30   53 1   
    61   31   54 1   
    62   31   55 1   
    63   32   56 1   
    64   32   57 1   
@<TRIPOS>SUBSTRUCTURE
     1 PH9         1 TEMP              0 ****  ****    0 ROOT
