@<TRIPOS>MOLECULE
PH9
   59    63     1     0     0
SMALL
bcc


@<TRIPOS>ATOM
      1 CB2       -11.2090   55.3640   47.9640 ca        1 PH9     -0.048300
      2 CB3       -11.1770   56.6930   47.5150 ca        1 PH9     -0.108000
      3 CB4       -12.1630   57.6000   47.8900 ca        1 PH9     -0.151000
      4 CB6       -13.2040   57.1590   48.7190 ca        1 PH9      0.072100
      5 CB5       -13.2590   55.8410   49.1790 ca        1 PH9     -0.151000
      6 CB1       -12.2550   54.9530   48.7990 ca        1 PH9     -0.108000
      7 C2         -8.7470   54.7480   48.0180 c3        1 PH9     -0.056300
      8 C1        -10.1620   54.4020   47.5320 c3        1 PH9     -0.039100
      9 N          -8.5970   54.6110   49.4540 n         1 PH9     -0.503900
     10 C          -8.1920   55.6620   50.2480 c         1 PH9      0.648100
     11 CO2        -7.7640   53.7990   47.2280 c         1 PH9      0.906600
     12 O          -8.3050   56.8580   49.9020 o         1 PH9     -0.639100
     13 OC1        -7.6580   54.0170   45.9930 o         1 PH9     -0.828800
     14 OC2        -7.1630   52.8930   47.8690 o         1 PH9     -0.828800
     15 OAB       -14.2260   58.0860   48.9640 os        1 PH9     -0.260200
     16 CA1       -14.8160   58.0280   50.2190 ca        1 PH9      0.141100
     17 CA2       -14.1390   58.3310   51.4140 ca        1 PH9     -0.053900
     18 CA3       -14.8720   58.3620   52.6080 ca        1 PH9     -0.098000
     19 CA4       -16.2410   58.1130   52.6140 ca        1 PH9     -0.152000
     20 CA5       -16.9060   57.8230   51.4220 ca        1 PH9     -0.114000
     21 CA6       -16.1990   57.7740   50.2260 ca        1 PH9     -0.144000
     22 BRA2      -12.3070   58.6950   51.4840 br        1 PH9     -0.044100
     23 CC4        -7.8510   55.4520   54.5740 c3        1 PH9     -0.068733
     24 CC3        -6.8560   56.3140   53.8050 c3        1 PH9     -0.061700
     25 CC5        -8.0840   54.1500   53.8160 c3        1 PH9     -0.061700
     26 CC2        -7.4150   56.6210   52.4210 c3        1 PH9     -0.063400
     27 CC6        -8.6450   54.4550   52.4290 c3        1 PH9     -0.063400
     28 CC1        -7.6520   55.3190   51.6480 c3        1 PH9     -0.119000
     29 C10        -6.7630   53.4000   53.6740 c3        1 PH9     -0.068733
     30 CC8        -5.7670   54.2640   52.9060 c3        1 PH9     -0.061700
     31 CC9        -5.5350   55.5660   53.6660 c3        1 PH9     -0.068733
     32 CC7        -6.3210   54.5700   51.5190 c3        1 PH9     -0.063400
     33 HB3       -10.3440   57.0230   46.8730 ha        1 PH9      0.140000
     34 HB4       -12.1370   58.6430   47.5490 ha        1 PH9      0.133000
     35 HB5       -14.0760   55.5190   49.8380 ha        1 PH9      0.133000
     36 HB1       -12.2820   53.9160   49.1660 ha        1 PH9      0.140000
     37 H2         -8.5140   55.8100   47.7200 h1        1 PH9      0.072700
     38 H11       -10.4300   53.3650   47.8640 hc        1 PH9      0.062200
     39 H12       -10.1090   54.3940   46.4060 hc        1 PH9      0.062200
     40 HN         -8.2470   53.7060   49.7070 hn        1 PH9      0.312500
     41 HA3       -14.3600   58.5900   53.5560 ha        1 PH9      0.142000
     42 HA4       -16.7980   58.1440   53.5620 ha        1 PH9      0.129000
     43 HA5       -17.9880   57.6280   51.4270 ha        1 PH9      0.129000
     44 HA6       -16.7030   57.5480   49.2750 ha        1 PH9      0.150000
     45 HC3        -6.6860   57.2750   54.3590 hc        1 PH9      0.040033
     46 HC5        -8.8180   53.5150   54.3800 hc        1 PH9      0.040033
     47 HC21       -8.3800   57.1810   52.5070 hc        1 PH9      0.056033
     48 HC22       -6.7000   57.2660   51.8470 hc        1 PH9      0.056033
     49 HC61       -8.8330   53.4910   51.8920 hc        1 PH9      0.056033
     50 HC62       -9.6200   54.9980   52.5210 hc        1 PH9      0.056033
     51 H101       -6.3540   53.1570   54.6880 hc        1 PH9      0.033533
     52 H102       -6.9310   52.4380   53.1260 hc        1 PH9      0.033533
     53 HC8        -4.7960   53.7110   52.8030 hc        1 PH9      0.040033
     54 HC91       -4.7970   56.2000   53.1110 hc        1 PH9      0.033533
     55 HC92       -5.1120   55.3460   54.6790 hc        1 PH9      0.033533
     56 HC71       -6.4620   53.6120   50.9520 hc        1 PH9      0.056033
     57 HC72       -5.5930   55.2000   50.9470 hc        1 PH9      0.056033
     58 HC41       -7.4540   55.2310   55.5970 hc        1 PH9      0.033533
     59 HC42       -8.8190   56.0030   54.6900 hc        1 PH9      0.033533
@<TRIPOS>BOND
     1    1    2 ar  
     2    1    6 ar  
     3    1    8 1   
     4    2    3 ar  
     5    2   33 1   
     6    3    4 ar  
     7    3   34 1   
     8    4    5 ar  
     9    4   15 1   
    10    5    6 ar  
    11    5   35 1   
    12    6   36 1   
    13    7    8 1   
    14    7    9 1   
    15    7   11 1   
    16    7   37 1   
    17    8   38 1   
    18    8   39 1   
    19    9   10 1   
    20    9   40 1   
    21   10   12 2   
    22   10   28 1   
    23   11   13 1   
    24   11   14 1   
    25   15   16 1   
    26   16   17 ar  
    27   16   21 ar  
    28   17   18 ar  
    29   17   22 1   
    30   18   19 ar  
    31   18   41 1   
    32   19   20 ar  
    33   19   42 1   
    34   20   21 ar  
    35   20   43 1   
    36   21   44 1   
    37   23   24 1   
    38   23   25 1   
    39   23   58 1   
    40   23   59 1   
    41   24   26 1   
    42   24   31 1   
    43   24   45 1   
    44   25   27 1   
    45   25   29 1   
    46   25   46 1   
    47   26   28 1   
    48   26   47 1   
    49   26   48 1   
    50   27   28 1   
    51   27   49 1   
    52   27   50 1   
    53   28   32 1   
    54   29   30 1   
    55   29   51 1   
    56   29   52 1   
    57   30   31 1   
    58   30   32 1   
    59   30   53 1   
    60   31   54 1   
    61   31   55 1   
    62   32   56 1   
    63   32   57 1   
@<TRIPOS>SUBSTRUCTURE
     1 PH9         1 TEMP              0 ****  ****    0 ROOT
