@<TRIPOS>MOLECULE
PH9
   60    64     1     0     0
SMALL
bcc


@<TRIPOS>ATOM
      1 CB2        -0.2000    0.6830    0.8280 ca        1 PH9     -0.143300
      2 CB3         0.2790   -0.6190    0.6200 ca        1 PH9     -0.104000
      3 CB4         1.1730   -1.1990    1.5110 ca        1 PH9     -0.158500
      4 CB6         1.6010   -0.4550    2.6260 ca        1 PH9      0.127100
      5 CB5         1.1440    0.8480    2.8430 ca        1 PH9     -0.158500
      6 CB1         0.2420    1.4080    1.9390 ca        1 PH9     -0.104000
      7 C2         -2.5780    0.7730    0.0140 c3        1 PH9     -0.046500
      8 C1         -1.1530    1.2920   -0.1360 c3        1 PH9     -0.046100
      9 N          -3.1150    0.9680    1.4050 n4        1 PH9     -0.662800
     10 C          -3.8740   -0.2120    1.9150 c         1 PH9      0.554100
     11 CO2        -3.4870    1.5810   -1.0250 c         1 PH9      0.926600
     12 O          -3.2480   -0.9430    2.6790 o         1 PH9     -0.470100
     13 OC1        -3.4540    1.1590   -2.1930 o         1 PH9     -0.764300
     14 OC2        -4.1410    2.5370   -0.5290 o         1 PH9     -0.764300
     15 OAB         2.5340   -1.0980    3.4320 os        1 PH9     -0.244200
     16 CA1         2.7770   -0.5230    4.6800 ca        1 PH9      0.108100
     17 CA2         1.9070   -0.7040    5.7680 ca        1 PH9     -0.040900
     18 CA3         2.3010   -0.2220    7.0230 ca        1 PH9     -0.099000
     19 CA4         3.5260    0.4190    7.1860 ca        1 PH9     -0.131000
     20 CA5         4.3820    0.5910    6.0980 ca        1 PH9     -0.109000
     21 CA6         4.0110    0.1250    4.8410 ca        1 PH9     -0.129000
     22 BRA2        0.2530   -1.5650    5.6140 br        1 PH9     -0.062100
     23 CC4        -8.1870   -0.3610    2.0840 c3        1 PH9     -0.077733
     24 CC3        -7.3980   -1.6660    2.1050 c3        1 PH9     -0.056367
     25 CC5        -7.5610    0.5910    1.0730 c3        1 PH9     -0.056367
     26 CC2        -5.9570   -1.3790    2.5050 c3        1 PH9     -0.081733
     27 CC6        -6.1140    0.8910    1.4580 c3        1 PH9     -0.081733
     28 CC1        -5.3180   -0.4180    1.4880 c3        1 PH9     -0.100000
     29 C10        -7.5880   -0.0440   -0.3150 c3        1 PH9     -0.077733
     30 CC8        -6.7990   -1.3490   -0.2910 c3        1 PH9     -0.056367
     31 CC9        -7.4230   -2.3050    0.7200 c3        1 PH9     -0.077733
     32 CC7        -5.3510   -1.0620    0.0940 c3        1 PH9     -0.081733
     33 HB3        -0.0570   -1.1860   -0.2620 ha        1 PH9      0.138000
     34 HB4         1.5530   -2.2190    1.3590 ha        1 PH9      0.152500
     35 HB5         1.4920    1.4230    3.7130 ha        1 PH9      0.152500
     36 HB1        -0.1030    2.4420    2.0940 ha        1 PH9      0.138000
     37 H2         -2.6190   -0.3230   -0.2310 hx        1 PH9      0.091700
     38 H11        -0.8490    1.0540   -1.1940 hc        1 PH9      0.089200
     39 H12        -1.1490    2.4120   -0.0390 hc        1 PH9      0.089200
     40 HN         -2.3340    1.1670    2.0420 hn        1 PH9      0.462800
     41 HA3         1.6380   -0.3540    7.8940 ha        1 PH9      0.151000
     42 HA4         3.8190    0.7890    8.1810 ha        1 PH9      0.143000
     43 HA5         5.3520    1.0940    6.2310 ha        1 PH9      0.143000
     44 HA6         4.6740    0.2430    3.9700 ha        1 PH9      0.157000
     45 HC3        -7.8520   -2.3700    2.8530 hc        1 PH9      0.063367
     46 HC5        -8.1360    1.5550    1.0550 hc        1 PH9      0.063367
     47 HC21       -5.9270   -0.9180    3.5250 hc        1 PH9      0.066200
     48 HC22       -5.3700   -2.3330    2.5390 hc        1 PH9      0.066200
     49 HC61       -6.0820    1.3780    2.4650 hc        1 PH9      0.066200
     50 HC62       -5.6930    1.6000    0.6910 hc        1 PH9      0.066200
     51 H101       -8.6460   -0.2470   -0.6180 hc        1 PH9      0.051033
     52 H102       -7.1390    0.6590   -1.0640 hc        1 PH9      0.051033
     53 HC8        -6.8140   -1.8160   -1.3120 hc        1 PH9      0.063367
     54 HC91       -6.8560   -3.2700    0.7360 hc        1 PH9      0.051033
     55 HC92       -8.4800   -2.5290    0.4260 hc        1 PH9      0.051033
     56 HC71       -4.8980   -0.3660   -0.6640 hc        1 PH9      0.066200
     57 HC72       -4.7620   -2.0140    0.1050 hc        1 PH9      0.066200
     58 HC42       -8.1820    0.1040    3.1030 hc        1 PH9      0.051033
     59 HN3        -3.7420    1.8010    1.3490 hn        1 PH9      0.462800
     60 HC41       -9.2520   -0.5660    1.8030 hc        1 PH9      0.051033
@<TRIPOS>BOND
     1    1    2 ar  
     2    1    6 ar  
     3    1    8 1   
     4    2    3 ar  
     5    2   33 1   
     6    3    4 ar  
     7    3   34 1   
     8    4    5 ar  
     9    4   15 1   
    10    5    6 ar  
    11    5   35 1   
    12    6   36 1   
    13    7    8 1   
    14    7    9 1   
    15    7   11 1   
    16    7   37 1   
    17    8   38 1   
    18    8   39 1   
    19    9   10 1   
    20    9   40 1   
    21    9   59 1   
    22   10   12 2   
    23   10   28 1   
    24   11   13 1   
    25   11   14 1   
    26   15   16 1   
    27   16   17 ar  
    28   16   21 ar  
    29   17   18 ar  
    30   17   22 1   
    31   18   19 ar  
    32   18   41 1   
    33   19   20 ar  
    34   19   42 1   
    35   20   21 ar  
    36   20   43 1   
    37   21   44 1   
    38   23   24 1   
    39   23   25 1   
    40   23   58 1   
    41   23   60 1   
    42   24   26 1   
    43   24   31 1   
    44   24   45 1   
    45   25   27 1   
    46   25   29 1   
    47   25   46 1   
    48   26   28 1   
    49   26   47 1   
    50   26   48 1   
    51   27   28 1   
    52   27   49 1   
    53   27   50 1   
    54   28   32 1   
    55   29   30 1   
    56   29   51 1   
    57   29   52 1   
    58   30   31 1   
    59   30   32 1   
    60   30   53 1   
    61   31   54 1   
    62   31   55 1   
    63   32   56 1   
    64   32   57 1   
@<TRIPOS>SUBSTRUCTURE
     1 PH9         1 TEMP              0 ****  ****    0 ROOT
