@<TRIPOS>MOLECULE
PH9
   60    64     1     0     0
SMALL
bcc


@<TRIPOS>ATOM
      1 CB2        -0.2160    0.7240    0.8100 ca        1 PH9     -0.143300
      2 CB3         0.2730   -0.5690    0.5770 ca        1 PH9     -0.104000
      3 CB4         1.1820   -1.1550    1.4490 ca        1 PH9     -0.158500
      4 CB6         1.6150   -0.4250    2.5700 ca        1 PH9      0.127100
      5 CB5         1.1480    0.8710    2.8130 ca        1 PH9     -0.158500
      6 CB1         0.2310    1.4360    1.9280 ca        1 PH9     -0.104000
      7 C2         -2.6050    0.8050    0.0250 c3        1 PH9     -0.046500
      8 C1         -1.1860    1.3400   -0.1340 c3        1 PH9     -0.046100
      9 N          -3.1270    0.9740    1.4260 n4        1 PH9     -0.663800
     10 C          -3.8700   -0.2200    1.9260 c         1 PH9      0.554100
     11 CO2        -3.5330    1.6210   -0.9910 c         1 PH9      0.926600
     12 O          -3.2280   -0.9570    2.6700 o         1 PH9     -0.470100
     13 OC1        -3.5100    1.2170   -2.1650 o         1 PH9     -0.764300
     14 OC2        -4.1890    2.5630   -0.4720 o         1 PH9     -0.764300
     15 OAB         2.5620   -1.0710    3.3560 os        1 PH9     -0.244200
     16 CA1         2.8120   -0.5150    4.6110 ca        1 PH9      0.108100
     17 CA2         1.9560   -0.7210    5.7050 ca        1 PH9     -0.040900
     18 CA3         2.3570   -0.2570    6.9630 ca        1 PH9     -0.099000
     19 CA4         3.5780    0.3940    7.1250 ca        1 PH9     -0.131000
     20 CA5         4.4210    0.5920    6.0310 ca        1 PH9     -0.109000
     21 CA6         4.0410    0.1430    4.7700 ca        1 PH9     -0.129000
     22 BRA2        0.3080   -1.5970    5.5530 br        1 PH9     -0.062100
     23 CC4        -8.1780   -0.4070    2.1460 c3        1 PH9     -0.077733
     24 CC3        -7.3790   -1.7060    2.1370 c3        1 PH9     -0.056367
     25 CC5        -7.5730    0.5660    1.1420 c3        1 PH9     -0.056367
     26 CC2        -5.9360   -1.4130    2.5240 c3        1 PH9     -0.081733
     27 CC6        -6.1240    0.8710    1.5140 c3        1 PH9     -0.081733
     28 CC1        -5.3170   -0.4310    1.5140 c3        1 PH9     -0.100000
     29 C10        -7.6120   -0.0480   -0.2550 c3        1 PH9     -0.077733
     30 CC8        -6.8120   -1.3470   -0.2610 c3        1 PH9     -0.056367
     31 CC9        -7.4160   -2.3230    0.7430 c3        1 PH9     -0.077733
     32 CC7        -5.3620   -1.0530    0.1110 c3        1 PH9     -0.081733
     33 HB3        -0.0680   -1.1260   -0.3110 ha        1 PH9      0.138000
     34 HB4         1.5690   -2.1690    1.2760 ha        1 PH9      0.152500
     35 HB5         1.5000    1.4350    3.6880 ha        1 PH9      0.152500
     36 HB1        -0.1220    2.4640    2.1030 ha        1 PH9      0.138000
     37 H2         -2.6390   -0.2870   -0.2360 hx        1 PH9      0.091700
     38 H11        -0.8920    1.1190   -1.1990 hc        1 PH9      0.089200
     39 H12        -1.1900    2.4580   -0.0190 hc        1 PH9      0.089200
     40 HN         -2.3400    1.1700    2.0560 hn        1 PH9      0.462800
     41 HA3         1.7050   -0.4100    7.8380 ha        1 PH9      0.151000
     42 HA4         3.8780    0.7500    8.1220 ha        1 PH9      0.143000
     43 HA5         5.3870    1.1030    6.1620 ha        1 PH9      0.143000
     44 HA6         4.6940    0.2820    3.8950 ha        1 PH9      0.157000
     45 HC3        -7.8180   -2.4250    2.8790 hc        1 PH9      0.063367
     46 HC5        -8.1560    1.5250    1.1470 hc        1 PH9      0.063367
     47 HC21       -5.3410   -2.3620    2.5350 hc        1 PH9      0.066200
     48 HC22       -5.8970   -0.9670    3.5500 hc        1 PH9      0.066200
     49 HC61       -6.0830    1.3430    2.5280 hc        1 PH9      0.066200
     50 HC62       -5.7180    1.5960    0.7530 hc        1 PH9      0.066200
     51 H101       -7.1780    0.6700   -0.9980 hc        1 PH9      0.051033
     52 H102       -8.6720   -0.2550   -0.5480 hc        1 PH9      0.051033
     53 HC8        -6.8360   -1.7980   -1.2890 hc        1 PH9      0.063367
     54 HC91       -8.4750   -2.5520    0.4580 hc        1 PH9      0.051033
     55 HC92       -6.8410   -3.2840    0.7360 hc        1 PH9      0.051033
     56 HC71       -4.9240   -0.3430   -0.6420 hc        1 PH9      0.066200
     57 HC72       -4.7650   -2.0010    0.0990 hc        1 PH9      0.066200
     58 HC42       -8.1650    0.0420    3.1710 hc        1 PH9      0.051033
     59 HN3        -3.7610    1.8030    1.3890 hn        1 PH9      0.462800
     60 HC41       -9.2450   -0.6170    1.8750 hc        1 PH9      0.051033
@<TRIPOS>BOND
     1    1    2 ar  
     2    1    6 ar  
     3    1    8 1   
     4    2    3 ar  
     5    2   33 1   
     6    3    4 ar  
     7    3   34 1   
     8    4    5 ar  
     9    4   15 1   
    10    5    6 ar  
    11    5   35 1   
    12    6   36 1   
    13    7    8 1   
    14    7    9 1   
    15    7   11 1   
    16    7   37 1   
    17    8   38 1   
    18    8   39 1   
    19    9   10 1   
    20    9   40 1   
    21    9   59 1   
    22   10   12 2   
    23   10   28 1   
    24   11   13 1   
    25   11   14 1   
    26   15   16 1   
    27   16   17 ar  
    28   16   21 ar  
    29   17   18 ar  
    30   17   22 1   
    31   18   19 ar  
    32   18   41 1   
    33   19   20 ar  
    34   19   42 1   
    35   20   21 ar  
    36   20   43 1   
    37   21   44 1   
    38   23   24 1   
    39   23   25 1   
    40   23   58 1   
    41   23   60 1   
    42   24   26 1   
    43   24   31 1   
    44   24   45 1   
    45   25   27 1   
    46   25   29 1   
    47   25   46 1   
    48   26   28 1   
    49   26   47 1   
    50   26   48 1   
    51   27   28 1   
    52   27   49 1   
    53   27   50 1   
    54   28   32 1   
    55   29   30 1   
    56   29   51 1   
    57   29   52 1   
    58   30   31 1   
    59   30   32 1   
    60   30   53 1   
    61   31   54 1   
    62   31   55 1   
    63   32   56 1   
    64   32   57 1   
@<TRIPOS>SUBSTRUCTURE
     1 PH9         1 TEMP              0 ****  ****    0 ROOT
