@<TRIPOS>MOLECULE
PHA
   22    22     1     0     0
SMALL
bcc


@<TRIPOS>ATOM
      1 N           1.0730    0.9610    1.6350 n3        1 PHA     -0.897800
      2 CA         -0.2450    0.3680    1.6540 c3        1 PHA      0.057500
      3 C          -0.6620   -0.1030    3.0410 c         1 PHA      0.568900
      4 O           0.1190   -0.5650    3.8700 o         1 PHA     -0.518100
      5 CB         -0.4620   -0.8300    0.7040 c3        1 PHA     -0.073100
      6 CG         -0.2370   -0.4490   -0.7150 ca        1 PHA     -0.086300
      7 CD1         1.0200   -0.6280   -1.3050 ca        1 PHA     -0.128000
      8 CD2        -1.2820    0.0900   -1.4760 ca        1 PHA     -0.128000
      9 CE1         1.2280   -0.2720   -2.6370 ca        1 PHA     -0.125000
     10 CE2        -1.0700    0.4440   -2.8070 ca        1 PHA     -0.125000
     11 CZ          0.1840    0.2650   -3.3890 ca        1 PHA     -0.127000
     12 H           1.4070    1.0290    0.6930 hn        1 PHA      0.361300
     13 H2          1.7170    0.4170    2.1790 hn        1 PHA      0.361300
     14 HA         -0.9620    1.1870    1.3390 h1        1 PHA      0.076700
     15 HC         -1.7530   -0.0150    3.2420 h4        1 PHA      0.001200
     16 HB2         0.2300   -1.6650    0.9940 hc        1 PHA      0.058200
     17 HB3        -1.5140   -1.2010    0.8350 hc        1 PHA      0.058200
     18 HD1         1.8440   -1.0580   -0.7170 ha        1 PHA      0.131000
     19 HD2        -2.2720    0.2320   -1.0200 ha        1 PHA      0.131000
     20 HE1         2.2190   -0.4170   -3.0930 ha        1 PHA      0.134000
     21 HE2        -1.8960    0.8660   -3.3990 ha        1 PHA      0.134000
     22 HZ          0.3500    0.5450   -4.4400 ha        1 PHA      0.134000
@<TRIPOS>BOND
     1    1    2 1   
     2    1   12 1   
     3    1   13 1   
     4    2    3 1   
     5    2    5 1   
     6    2   14 1   
     7    3    4 2   
     8    3   15 1   
     9    5    6 1   
    10    5   16 1   
    11    5   17 1   
    12    6    7 ar  
    13    6    8 ar  
    14    7    9 ar  
    15    7   18 1   
    16    8   10 ar  
    17    8   19 1   
    18    9   11 ar  
    19    9   20 1   
    20   10   11 ar  
    21   10   21 1   
    22   11   22 1   
@<TRIPOS>SUBSTRUCTURE
     1 PHA         1 TEMP              0 ****  ****    0 ROOT
