@<TRIPOS>MOLECULE
PHB
   15    15     1     0     0
SMALL
bcc


@<TRIPOS>ATOM
      1 C1'         2.1570   -0.0200   -0.0580 c         1 PHB      0.910200
      2 O1'         2.7630   -1.1270   -0.1280 o         1 PHB     -0.834300
      3 O2'         2.7350    1.1040   -0.0360 o         1 PHB     -0.834300
      4 C1          0.6380   -0.0410    0.0030 ca        1 PHB     -0.152600
      5 C2         -0.0540   -1.2560   -0.0180 ca        1 PHB     -0.077500
      6 C3         -1.4460   -1.2900    0.0370 ca        1 PHB     -0.211500
      7 C4         -2.1480   -0.0790    0.1150 ca        1 PHB      0.082100
      8 C5         -1.4730    1.1480    0.1370 ca        1 PHB     -0.211500
      9 C6         -0.0800    1.1550    0.0810 ca        1 PHB     -0.077500
     10 O4         -3.5310   -0.1610    0.1680 oh        1 PHB     -0.525100
     11 H2          0.5310   -2.1880   -0.0800 ha        1 PHB      0.152500
     12 H3         -1.9970   -2.2380    0.0210 ha        1 PHB      0.114000
     13 H5         -2.0360    2.0880    0.1990 ha        1 PHB      0.114000
     14 H6          0.4830    2.1030    0.0960 ha        1 PHB      0.152500
     15 HO4        -3.8670    0.7440    0.2190 ho        1 PHB      0.399000
@<TRIPOS>BOND
     1    1    2 1   
     2    1    3 1   
     3    1    4 1   
     4    4    5 ar  
     5    4    9 ar  
     6    5    6 ar  
     7    5   11 1   
     8    6    7 ar  
     9    6   12 1   
    10    7    8 ar  
    11    7   10 1   
    12    8    9 ar  
    13    8   13 1   
    14    9   14 1   
    15   10   15 1   
@<TRIPOS>SUBSTRUCTURE
     1 PHB         1 TEMP              0 ****  ****    0 ROOT
