@<TRIPOS>MOLECULE
PHB
   15    15     1     0     0
SMALL
bcc


@<TRIPOS>ATOM
      1 C1'        -0.0140   -0.0690    0.0680 c         1 PHB      0.910200
      2 O1'         1.2480   -0.1410    0.0650 o         1 PHB     -0.834300
      3 O2'        -0.7210   -0.0580    1.1160 o         1 PHB     -0.834300
      4 C1         -0.7270    0.0090   -1.2730 ca        1 PHB     -0.152600
      5 C2          0.0040    0.0010   -2.4650 ca        1 PHB     -0.077500
      6 C3         -0.6370    0.0720   -3.7000 ca        1 PHB     -0.211500
      7 C4         -2.0360    0.1530   -3.7320 ca        1 PHB      0.082100
      8 C5         -2.7860    0.1620   -2.5480 ca        1 PHB     -0.211500
      9 C6         -2.1220    0.0900   -1.3250 ca        1 PHB     -0.077500
     10 O4         -2.6300    0.2220   -4.9820 oh        1 PHB     -0.525100
     11 H2          1.1030   -0.0630   -2.4010 ha        1 PHB      0.152500
     12 H3         -0.0710    0.0660   -4.6400 ha        1 PHB      0.114000
     13 H5         -3.8810    0.2260   -2.5890 ha        1 PHB      0.114000
     14 H6         -2.6800    0.0950   -0.3750 ha        1 PHB      0.152500
     15 HO4        -3.5840    0.2720   -4.8400 ho        1 PHB      0.399000
@<TRIPOS>BOND
     1    1    2 1   
     2    1    3 1   
     3    1    4 1   
     4    4    5 ar  
     5    4    9 ar  
     6    5    6 ar  
     7    5   11 1   
     8    6    7 ar  
     9    6   12 1   
    10    7    8 ar  
    11    7   10 1   
    12    8    9 ar  
    13    8   13 1   
    14    9   14 1   
    15   10   15 1   
@<TRIPOS>SUBSTRUCTURE
     1 PHB         1 TEMP              0 ****  ****    0 ROOT
