@<TRIPOS>MOLECULE
PHC
   26    26     1     0     0
SMALL
bcc


@<TRIPOS>ATOM
      1 N          -0.0370    0.1870    0.2750 nx        1 PHC     -0.618200
      2 C          -0.5020    0.5520   -1.1140 c         1 PHC      0.546900
      3 O          -1.0980    1.6020   -1.2520 o         1 PHC     -0.389100
      4 CA         -0.7890   -0.9950    0.7530 c3        1 PHC      0.082100
      5 CB          1.4780   -0.0070    0.2680 c3        1 PHC      0.204800
      6 CG2         2.0330   -0.0740    1.6840 c3        1 PHC     -0.127100
      7 CG          1.8950   -1.1780   -0.5680 ca        1 PHC     -0.183300
      8 CD1         2.3680   -0.9440   -1.8670 ca        1 PHC     -0.113500
      9 CD2         1.8880   -2.4820   -0.0610 ca        1 PHC     -0.113500
     10 CE1         2.8260   -2.0030   -2.6470 ca        1 PHC     -0.115000
     11 CE2         2.3450   -3.5410   -0.8460 ca        1 PHC     -0.115000
     12 CZ          2.8140   -3.3040   -2.1390 ca        1 PHC     -0.079000
     13 H          -0.2220   -0.2130   -1.8730 hx        1 PHC      0.138200
     14 HA1        -0.5800   -1.8750    0.0870 hx        1 PHC      0.106367
     15 HA2        -0.4680   -1.2430    1.8010 hx        1 PHC      0.106367
     16 HA3        -1.8880   -0.7620    0.7440 hx        1 PHC      0.106367
     17 HB          1.8750    0.9450   -0.2120 hx        1 PHC      0.101700
     18 HG21        1.7960    0.8550    2.2570 hc        1 PHC      0.079367
     19 HG22        3.1480   -0.1660    1.6090 hc        1 PHC      0.079367
     20 HG23        1.6530   -0.9580    2.2500 hc        1 PHC      0.079367
     21 HD1         2.4060    0.0810   -2.2710 ha        1 PHC      0.138500
     22 HD2         1.5390   -2.6820    0.9640 ha        1 PHC      0.138500
     23 HE1         3.2070   -1.8120   -3.6640 ha        1 PHC      0.162500
     24 HE2         2.3440   -4.5650   -0.4390 ha        1 PHC      0.162500
     25 HZ          3.1830   -4.1400   -2.7550 ha        1 PHC      0.165000
     26 H1         -0.2340    0.9700    0.9160 hn        1 PHC      0.454800
@<TRIPOS>BOND
     1    1    2 1   
     2    1    4 1   
     3    1    5 1   
     4    1   26 1   
     5    2    3 2   
     6    2   13 1   
     7    4   14 1   
     8    4   15 1   
     9    4   16 1   
    10    5    6 1   
    11    5    7 1   
    12    5   17 1   
    13    6   18 1   
    14    6   19 1   
    15    6   20 1   
    16    7    8 ar  
    17    7    9 ar  
    18    8   10 ar  
    19    8   21 1   
    20    9   11 ar  
    21    9   22 1   
    22   10   12 ar  
    23   10   23 1   
    24   11   12 ar  
    25   11   24 1   
    26   12   25 1   
@<TRIPOS>SUBSTRUCTURE
     1 PHC         1 TEMP              0 ****  ****    0 ROOT
