@<TRIPOS>MOLECULE
PHC
   25    25     1     0     0
SMALL
bcc


@<TRIPOS>ATOM
      1 N           0.1280   -0.0770    1.7170 n         1 PHC     -0.487800
      2 C          -1.2000   -0.2540    2.0630 c         1 PHC      0.662900
      3 O          -1.5720   -1.0870    2.9060 o         1 PHC     -0.603100
      4 CA          1.1520   -0.9250    2.2540 c3        1 PHC      0.074300
      5 CB          0.4590    0.8640    0.6590 c3        1 PHC      0.157000
      6 CG2         1.9320    1.2800    0.6450 c3        1 PHC     -0.098100
      7 CG          0.0760    0.3780   -0.7240 ca        1 PHC     -0.117300
      8 CD1        -0.8440    1.1130   -1.4790 ca        1 PHC     -0.117500
      9 CD2         0.6380   -0.7820   -1.2650 ca        1 PHC     -0.117500
     10 CE1        -1.1930    0.6940   -2.7620 ca        1 PHC     -0.129000
     11 CE2         0.2840   -1.2020   -2.5470 ca        1 PHC     -0.129000
     12 CZ         -0.6310   -0.4640   -3.2970 ca        1 PHC     -0.123000
     13 H          -1.9080    0.4280    1.5370 h5        1 PHC      0.031200
     14 HA1         0.7040   -1.6260    3.0090 h1        1 PHC      0.044367
     15 HA2         1.6390   -1.5300    1.4420 h1        1 PHC      0.044367
     16 HA3         1.9400   -0.3030    2.7580 h1        1 PHC      0.044367
     17 HB         -0.1450    1.8030    0.8700 h1        1 PHC      0.050700
     18 HG21        2.5950    0.4110    0.4180 hc        1 PHC      0.048033
     19 HG22        2.0740    2.0530   -0.1490 hc        1 PHC      0.048033
     20 HG23        2.2290    1.7170    1.6280 hc        1 PHC      0.048033
     21 HD1        -1.2940    2.0270   -1.0630 ha        1 PHC      0.132500
     22 HD2         1.3620   -1.3680   -0.6780 ha        1 PHC      0.132500
     23 HE1        -1.9160    1.2780   -3.3510 ha        1 PHC      0.134000
     24 HE2         0.7290   -2.1180   -2.9650 ha        1 PHC      0.134000
     25 HZ         -0.9090   -0.7960   -4.3080 ha        1 PHC      0.134000
@<TRIPOS>BOND
     1    1    2 1   
     2    1    4 1   
     3    1    5 1   
     4    2    3 2   
     5    2   13 1   
     6    4   14 1   
     7    4   15 1   
     8    4   16 1   
     9    5    6 1   
    10    5    7 1   
    11    5   17 1   
    12    6   18 1   
    13    6   19 1   
    14    6   20 1   
    15    7    8 ar  
    16    7    9 ar  
    17    8   10 ar  
    18    8   21 1   
    19    9   11 ar  
    20    9   22 1   
    21   10   12 ar  
    22   10   23 1   
    23   11   12 ar  
    24   11   24 1   
    25   12   25 1   
@<TRIPOS>SUBSTRUCTURE
     1 PHC         1 TEMP              0 ****  ****    0 ROOT
