@<TRIPOS>MOLECULE
PHC
   26    26     1     0     0
SMALL
bcc


@<TRIPOS>ATOM
      1 N          -0.0280    0.1960    0.2720 n4        1 PHC     -0.618200
      2 C          -0.4940    0.5590   -1.1160 c         1 PHC      0.546900
      3 O          -1.0840    1.6130   -1.2560 o         1 PHC     -0.389100
      4 CA         -0.7860   -0.9810    0.7560 c3        1 PHC      0.082100
      5 CB          1.4860   -0.0070    0.2630 c3        1 PHC      0.204800
      6 CG2         2.0440   -0.0740    1.6780 c3        1 PHC     -0.127100
      7 CG          1.8940   -1.1830   -0.5700 ca        1 PHC     -0.183300
      8 CD1         2.3650   -0.9560   -1.8720 ca        1 PHC     -0.113500
      9 CD2         1.8810   -2.4860   -0.0600 ca        1 PHC     -0.113500
     10 CE1         2.8150   -2.0210   -2.6500 ca        1 PHC     -0.115000
     11 CE2         2.3290   -3.5500   -0.8420 ca        1 PHC     -0.115000
     12 CZ          2.7970   -3.3200   -2.1370 ca        1 PHC     -0.079000
     13 H          -0.2210   -0.2090   -1.8740 hx        1 PHC      0.138200
     14 HA1        -0.5840   -1.8640    0.0910 hx        1 PHC      0.106367
     15 HA2        -1.8840   -0.7410    0.7480 hx        1 PHC      0.106367
     16 HA3        -0.4650   -1.2280    1.8040 hx        1 PHC      0.106367
     17 HB          1.8870    0.9410   -0.2210 hx        1 PHC      0.101700
     18 HG21        1.6590   -0.9540    2.2470 hc        1 PHC      0.079367
     19 HG22        1.8140    0.8590    2.2480 hc        1 PHC      0.079367
     20 HG23        3.1580   -0.1730    1.6000 hc        1 PHC      0.079367
     21 HD1         2.4080    0.0670   -2.2780 ha        1 PHC      0.138500
     22 HD2         1.5330   -2.6800    0.9670 ha        1 PHC      0.138500
     23 HE1         3.1940   -1.8350   -3.6680 ha        1 PHC      0.162500
     24 HE2         2.3230   -4.5730   -0.4320 ha        1 PHC      0.162500
     25 HZ          3.1580   -4.1600   -2.7510 ha        1 PHC      0.165000
     26 H1         -0.2190    0.9820    0.9120 hn        1 PHC      0.454800
@<TRIPOS>BOND
     1    1    2 1   
     2    1    4 1   
     3    1    5 1   
     4    1   26 1   
     5    2    3 2   
     6    2   13 1   
     7    4   14 1   
     8    4   15 1   
     9    4   16 1   
    10    5    6 1   
    11    5    7 1   
    12    5   17 1   
    13    6   18 1   
    14    6   19 1   
    15    6   20 1   
    16    7    8 ar  
    17    7    9 ar  
    18    8   10 ar  
    19    8   21 1   
    20    9   11 ar  
    21    9   22 1   
    22   10   12 ar  
    23   10   23 1   
    24   11   12 ar  
    25   11   24 1   
    26   12   25 1   
@<TRIPOS>SUBSTRUCTURE
     1 PHC         1 TEMP              0 ****  ****    0 ROOT
