@<TRIPOS>MOLECULE
PHC
   26    26     1     0     0
SMALL
bcc


@<TRIPOS>ATOM
      1 N          -0.0340    0.1890    0.2790 n4        1 PHC     -0.618200
      2 C          -0.5050    0.5530   -1.1080 c         1 PHC      0.546900
      3 O          -1.1020    1.6030   -1.2440 o         1 PHC     -0.389100
      4 CA         -0.7850   -0.9930    0.7610 c3        1 PHC      0.082100
      5 CB          1.4800   -0.0070    0.2660 c3        1 PHC      0.204800
      6 CG2         2.0420   -0.0730    1.6790 c3        1 PHC     -0.127100
      7 CG          1.8930   -1.1790   -0.5710 ca        1 PHC     -0.183300
      8 CD1         2.3600   -0.9460   -1.8730 ca        1 PHC     -0.113500
      9 CD2         1.8870   -2.4830   -0.0630 ca        1 PHC     -0.113500
     10 CE1         2.8130   -2.0070   -2.6540 ca        1 PHC     -0.115000
     11 CE2         2.3390   -3.5420   -0.8490 ca        1 PHC     -0.115000
     12 CZ          2.8030   -3.3070   -2.1440 ca        1 PHC     -0.079000
     13 H          -0.2290   -0.2120   -1.8680 hx        1 PHC      0.138200
     14 HA1        -0.5800   -1.8740    0.0940 hx        1 PHC      0.106367
     15 HA2        -1.8840   -0.7580    0.7570 hx        1 PHC      0.106367
     16 HA3        -0.4600   -1.2400    1.8080 hx        1 PHC      0.106367
     17 HB          1.8760    0.9440   -0.2170 hx        1 PHC      0.101700
     18 HG21        3.1560   -0.1660    1.5990 hc        1 PHC      0.079367
     19 HG22        1.6630   -0.9560    2.2470 hc        1 PHC      0.079367
     20 HG23        1.8090    0.8580    2.2520 hc        1 PHC      0.079367
     21 HD1         2.3970    0.0780   -2.2780 ha        1 PHC      0.138500
     22 HD2         1.5430   -2.6800    0.9640 ha        1 PHC      0.138500
     23 HE1         3.1890   -1.8170   -3.6730 ha        1 PHC      0.162500
     24 HE2         2.3390   -4.5660   -0.4410 ha        1 PHC      0.162500
     25 HZ          3.1670   -4.1450   -2.7610 ha        1 PHC      0.165000
     26 H1         -0.2280    0.9720    0.9210 hn        1 PHC      0.454800
@<TRIPOS>BOND
     1    1    2 1   
     2    1    4 1   
     3    1    5 1   
     4    1   26 1   
     5    2    3 2   
     6    2   13 1   
     7    4   14 1   
     8    4   15 1   
     9    4   16 1   
    10    5    6 1   
    11    5    7 1   
    12    5   17 1   
    13    6   18 1   
    14    6   19 1   
    15    6   20 1   
    16    7    8 ar  
    17    7    9 ar  
    18    8   10 ar  
    19    8   21 1   
    20    9   11 ar  
    21    9   22 1   
    22   10   12 ar  
    23   10   23 1   
    24   11   12 ar  
    25   11   24 1   
    26   12   25 1   
@<TRIPOS>SUBSTRUCTURE
     1 PHC         1 TEMP              0 ****  ****    0 ROOT
