@<TRIPOS>MOLECULE
PHD
   18    17     1     0     0
SMALL
bcc


@<TRIPOS>ATOM
      1 N           1.5890    0.5840    2.3640 n3        1 PHD     -0.918800
      2 CA          0.1500    0.3880    2.3240 c3        1 PHD      0.065500
      3 C          -0.3710   -0.2050    3.6680 c         1 PHD      0.913600
      4 O           0.1850   -1.2370    4.1550 o         1 PHD     -0.881800
      5 CB         -0.3660   -0.4970    1.1780 c3        1 PHD     -0.170400
      6 CG          0.1070   -0.1300   -0.2120 c         1 PHD      0.658100
      7 OD1        -0.7800   -0.1700   -1.1730 os        1 PHD     -0.497500
      8 OD2         1.2830    0.1570   -0.5210 o         1 PHD     -0.655000
      9 P          -0.1730    0.0080   -2.8390 p5        1 PHD      1.320900
     10 OP1         0.7780   -1.1420   -3.0120 o         1 PHD     -0.925167
     11 OP2        -1.5000   -0.1970   -3.5250 o         1 PHD     -0.925167
     12 OP3         0.3460    1.4130   -2.9450 o         1 PHD     -0.925167
     13 OXT        -1.3400    0.3740    4.2470 o         1 PHD     -0.881800
     14 H2          1.9240    0.7450    1.4270 hn        1 PHD      0.343300
     15 H           2.0150   -0.2600    2.7030 hn        1 PHD      0.343300
     16 HA         -0.3090    1.4120    2.2010 h1        1 PHD      0.041700
     17 HB2        -0.0430   -1.5550    1.3650 hc        1 PHD      0.046700
     18 HB3        -1.4850   -0.4700    1.1960 hc        1 PHD      0.046700
@<TRIPOS>BOND
     1    1    2 1   
     2    1   14 1   
     3    1   15 1   
     4    2    3 1   
     5    2    5 1   
     6    2   16 1   
     7    3    4 1   
     8    3   13 1   
     9    5    6 1   
    10    5   17 1   
    11    5   18 1   
    12    6    7 1   
    13    6    8 2   
    14    7    9 1   
    15    9   10 1   
    16    9   11 1   
    17    9   12 1   
@<TRIPOS>SUBSTRUCTURE
     1 PHD         1 TEMP              0 ****  ****    0 ROOT
