@<TRIPOS>MOLECULE
PHE
   22    22     1     0     0
SMALL
bcc


@<TRIPOS>ATOM
      1 N           1.4170    1.0410    1.1680 n3        1 PHE     -0.885800
      2 CA          0.1180    0.3880    1.2570 c3        1 PHE      0.023500
      3 C          -0.2800   -0.0730    2.7010 c         1 PHE      0.886600
      4 O           0.5040    0.2110    3.6510 o         1 PHE     -0.841800
      5 CB         -0.0160   -0.8210    0.3220 c3        1 PHE     -0.038100
      6 CG         -0.0780   -0.4440   -1.1150 ca        1 PHE     -0.026300
      7 CD1         0.9750   -0.7480   -1.9870 ca        1 PHE     -0.132000
      8 CD2        -1.2110    0.2080   -1.6230 ca        1 PHE     -0.132000
      9 CE1         0.8960   -0.4100   -3.3370 ca        1 PHE     -0.137500
     10 CE2        -1.2880    0.5450   -2.9720 ca        1 PHE     -0.137500
     11 CZ         -0.2360    0.2350   -3.8340 ca        1 PHE     -0.161000
     12 OXT        -1.3750   -0.6850    2.8350 o         1 PHE     -0.841800
     13 H           1.4800    1.6790    1.9460 hn        1 PHE      0.330300
     14 H2          2.1320    0.3500    1.3170 hn        1 PHE      0.330300
     15 HA         -0.6500    1.1560    0.9480 h1        1 PHE      0.043700
     16 HB2         0.8300   -1.5350    0.4990 hc        1 PHE      0.060200
     17 HB3        -0.9690   -1.3460    0.6130 hc        1 PHE      0.060200
     18 HD1         1.8740   -1.2460   -1.5980 ha        1 PHE      0.133500
     19 HD2        -2.0370    0.4560   -0.9390 ha        1 PHE      0.133500
     20 HE1         1.7300   -0.6500   -4.0110 ha        1 PHE      0.111500
     21 HE2        -2.1800    1.0580   -3.3580 ha        1 PHE      0.111500
     22 HZ         -0.2970    0.5010   -4.8980 ha        1 PHE      0.109000
@<TRIPOS>BOND
     1    1    2 1   
     2    1   13 1   
     3    1   14 1   
     4    2    3 1   
     5    2    5 1   
     6    2   15 1   
     7    3    4 1   
     8    3   12 1   
     9    5    6 1   
    10    5   16 1   
    11    5   17 1   
    12    6    7 ar  
    13    6    8 ar  
    14    7    9 ar  
    15    7   18 1   
    16    8   10 ar  
    17    8   19 1   
    18    9   11 ar  
    19    9   20 1   
    20   10   11 ar  
    21   10   21 1   
    22   11   22 1   
@<TRIPOS>SUBSTRUCTURE
     1 PHE         1 TEMP              0 ****  ****    0 ROOT
