@<TRIPOS>MOLECULE
PHH
   16    17     1     0     0
SMALL
bcc


@<TRIPOS>ATOM
      1 C1         -1.2470   -0.0020   -0.9080 ca        1 PHH      0.027400
      2 C2         -1.4240   -0.0020    0.4640 ca        1 PHH     -0.079300
      3 C3         -2.6800   -0.0030    1.2850 c3        1 PHH      0.167700
      4 O4         -2.2410   -0.0030    2.6670 os        1 PHH     -0.406900
      5 C5         -0.8490   -0.0020    2.7240 c         1 PHH      0.736200
      6 C6         -0.3130   -0.0010    1.3430 ca        1 PHH     -0.159600
      7 C7          0.9850   -0.0000    0.8600 ca        1 PHH      0.094400
      8 CL7         2.3030    0.0010    1.9090 cl        1 PHH     -0.006400
      9 C8          1.1730    0.0000   -0.5440 ca        1 PHH      0.003400
     10 CL8         2.7450    0.0010   -1.1690 cl        1 PHH     -0.024400
     11 C9          0.0730   -0.0010   -1.4150 ca        1 PHH      0.049400
     12 CL9         0.3180   -0.0010   -3.0880 cl        1 PHH     -0.021400
     13 CL10       -2.5840   -0.0030   -1.9420 cl        1 PHH     -0.036400
     14 O11        -0.3520   -0.0010    3.8390 o         1 PHH     -0.528500
     15 H31        -3.2950   -0.9270    1.1350 h1        1 PHH      0.091700
     16 H32        -3.2960    0.9200    1.1350 h1        1 PHH      0.091700
@<TRIPOS>BOND
     1    1    2 ar  
     2    1   11 ar  
     3    1   13 1   
     4    2    3 1   
     5    2    6 ar  
     6    3    4 1   
     7    3   15 1   
     8    3   16 1   
     9    4    5 1   
    10    5    6 1   
    11    5   14 2   
    12    6    7 ar  
    13    7    8 1   
    14    7    9 ar  
    15    9   10 1   
    16    9   11 ar  
    17   11   12 1   
@<TRIPOS>SUBSTRUCTURE
     1 PHH         1 TEMP              0 ****  ****    0 ROOT
