@<TRIPOS>MOLECULE
PHI
   22    22     1     0     0
SMALL
bcc


@<TRIPOS>ATOM
      1 N           1.4340    1.0210    3.5450 n3        1 PHI     -0.886800
      2 CA          0.1210    0.4100    3.6990 c3        1 PHI      0.022500
      3 CB         -0.0360   -0.8870    2.8960 c3        1 PHI     -0.043100
      4 CG         -0.1030   -0.6540    1.4290 ca        1 PHI     -0.002300
      5 CD1         0.9480   -1.0390    0.5860 ca        1 PHI     -0.138000
      6 CD2        -1.2370   -0.0550    0.8620 ca        1 PHI     -0.138000
      7 CE1         0.8660   -0.8360   -0.7900 ca        1 PHI     -0.101500
      8 CE2        -1.3210    0.1480   -0.5130 ca        1 PHI     -0.101500
      9 CZ         -0.2700   -0.2460   -1.3430 ca        1 PHI      0.003900
     10 I          -0.3940    0.0400   -3.3430 i         1 PHI     -0.197900
     11 C          -0.2870    0.1090    5.1830 c         1 PHI      0.887600
     12 O           0.4960    0.4870    6.0990 o         1 PHI     -0.838800
     13 OXT        -1.3880   -0.4760    5.3730 o         1 PHI     -0.838800
     14 H           2.1310    0.3500    3.8200 hn        1 PHI      0.331800
     15 H2          1.4910    1.7720    4.2140 hn        1 PHI      0.331800
     16 HA         -0.6320    1.1560    3.3100 h1        1 PHI      0.043700
     17 HB2         0.8020   -1.5920    3.1380 hc        1 PHI      0.064700
     18 HB3        -0.9950   -1.3660    3.2440 hc        1 PHI      0.064700
     19 HD1         1.8510   -1.4940    1.0180 ha        1 PHI      0.141000
     20 HD2        -2.0630    0.2590    1.5200 ha        1 PHI      0.141000
     21 HE1         1.7050   -1.1420   -1.4320 ha        1 PHI      0.127000
     22 HE2        -2.2190    0.6210   -0.9360 ha        1 PHI      0.127000
@<TRIPOS>BOND
     1    1    2 1   
     2    1   14 1   
     3    1   15 1   
     4    2    3 1   
     5    2   11 1   
     6    2   16 1   
     7    3    4 1   
     8    3   17 1   
     9    3   18 1   
    10    4    5 ar  
    11    4    6 ar  
    12    5    7 ar  
    13    5   19 1   
    14    6    8 ar  
    15    6   20 1   
    16    7    9 ar  
    17    7   21 1   
    18    8    9 ar  
    19    8   22 1   
    20    9   10 1   
    21   11   12 1   
    22   11   13 1   
@<TRIPOS>SUBSTRUCTURE
     1 PHI         1 TEMP              0 ****  ****    0 ROOT
