@<TRIPOS>MOLECULE
PHJ
   19    19     1     0     0
SMALL
bcc


@<TRIPOS>ATOM
      1 N           0.7700   -0.0250    0.6140 n         1 PHJ     -0.437100
      2 C          -0.0370    0.1110    1.7150 c         1 PHJ      0.699100
      3 OXT        -1.2630    0.2830    1.8140 o         1 PHJ     -0.579000
      4 O           0.7170    0.0340    2.9130 os        1 PHJ     -0.232400
      5 C1          0.3390    0.0050   -0.7250 ca        1 PHJ      0.068600
      6 C2         -1.0120    0.1840   -1.0890 ca        1 PHJ     -0.166000
      7 C3         -1.3690    0.2040   -2.4350 ca        1 PHJ     -0.102500
      8 C4         -0.4090    0.0490   -3.4330 ca        1 PHJ     -0.152000
      9 C5          0.9270   -0.1280   -3.0790 ca        1 PHJ     -0.102500
     10 C6          1.3100   -0.1520   -1.7430 ca        1 PHJ     -0.166000
     11 N2          0.1020    0.1450    4.0890 n3        1 PHJ     -0.583300
     12 H           1.7450   -0.1560    0.7780 hn        1 PHJ      0.343500
     13 H2         -1.7910    0.3090   -0.3190 ha        1 PHJ      0.152500
     14 H3         -2.4270    0.3440   -2.7060 ha        1 PHJ      0.136000
     15 H4         -0.7030    0.0660   -4.4920 ha        1 PHJ      0.136000
     16 H5          1.6920   -0.2520   -3.8610 ha        1 PHJ      0.136000
     17 H6          2.3720   -0.2930   -1.4890 ha        1 PHJ      0.152500
     18 H21        -0.3900    1.0350    4.1480 hn        1 PHJ      0.348800
     19 H22        -0.6130   -0.5750    4.1840 hn        1 PHJ      0.348800
@<TRIPOS>BOND
     1    1    2 1   
     2    1    5 1   
     3    1   12 1   
     4    2    3 2   
     5    2    4 1   
     6    4   11 1   
     7    5    6 ar  
     8    5   10 ar  
     9    6    7 ar  
    10    6   13 1   
    11    7    8 ar  
    12    7   14 1   
    13    8    9 ar  
    14    8   15 1   
    15    9   10 ar  
    16    9   16 1   
    17   10   17 1   
    18   11   18 1   
    19   11   19 1   
@<TRIPOS>SUBSTRUCTURE
     1 PHJ         1 TEMP              0 ****  ****    0 ROOT
