@<TRIPOS>MOLECULE
PHJ
   20    20     1     0     0
SMALL
bcc


@<TRIPOS>ATOM
      1 N           0.0920    0.0430    0.1140 n         1 PHJ     -0.367100
      2 C           1.4350    0.1500    0.0780 c         1 PHJ      0.750100
      3 OXT         2.3350    0.5500    0.8170 o         1 PHJ     -0.516000
      4 O           1.9310   -0.2660   -1.2640 os        1 PHJ     -0.315400
      5 C1         -0.6530    0.1370    1.3280 ca        1 PHJ     -0.002400
      6 C2         -0.1630    0.8330    2.4470 ca        1 PHJ     -0.132500
      7 C3         -0.9550    0.9350    3.5890 ca        1 PHJ     -0.099000
      8 C4         -2.2220    0.3540    3.6290 ca        1 PHJ     -0.104000
      9 C5         -2.7040   -0.3390    2.5180 ca        1 PHJ     -0.099000
     10 C6         -1.9320   -0.4590    1.3670 ca        1 PHJ     -0.132500
     11 N2          3.2390   -0.0660   -1.5470 n4        1 PHJ     -0.588100
     12 H          -0.3800   -0.3470   -0.6790 hn        1 PHJ      0.363500
     13 H2          0.8380    1.2960    2.4380 ha        1 PHJ      0.153000
     14 H3         -0.5700    1.4820    4.4650 ha        1 PHJ      0.159000
     15 H4         -2.8410    0.4410    4.5360 ha        1 PHJ      0.160000
     16 H5         -3.7050   -0.8000    2.5480 ha        1 PHJ      0.159000
     17 H6         -2.3330   -1.0100    0.5020 ha        1 PHJ      0.153000
     18 H21         3.6230   -0.9770   -1.8550 hn        1 PHJ      0.486800
     19 H22         3.7580    0.2820   -0.7090 hn        1 PHJ      0.486800
     20 H23         3.2910    0.6270   -2.3150 hn        1 PHJ      0.486800
@<TRIPOS>BOND
     1    1    2 1   
     2    1    5 1   
     3    1   12 1   
     4    2    3 2   
     5    2    4 1   
     6    4   11 1   
     7    5    6 ar  
     8    5   10 ar  
     9    6    7 ar  
    10    6   13 1   
    11    7    8 ar  
    12    7   14 1   
    13    8    9 ar  
    14    8   15 1   
    15    9   10 ar  
    16    9   16 1   
    17   10   17 1   
    18   11   18 1   
    19   11   19 1   
    20   11   20 1   
@<TRIPOS>SUBSTRUCTURE
     1 PHJ         1 TEMP              0 ****  ****    0 ROOT
