@<TRIPOS>MOLECULE
PHJ
   21    21     1     0     0
SMALL
bcc


@<TRIPOS>ATOM
      1 N          -0.3390    0.2100   -0.3130 n4        1 PHJ     -0.447200
      2 C           0.9410   -0.5120   -0.4660 c         1 PHJ      0.595100
      3 OXT         1.1710   -1.7030   -0.4080 o         1 PHJ     -0.329000
      4 O           2.0150    0.3920   -0.7240 os        1 PHJ     -0.240400
      5 C1         -0.7710    0.2700    1.0920 ca        1 PHJ     -0.118400
      6 C2         -0.6060    1.4720    1.8110 ca        1 PHJ     -0.085000
      7 C3         -1.1070    1.5460    3.1070 ca        1 PHJ     -0.092500
      8 C4         -1.7470    0.4450    3.6870 ca        1 PHJ     -0.022000
      9 C5         -1.8890   -0.7470    2.9680 ca        1 PHJ     -0.092500
     10 C6         -1.3990   -0.8520    1.6690 ca        1 PHJ     -0.085000
     11 N2          3.2920   -0.0890   -0.8230 n4        1 PHJ     -0.598100
     12 H          -0.2520    1.1720   -0.6880 hn        1 PHJ      0.513300
     13 H2         -0.1170    2.3560    1.3690 ha        1 PHJ      0.168000
     14 H3         -1.0030    2.4880    3.6760 ha        1 PHJ      0.198000
     15 H4         -2.1430    0.5170    4.7180 ha        1 PHJ      0.200000
     16 H5         -2.3970   -1.6150    3.4280 ha        1 PHJ      0.198000
     17 H6         -1.5210   -1.8010    1.1180 ha        1 PHJ      0.168000
     18 H21         3.3180   -1.1220   -0.9590 hn        1 PHJ      0.519133
     19 H22         3.7120    0.4000   -1.6490 hn        1 PHJ      0.519133
     20 HN3        -1.0520   -0.3170   -0.8600 hn        1 PHJ      0.513300
     21 H23         3.8000    0.1770    0.0480 hn        1 PHJ      0.519133
@<TRIPOS>BOND
     1    1    2 1   
     2    1    5 1   
     3    1   12 1   
     4    1   20 1   
     5    2    3 2   
     6    2    4 1   
     7    4   11 1   
     8    5    6 ar  
     9    5   10 ar  
    10    6    7 ar  
    11    6   13 1   
    12    7    8 ar  
    13    7   14 1   
    14    8    9 ar  
    15    8   15 1   
    16    9   10 ar  
    17    9   16 1   
    18   10   17 1   
    19   11   18 1   
    20   11   19 1   
    21   11   21 1   
@<TRIPOS>SUBSTRUCTURE
     1 PHJ         1 TEMP              0 ****  ****    0 ROOT
