@<TRIPOS>MOLECULE
PHK
   28    28     1     0     0
SMALL
bcc


@<TRIPOS>ATOM
      1 CB          0.0250    0.0260   -0.1010 c3        1 PHK     -0.054100
      2 CG          1.5100    0.0240   -0.0310 ca        1 PHK     -0.162300
      3 CD1         2.1550   -0.2000    1.1930 ca        1 PHK     -0.135000
      4 CD2         2.2730    0.2060   -1.1900 ca        1 PHK     -0.135000
      5 CE1         3.5470   -0.2340    1.2550 ca        1 PHK     -0.112500
      6 CE2         3.6660    0.1740   -1.1240 ca        1 PHK     -0.112500
      7 CZ          4.3040   -0.0440    0.0970 ca        1 PHK     -0.098000
      8 O          -2.4530    1.0040    1.3380 oh        1 PHK     -0.628800
      9 C1         -2.6950    2.7490   -0.3410 c3        1 PHK     -0.042000
     10 Cl         -4.4160    2.6310   -0.5680 cl        1 PHK     -0.108400
     11 C          -2.0940    1.3950    0.0220 c3        1 PHK      0.117100
     12 N           0.0060    2.1670    1.1880 nz        1 PHK     -0.837600
     13 CA         -0.5450    1.4500   -0.0120 c3        1 PHK      0.125500
     14 H6         -0.3170   -0.4090   -1.0810 hc        1 PHK      0.098200
     15 H7         -0.4170   -0.6050    0.7180 hc        1 PHK      0.098200
     16 H1          1.5650   -0.3990    2.1000 ha        1 PHK      0.137000
     17 H5          1.7750    0.3560   -2.1610 ha        1 PHK      0.137000
     18 H2          4.0500   -0.4260    2.2160 ha        1 PHK      0.157000
     19 H4          4.2610    0.3070   -2.0420 ha        1 PHK      0.157000
     20 H3          5.4040   -0.0800    0.1460 ha        1 PHK      0.160000
     21 H9         -3.4120    0.8600    1.3510 ho        1 PHK      0.462000
     22 H11        -2.5250    3.4950    0.4730 h1        1 PHK      0.080700
     23 H12        -2.2620    3.1250   -1.3000 h1        1 PHK      0.080700
     24 H          -2.4230    0.6120   -0.7210 h1        1 PHK      0.104700
     25 H13         1.0260    2.0320    1.2250 hn        1 PHK      0.467133
     26 H14        -0.2190    3.1610    1.1400 hn        1 PHK      0.467133
     27 H8         -0.2210    2.0380   -0.9230 hx        1 PHK      0.111700
     28 HN3        -0.4180    1.7670    2.0360 hn        1 PHK      0.467133
@<TRIPOS>BOND
     1    1    2 1   
     2    1   13 1   
     3    1   14 1   
     4    1   15 1   
     5    2    3 ar  
     6    2    4 ar  
     7    3    5 ar  
     8    3   16 1   
     9    4    6 ar  
    10    4   17 1   
    11    5    7 ar  
    12    5   18 1   
    13    6    7 ar  
    14    6   19 1   
    15    7   20 1   
    16    8   11 1   
    17    8   21 1   
    18    9   10 1   
    19    9   11 1   
    20    9   22 1   
    21    9   23 1   
    22   11   13 1   
    23   11   24 1   
    24   12   13 1   
    25   12   25 1   
    26   12   26 1   
    27   12   28 1   
    28   13   27 1   
@<TRIPOS>SUBSTRUCTURE
     1 PHK         1 TEMP              0 ****  ****    0 ROOT
