@<TRIPOS>MOLECULE
PHK
   28    28     1     0     0
SMALL
bcc


@<TRIPOS>ATOM
      1 CB          0.0290    0.0230   -0.0990 c3        1 PHK     -0.054100
      2 CG          1.5140    0.0300   -0.0320 ca        1 PHK     -0.162300
      3 CD1         2.1640   -0.1870    1.1900 ca        1 PHK     -0.135000
      4 CD2         2.2730    0.2130   -1.1940 ca        1 PHK     -0.135000
      5 CE1         3.5560   -0.2130    1.2490 ca        1 PHK     -0.112500
      6 CE2         3.6660    0.1880   -1.1320 ca        1 PHK     -0.112500
      7 CZ          4.3090   -0.0230    0.0880 ca        1 PHK     -0.098000
      8 O          -2.4500    0.9910    1.3460 oh        1 PHK     -0.628800
      9 C1         -2.7060    2.7310   -0.3360 c3        1 PHK     -0.042000
     10 CL         -4.4280    2.6030   -0.5570 cl        1 PHK     -0.108400
     11 C          -2.0970    1.3810    0.0280 c3        1 PHK      0.117100
     12 N           0.0030    2.1670    1.1860 n4        1 PHK     -0.837600
     13 CA         -0.5490    1.4440   -0.0110 c3        1 PHK      0.125500
     14 H6         -0.3130   -0.4150   -1.0760 hc        1 PHK      0.098200
     15 H7         -0.4070   -0.6080    0.7230 hc        1 PHK      0.098200
     16 H1          1.5770   -0.3870    2.1000 ha        1 PHK      0.137000
     17 H5          1.7720    0.3570   -2.1640 ha        1 PHK      0.137000
     18 H2          4.0630   -0.4010    2.2090 ha        1 PHK      0.157000
     19 H4          4.2590    0.3220   -2.0510 ha        1 PHK      0.157000
     20 H3          5.4100   -0.0530    0.1350 ha        1 PHK      0.160000
     21 H9         -3.4070    0.8410    1.3620 ho        1 PHK      0.462000
     22 H11        -2.2790    3.1070   -1.2980 h1        1 PHK      0.080700
     23 H12        -2.5380    3.4790    0.4760 h1        1 PHK      0.080700
     24 H          -2.4240    0.5950   -0.7120 h1        1 PHK      0.104700
     25 H13         1.0240    2.0380    1.2200 hn        1 PHK      0.467133
     26 H14        -0.2290    3.1610    1.1360 hn        1 PHK      0.467133
     27 H8         -0.2300    2.0320   -0.9240 hx        1 PHK      0.111700
     28 HN3        -0.4170    1.7670    2.0360 hn        1 PHK      0.467133
@<TRIPOS>BOND
     1    1    2 1   
     2    1   13 1   
     3    1   14 1   
     4    1   15 1   
     5    2    3 ar  
     6    2    4 ar  
     7    3    5 ar  
     8    3   16 1   
     9    4    6 ar  
    10    4   17 1   
    11    5    7 ar  
    12    5   18 1   
    13    6    7 ar  
    14    6   19 1   
    15    7   20 1   
    16    8   11 1   
    17    8   21 1   
    18    9   10 1   
    19    9   11 1   
    20    9   22 1   
    21    9   23 1   
    22   11   13 1   
    23   11   24 1   
    24   12   13 1   
    25   12   25 1   
    26   12   26 1   
    27   12   28 1   
    28   13   27 1   
@<TRIPOS>SUBSTRUCTURE
     1 PHK         1 TEMP              0 ****  ****    0 ROOT
