@<TRIPOS>MOLECULE
PHK
   27    27     1     0     0
SMALL
bcc


@<TRIPOS>ATOM
      1 CB         -0.5550    0.0780   -0.9380 c3        1 PHK     -0.076100
      2 CG         -1.9610    0.0080   -0.4610 ca        1 PHK     -0.089300
      3 CD1        -2.7740    1.1470   -0.4760 ca        1 PHK     -0.129500
      4 CD2        -2.4930   -1.2070   -0.0080 ca        1 PHK     -0.129500
      5 CE1        -4.0970    1.0730   -0.0420 ca        1 PHK     -0.126500
      6 CE2        -3.8140   -1.2780    0.4260 ca        1 PHK     -0.126500
      7 CZ         -4.6190   -0.1390    0.4110 ca        1 PHK     -0.130000
      8 O           2.1440    1.3030   -0.8880 oh        1 PHK     -0.588800
      9 C1          2.9130   -0.4660    0.6170 c3        1 PHK      0.006000
     10 CL          4.4810   -0.7620   -0.1090 cl        1 PHK     -0.187400
     11 C           1.8840   -0.0010   -0.4040 c3        1 PHK      0.139100
     12 N           0.2920    0.8080    1.3270 n3        1 PHK     -0.905800
     13 CA          0.4590   -0.0980    0.2090 c3        1 PHK      0.136500
     14 H6         -0.3570    1.0580   -1.4500 hc        1 PHK      0.063700
     15 H7         -0.3790   -0.7340   -1.6930 hc        1 PHK      0.063700
     16 H1         -2.3700    2.1030   -0.8400 ha        1 PHK      0.132000
     17 H5         -1.8610   -2.1080   -0.0010 ha        1 PHK      0.132000
     18 H2         -4.7300    1.9720   -0.0590 ha        1 PHK      0.133000
     19 H4         -4.2240   -2.2360    0.7790 ha        1 PHK      0.133000
     20 H3         -5.6630   -0.1960    0.7530 ha        1 PHK      0.133000
     21 H9          2.3760    1.8610   -0.1350 ho        1 PHK      0.405000
     22 H11         3.0640    0.3030    1.4120 h1        1 PHK      0.077200
     23 H12         2.5900   -1.4270    1.0820 h1        1 PHK      0.077200
     24 H           1.9190   -0.6470   -1.3280 h1        1 PHK      0.088700
     25 H13         0.3360    1.7600    1.0130 hn        1 PHK      0.353300
     26 H14        -0.6000    0.6560    1.7580 hn        1 PHK      0.353300
     27 H8          0.3390   -1.1460    0.6170 h1        1 PHK      0.062700
@<TRIPOS>BOND
     1    1    2 1   
     2    1   13 1   
     3    1   14 1   
     4    1   15 1   
     5    2    3 ar  
     6    2    4 ar  
     7    3    5 ar  
     8    3   16 1   
     9    4    6 ar  
    10    4   17 1   
    11    5    7 ar  
    12    5   18 1   
    13    6    7 ar  
    14    6   19 1   
    15    7   20 1   
    16    8   11 1   
    17    8   21 1   
    18    9   10 1   
    19    9   11 1   
    20    9   22 1   
    21    9   23 1   
    22   11   13 1   
    23   11   24 1   
    24   12   13 1   
    25   12   25 1   
    26   12   26 1   
    27   13   27 1   
@<TRIPOS>SUBSTRUCTURE
     1 PHK         1 TEMP              0 ****  ****    0 ROOT
