@<TRIPOS>MOLECULE
PHK
   28    28     1     0     0
SMALL
bcc


@<TRIPOS>ATOM
      1 CB          0.0290    0.0330   -0.1250 c3        1 PHK     -0.054100
      2 CG          1.5140    0.0350   -0.0490 ca        1 PHK     -0.162300
      3 CD1         2.1550   -0.2160    1.1720 ca        1 PHK     -0.135000
      4 CD2         2.2810    0.2470   -1.2000 ca        1 PHK     -0.135000
      5 CE1         3.5470   -0.2470    1.2390 ca        1 PHK     -0.112500
      6 CE2         3.6730    0.2170   -1.1290 ca        1 PHK     -0.112500
      7 CZ          4.3080   -0.0270    0.0890 ca        1 PHK     -0.098000
      8 O          -2.4590    0.9680    1.3260 oh        1 PHK     -0.628800
      9 C1         -2.6990    2.7520   -0.3110 c3        1 PHK     -0.042000
     10 CL         -4.4190    2.6340   -0.5480 cl        1 PHK     -0.108400
     11 C          -2.0950    1.3920    0.0220 c3        1 PHK      0.117100
     12 N          -0.0020    2.1430    1.2150 n4        1 PHK     -0.837600
     13 CA         -0.5460    1.4530   -0.0050 c3        1 PHK      0.125500
     14 H6         -0.4140   -0.6190    0.6770 hc        1 PHK      0.098200
     15 H7         -0.3070   -0.3790   -1.1160 hc        1 PHK      0.098200
     16 H1          1.5610   -0.4390    2.0720 ha        1 PHK      0.137000
     17 H5          1.7860    0.4170   -2.1690 ha        1 PHK      0.137000
     18 H2          4.0460   -0.4600    2.1970 ha        1 PHK      0.157000
     19 H4          4.2720    0.3740   -2.0410 ha        1 PHK      0.157000
     20 H3          5.4080   -0.0610    0.1420 ha        1 PHK      0.160000
     21 H9         -3.4160    0.8210    1.3320 ho        1 PHK      0.462000
     22 H11        -2.5340    3.4790    0.5210 h1        1 PHK      0.080700
     23 H12        -2.2640    3.1530   -1.2600 h1        1 PHK      0.080700
     24 H          -2.4180    0.6260   -0.7410 h1        1 PHK      0.104700
     25 H13        -0.2310    3.1370    1.1890 hn        1 PHK      0.467133
     26 H14        -0.4290    1.7210    2.0510 hn        1 PHK      0.467133
     27 H8         -0.2200    2.0630   -0.9000 hx        1 PHK      0.111700
     28 HN3         1.0180    2.0100    1.2530 hn        1 PHK      0.467133
@<TRIPOS>BOND
     1    1    2 1   
     2    1   13 1   
     3    1   14 1   
     4    1   15 1   
     5    2    3 ar  
     6    2    4 ar  
     7    3    5 ar  
     8    3   16 1   
     9    4    6 ar  
    10    4   17 1   
    11    5    7 ar  
    12    5   18 1   
    13    6    7 ar  
    14    6   19 1   
    15    7   20 1   
    16    8   11 1   
    17    8   21 1   
    18    9   10 1   
    19    9   11 1   
    20    9   22 1   
    21    9   23 1   
    22   11   13 1   
    23   11   24 1   
    24   12   13 1   
    25   12   25 1   
    26   12   26 1   
    27   12   28 1   
    28   13   27 1   
@<TRIPOS>SUBSTRUCTURE
     1 PHK         1 TEMP              0 ****  ****    0 ROOT
