@<TRIPOS>MOLECULE
PHL
   24    22     1     0     0
SMALL
bcc


@<TRIPOS>ATOM
      1 N          -1.4010   -0.6180    1.7240 n3        1 PHL     -0.340000
      2 CA          0.0080   -0.5500    1.4640 c3        1 PHL     -0.074000
      3 C           0.7390   -0.5770    2.7490 c3        1 PHL     -0.011000
      4 O           0.4290   -1.7900    3.4410 oh        1 PHL     -0.328000
      5 CB          0.3240    0.7500    0.7130 c3        1 PHL     -0.161000
      6 CG          0.0890    0.5430   -0.7840 c2        1 PHL     -0.082000
      7 CD1        -0.9640    1.1830   -1.4180 c1        1 PHL     -0.132000
      8 CD2         0.9940   -0.2150   -1.5310 c2        1 PHL     -0.126000
      9 CE1        -1.1160    1.0740   -2.7650 c1        1 PHL     -0.128500
     10 CE2         0.8410   -0.3230   -2.8780 c1        1 PHL     -0.126000
     11 CZ         -0.2150    0.3200   -3.5090 c1        1 PHL     -0.128500
     12 H          -1.8370   -0.9500    0.9820 hn        1 PHL      0.147500
     13 H2         -1.7130    0.2150    1.9130 hn        1 PHL      0.147500
     14 HA          0.2780   -1.3120    0.9220 h1        1 PHL      0.113000
     15 HC1         1.7000   -0.5320    2.5810 h1        1 PHL      0.082000
     16 HC2         0.4610    0.2050    3.3060 h1        1 PHL      0.082000
     17 HO          0.8300   -1.7940    4.2280 ho        1 PHL      0.214000
     18 HB2        -0.2550    1.4560    1.0380 hc        1 PHL      0.093500
     19 HB3         1.2960    1.0060    0.8700 hc        1 PHL      0.093500
     20 HD1        -1.5650    1.6870   -0.9240 ha        1 PHL      0.130000
     21 HD2         1.7690   -0.6870   -1.0680 ha        1 PHL      0.134000
     22 HE1        -1.8450    1.5180   -3.2030 ha        1 PHL      0.132500
     23 HE2         1.4770   -0.8560   -3.4050 ha        1 PHL      0.134000
     24 HZ         -0.3240    0.2460   -4.4470 ha        1 PHL      0.132500
@<TRIPOS>BOND
     1    1    2 1   
     2    1   12 1   
     3    1   13 1   
     4    2    3 1   
     5    2    5 1   
     6    2   14 1   
     7    3    4 1   
     8    3   15 1   
     9    3   16 1   
    10    4   17 1   
    11    5    6 1   
    12    5   18 1   
    13    5   19 1   
    14    6    7 1   
    15    6    8 1   
    16    7   20 1   
    17    8   10 1   
    18    8   21 1   
    19    9   11 1   
    20    9   22 1   
    21   10   23 1   
    22   11   24 1   
@<TRIPOS>SUBSTRUCTURE
     1 PHL         1 TEMP              0 ****  ****    0 ROOT
