@<TRIPOS>MOLECULE
PHL
   24    24     1     0     0
SMALL
bcc


@<TRIPOS>ATOM
      1 N           1.6030    1.2100    0.6420 n3        1 PHL     -0.907800
      2 CA          1.6760   -0.1070    0.0430 c3        1 PHL      0.122500
      3 C           3.0600   -0.3640   -0.5910 c3        1 PHL      0.140400
      4 O           4.0680   -0.5110    0.3840 oh        1 PHL     -0.600800
      5 CB          0.6050   -0.4050   -1.0240 c3        1 PHL     -0.075100
      6 CG         -0.7720   -0.2260   -0.4920 ca        1 PHL     -0.085300
      7 CD1        -1.3940    1.0270   -0.5450 ca        1 PHL     -0.130500
      8 CD2        -1.4620   -1.3100    0.0650 ca        1 PHL     -0.130500
      9 CE1        -2.6860    1.1940   -0.0480 ca        1 PHL     -0.125500
     10 CE2        -2.7530   -1.1410    0.5620 ca        1 PHL     -0.125500
     11 CZ         -3.3670    0.1100    0.5060 ca        1 PHL     -0.130000
     12 H           1.6770    1.9220   -0.0590 hn        1 PHL      0.351300
     13 H2          0.7280    1.3210    1.1200 hn        1 PHL      0.351300
     14 HA          1.5470   -0.8530    0.8850 h1        1 PHL      0.075700
     15 HC1         3.0480   -1.3460   -1.1360 h1        1 PHL      0.042200
     16 HC2         3.3290    0.4570   -1.3080 h1        1 PHL      0.042200
     17 HO          4.0490    0.2740    0.9470 ho        1 PHL      0.415000
     18 HB2         0.7630    0.2680   -1.9080 hc        1 PHL      0.054200
     19 HB3         0.7420   -1.4610   -1.3770 hc        1 PHL      0.054200
     20 HD1        -0.8630    1.8820   -0.9880 ha        1 PHL      0.131000
     21 HD2        -0.9810   -2.2980    0.1100 ha        1 PHL      0.131000
     22 HE1        -3.1680    2.1810   -0.0960 ha        1 PHL      0.133000
     23 HE2        -3.2880   -1.9970    0.9970 ha        1 PHL      0.133000
     24 HZ         -4.3860    0.2420    0.8980 ha        1 PHL      0.133000
@<TRIPOS>BOND
     1    1    2 1   
     2    1   12 1   
     3    1   13 1   
     4    2    3 1   
     5    2    5 1   
     6    2   14 1   
     7    3    4 1   
     8    3   15 1   
     9    3   16 1   
    10    4   17 1   
    11    5    6 1   
    12    5   18 1   
    13    5   19 1   
    14    6    7 ar  
    15    6    8 ar  
    16    7    9 ar  
    17    7   20 1   
    18    8   10 ar  
    19    8   21 1   
    20    9   11 ar  
    21    9   22 1   
    22   10   11 ar  
    23   10   23 1   
    24   11   24 1   
@<TRIPOS>SUBSTRUCTURE
     1 PHL         1 TEMP              0 ****  ****    0 ROOT
