@<TRIPOS>MOLECULE
PHM
   25    25     1     0     0
SMALL
bcc


@<TRIPOS>ATOM
      1 C1          2.3500    0.9790   -0.5190 c3        1 PHM     -0.078000
      2 N1          0.0420   -2.0860   -0.6910 n3        1 PHM     -0.885800
      3 C2          0.3950   -0.6990   -0.4800 c3        1 PHM      0.081500
      4 C3         -0.3400   -0.0760    0.7240 c3        1 PHM     -0.028100
      5 C4         -1.7790    0.1590    0.4300 ca        1 PHM     -0.082300
      6 C5         -2.7040   -0.8880    0.5160 ca        1 PHM     -0.115500
      7 C6         -2.2250    1.4410    0.0840 ca        1 PHM     -0.115500
      8 C7         -4.0530   -0.6560    0.2550 ca        1 PHM     -0.131500
      9 C8         -3.5750    1.6700   -0.1750 ca        1 PHM     -0.131500
     10 C9         -4.4910    0.6220   -0.0910 ca        1 PHM     -0.127000
     11 C10         1.8950   -0.4410   -0.3050 c         1 PHM      0.516100
     12 O1          2.6920   -1.3470   -0.0540 o         1 PHM     -0.508100
     13 CL1         2.8410    1.7260    0.9840 cl        1 PHM     -0.148400
     14 HM2         3.2380    0.9950   -1.1980 h1        1 PHM      0.086700
     15 HM3         1.5320    1.6090   -0.9450 h1        1 PHM      0.086700
     16 H2          0.2050   -2.6230    0.1400 hn        1 PHM      0.357800
     17 HA          0.0770   -0.1400   -1.4140 h1        1 PHM      0.082700
     18 HB2        -0.2390   -0.7450    1.6200 hc        1 PHM      0.060200
     19 HB3         0.1590    0.8980    0.9760 hc        1 PHM      0.060200
     20 HD1        -2.3600   -1.8990    0.7800 ha        1 PHM      0.133000
     21 HD2        -1.5070    2.2720    0.0200 ha        1 PHM      0.133000
     22 HE1        -4.7730   -1.4850    0.3210 ha        1 PHM      0.131500
     23 HE2        -3.9170    2.6800   -0.4460 ha        1 PHM      0.131500
     24 HZ         -5.5560    0.8040   -0.2950 ha        1 PHM      0.131000
     25 H           0.5900   -2.4710   -1.4360 hn        1 PHM      0.357800
@<TRIPOS>BOND
     1    1   11 1   
     2    1   13 1   
     3    1   14 1   
     4    1   15 1   
     5    2    3 1   
     6    2   16 1   
     7    2   25 1   
     8    3    4 1   
     9    3   11 1   
    10    3   17 1   
    11    4    5 1   
    12    4   18 1   
    13    4   19 1   
    14    5    6 ar  
    15    5    7 ar  
    16    6    8 ar  
    17    6   20 1   
    18    7    9 ar  
    19    7   21 1   
    20    8   10 ar  
    21    8   22 1   
    22    9   10 ar  
    23    9   23 1   
    24   10   24 1   
    25   11   12 2   
@<TRIPOS>SUBSTRUCTURE
     1 PHM         1 TEMP              0 ****  ****    0 ROOT
