@<TRIPOS>MOLECULE
PHN
   22    24     1     0     0
SMALL
bcc


@<TRIPOS>ATOM
      1 N1         -1.5670   -0.0000   -1.4210 nb        1 PHN     -0.622000
      2 C2         -1.5220   -0.0000   -2.7480 ca        1 PHN      0.401200
      3 C3         -0.3210   -0.0010   -3.5090 ca        1 PHN     -0.241300
      4 C4          0.8780   -0.0010   -2.8290 ca        1 PHN     -0.087000
      5 C4A         0.8760   -0.0000   -1.4120 ca        1 PHN     -0.145300
      6 C5          2.1040   -0.0000   -0.6790 ca        1 PHN     -0.110000
      7 C6          2.1040    0.0000    0.6790 ca        1 PHN     -0.110000
      8 C6A         0.8760    0.0000    1.4120 ca        1 PHN     -0.145300
      9 C7          0.8780    0.0000    2.8290 ca        1 PHN     -0.087000
     10 C8         -0.3210   -0.0000    3.5090 ca        1 PHN     -0.241300
     11 C9         -1.5220   -0.0000    2.7480 ca        1 PHN      0.401200
     12 N10        -1.5670   -0.0000    1.4210 nb        1 PHN     -0.622000
     13 C10        -0.3770    0.0000    0.7340 ca        1 PHN      0.359300
     14 C1A        -0.3770   -0.0000   -0.7350 ca        1 PHN      0.359300
     15 H2         -2.5030   -0.0000   -3.2600 h4        1 PHN      0.026100
     16 H3         -0.3660   -0.0010   -4.6060 ha        1 PHN      0.145000
     17 H4          1.8380   -0.0010   -3.3650 ha        1 PHN      0.139000
     18 H5          3.0460   -0.0000   -1.2490 ha        1 PHN      0.137000
     19 H6          3.0460    0.0000    1.2490 ha        1 PHN      0.137000
     20 H7          1.8380    0.0000    3.3650 ha        1 PHN      0.139000
     21 H8         -0.3660   -0.0000    4.6060 ha        1 PHN      0.145000
     22 H9         -2.5030   -0.0010    3.2600 h4        1 PHN      0.026100
@<TRIPOS>BOND
     1    1    2 ar  
     2    1   14 ar  
     3    2    3 ar  
     4    2   15 1   
     5    3    4 ar  
     6    3   16 1   
     7    4    5 ar  
     8    4   17 1   
     9    5    6 ar  
    10    5   14 ar  
    11    6    7 ar  
    12    6   18 1   
    13    7    8 ar  
    14    7   19 1   
    15    8    9 ar  
    16    8   13 ar  
    17    9   10 ar  
    18    9   20 1   
    19   10   11 ar  
    20   10   21 1   
    21   11   12 ar  
    22   11   22 1   
    23   12   13 ar  
    24   13   14 ar  
@<TRIPOS>SUBSTRUCTURE
     1 PHN         1 TEMP              0 ****  ****    0 ROOT
