@<TRIPOS>MOLECULE
PHQ
   18    18     1     0     0
SMALL
bcc


@<TRIPOS>ATOM
      1 C1         -2.2520   -0.3150   -0.0010 c         1 PHQ      0.632700
      2 O1         -2.5840   -1.4970   -0.0080 o         1 PHQ     -0.505000
      3 O2         -0.9380    0.0400    0.0010 os        1 PHQ     -0.408900
      4 C2          0.0060   -1.0590   -0.0070 c3        1 PHQ      0.188700
      5 C3          1.3660   -0.4500   -0.0030 ca        1 PHQ     -0.104300
      6 C4          2.0110   -0.1800    1.2090 ca        1 PHQ     -0.100000
      7 C5          3.2960    0.3590    1.2100 ca        1 PHQ     -0.134000
      8 C6          3.9400    0.6360    0.0040 ca        1 PHQ     -0.113000
      9 C7          3.2960    0.3740   -1.2060 ca        1 PHQ     -0.134000
     10 C8          2.0100   -0.1650   -1.2110 ca        1 PHQ     -0.100000
     11 CL1        -3.2880    1.0480    0.0080 cl        1 PHQ     -0.027600
     12 H21        -0.1780   -1.6860    0.9060 h1        1 PHQ      0.064700
     13 H22        -0.1780   -1.6740   -0.9270 h1        1 PHQ      0.064700
     14 H41         1.5010   -0.3940    2.1600 ha        1 PHQ      0.136000
     15 H51         3.8010    0.5690    2.1640 ha        1 PHQ      0.136000
     16 H61         4.9540    1.0620    0.0060 ha        1 PHQ      0.134000
     17 H71         3.8010    0.5960   -2.1580 ha        1 PHQ      0.136000
     18 H81         1.5000   -0.3660   -2.1660 ha        1 PHQ      0.136000
@<TRIPOS>BOND
     1    1    2 2   
     2    1    3 1   
     3    1   11 1   
     4    3    4 1   
     5    4    5 1   
     6    4   12 1   
     7    4   13 1   
     8    5    6 ar  
     9    5   10 ar  
    10    6    7 ar  
    11    6   14 1   
    12    7    8 ar  
    13    7   15 1   
    14    8    9 ar  
    15    8   16 1   
    16    9   10 ar  
    17    9   17 1   
    18   10   18 1   
@<TRIPOS>SUBSTRUCTURE
     1 PHQ         1 TEMP              0 ****  ****    0 ROOT
