@<TRIPOS>MOLECULE
PHR
   57    58     1     0     0
SMALL
bcc


@<TRIPOS>ATOM
      1 O2P         0.0000    0.0000    0.0000 o         1 PHR     -0.715167
      2 P           1.6100    0.0000    0.0000 p5        1 PHR      0.703900
      3 O3P         2.1040    0.0000    1.3950 o         1 PHR     -0.715167
      4 O1P         2.1470   -1.3140   -0.7600 o         1 PHR     -0.715167
      5 O27         2.1460    1.3150   -0.7600 os        1 PHR     -0.459200
      6 C20         3.5690    1.3190   -0.6230 c3        1 PHR      0.235400
      7 C19         4.1440    2.5500   -1.3270 c3        1 PHR     -0.054400
      8 C18         5.6680    2.5540   -1.1810 c3        1 PHR     -0.028400
      9 C17         6.2440    3.7850   -1.8840 c3        1 PHR     -0.026400
     10 C16         7.7670    3.7890   -1.7400 c3        1 PHR     -0.049400
     11 C15         8.3430    5.0200   -2.4420 c3        1 PHR      0.031000
     12 N5          9.8010    5.0240   -2.3040 n         1 PHR      0.134000
     13 C9         10.5300    5.6160   -1.2680 cc        1 PHR     -0.357600
     14 C4         10.1670    6.3400   -0.1150 c         1 PHR      0.641700
     15 O2          8.9940    6.5620    0.1290 o         1 PHR     -0.677500
     16 N3         11.1330    6.7930    0.7120 ns        1 PHR     -0.130500
     17 C6         10.6830    4.4560   -3.1510 c         1 PHR      0.548500
     18 O4         10.3980    3.8500   -4.1680 o         1 PHR     -0.737500
     19 N7         11.9300    4.6680   -2.6900 n         1 PHR      0.085000
     20 C8         11.8540    5.3800   -1.5200 cd        1 PHR     -0.272800
     21 N1         12.8030    5.8590   -0.6450 ns        1 PHR      0.062900
     22 C2         12.4300    6.5520    0.4470 c         1 PHR      0.578500
     23 O1         13.2810    6.9680    1.2090 o         1 PHR     -0.746500
     24 C10        13.1660    4.2080   -3.3290 c3        1 PHR      0.027000
     25 C11        13.6650    5.2780   -4.3020 c3        1 PHR      0.153100
     26 O19        14.0300    6.4520   -3.5730 oh        1 PHR     -0.584800
     27 C12        14.8840    4.7490   -5.0610 c3        1 PHR      0.171100
     28 O21        15.8770    4.3190   -4.1270 oh        1 PHR     -0.574800
     29 C13        15.4580    5.8590   -5.9420 c3        1 PHR      0.162100
     30 O23        14.4650    6.2880   -6.8760 oh        1 PHR     -0.585800
     31 C14        16.6770    5.3290   -6.7000 c3        1 PHR      0.190400
     32 O26        17.2830    6.3950   -7.4340 oh        1 PHR     -0.597800
     33 H201        3.9770    0.4220   -1.0730 h1        1 PHR     -0.001800
     34 H202        3.8310    1.3480    0.4270 h1        1 PHR     -0.001800
     35 H191        3.7360    3.4470   -0.8770 hc        1 PHR      0.000200
     36 H192        3.8820    2.5210   -2.3770 hc        1 PHR      0.000200
     37 H181        6.0760    1.6570   -1.6320 hc        1 PHR      0.010700
     38 H182        5.9300    2.5820   -0.1310 hc        1 PHR      0.010700
     39 H171        5.9810    3.7570   -2.9350 hc        1 PHR      0.009700
     40 H172        5.8360    4.6820   -1.4340 hc        1 PHR      0.009700
     41 H161        8.0300    3.8160   -0.6890 hc        1 PHR      0.024200
     42 H162        8.1750    2.8920   -2.1910 hc        1 PHR      0.024200
     43 H151        8.0800    4.9920   -3.4930 h1        1 PHR      0.044200
     44 H152        7.9350    5.9160   -1.9920 h1        1 PHR      0.044200
     45 H3         10.8830    7.3140    1.5290 hn        1 PHR      0.200500
     46 H1         13.7730    5.6830   -0.8160 hn        1 PHR      0.181500
     47 H101       12.9730    3.2900   -3.8700 h1        1 PHR      0.045200
     48 H102       13.9190    4.0290   -2.5710 h1        1 PHR      0.045200
     49 H11        12.8780    5.5210   -5.0070 h1        1 PHR      0.042700
     50 H19        13.5680    7.1950   -3.9220 ho        1 PHR      0.394000
     51 H12        14.5870    3.9120   -5.6820 h1        1 PHR      0.018700
     52 H21        16.0540    3.4020   -4.2560 ho        1 PHR      0.387000
     53 H13        15.7550    6.6960   -5.3210 h1        1 PHR      0.032700
     54 H23        14.6160    7.1910   -7.1030 ho        1 PHR      0.400000
     55 H141       16.3650    4.5510   -7.3860 h1        1 PHR     -0.002800
     56 H142       17.3920    4.9240   -5.9950 h1        1 PHR     -0.002800
     57 H26        18.0650    6.0810   -7.8570 ho        1 PHR      0.389000
@<TRIPOS>BOND
     1    1    2 1   
     2    2    3 1   
     3    2    4 1   
     4    2    5 1   
     5    5    6 1   
     6    6    7 1   
     7    6   33 1   
     8    6   34 1   
     9    7    8 1   
    10    7   35 1   
    11    7   36 1   
    12    8    9 1   
    13    8   37 1   
    14    8   38 1   
    15    9   10 1   
    16    9   39 1   
    17    9   40 1   
    18   10   11 1   
    19   10   41 1   
    20   10   42 1   
    21   11   12 1   
    22   11   43 1   
    23   11   44 1   
    24   12   13 1   
    25   12   17 1   
    26   13   14 1   
    27   13   20 2   
    28   14   15 2   
    29   14   16 1   
    30   16   22 1   
    31   16   45 1   
    32   17   18 2   
    33   17   19 1   
    34   19   20 1   
    35   19   24 1   
    36   20   21 1   
    37   21   22 1   
    38   21   46 1   
    39   22   23 2   
    40   24   25 1   
    41   24   47 1   
    42   24   48 1   
    43   25   26 1   
    44   25   27 1   
    45   25   49 1   
    46   26   50 1   
    47   27   28 1   
    48   27   29 1   
    49   27   51 1   
    50   28   52 1   
    51   29   30 1   
    52   29   31 1   
    53   29   53 1   
    54   30   54 1   
    55   31   32 1   
    56   31   55 1   
    57   31   56 1   
    58   32   57 1   
@<TRIPOS>SUBSTRUCTURE
     1 PHR         1 TEMP              0 ****  ****    0 ROOT
