@<TRIPOS>MOLECULE
PHR
   57    58     1     0     0
SMALL
bcc


@<TRIPOS>ATOM
      1 O2P         1.0770   -1.4070    3.4000 o         1 PHR     -0.931167
      2 P          -0.2260   -0.6870    3.1490 p5        1 PHR      1.366900
      3 O3P        -1.2970   -0.6340    4.1820 o         1 PHR     -0.931167
      4 O1P         0.1040    0.5760    2.3710 o         1 PHR     -0.931167
      5 O27        -0.8870   -1.6380    1.8890 os        1 PHR     -0.583200
      6 C20        -1.9580   -1.0830    1.2210 c3        1 PHR      0.230400
      7 C19        -1.5290   -0.6160   -0.1760 c3        1 PHR     -0.130400
      8 C18        -2.6600   -0.5030   -1.1690 c3        1 PHR     -0.067400
      9 C17        -2.1410   -0.1050   -2.5400 c3        1 PHR     -0.084400
     10 C16        -1.8350    1.3750   -2.6480 c3        1 PHR     -0.107400
     11 C15        -0.5210    1.6760   -3.3740 c3        1 PHR      0.062000
     12 N5          0.6990    1.6790   -2.5900 n         1 PHR     -0.247000
     13 C9          0.7350    2.5290   -1.4370 cc        1 PHR     -0.357600
     14 C4          0.3330    3.9070   -1.3290 c         1 PHR      0.764700
     15 O2         -0.1900    4.6130   -2.2210 o         1 PHR     -0.700500
     16 N3          0.5790    4.4830   -0.0690 n         1 PHR     -0.602500
     17 C6          1.1910    0.3980   -2.1020 c         1 PHR      0.750500
     18 O4          1.3360   -0.6260   -2.7930 o         1 PHR     -0.641500
     19 N7          1.6750    0.5370   -0.7420 n         1 PHR     -0.314000
     20 C8          1.2940    1.8310   -0.3280 cd        1 PHR      0.252200
     21 N1          1.4980    2.4240    0.8990 n         1 PHR     -0.376100
     22 C2          1.0910    3.7720    1.0420 c         1 PHR      0.808500
     23 O1          1.2520    4.3950    2.1140 o         1 PHR     -0.654500
     24 C10         1.7710   -0.6080    0.1340 c3        1 PHR     -0.003000
     25 C11         3.0810   -0.7000    0.9500 c3        1 PHR      0.140100
     26 O19         3.0510    0.1980    2.0310 oh        1 PHR     -0.642800
     27 C12         3.2320   -2.1560    1.4550 c3        1 PHR      0.111100
     28 O21         3.7250   -2.1700    2.7810 oh        1 PHR     -0.647800
     29 C13         4.2650   -2.9440    0.6310 c3        1 PHR      0.096100
     30 O23         4.2330   -2.6740   -0.7620 oh        1 PHR     -0.627800
     31 C14         4.0630   -4.4480    0.8440 c3        1 PHR      0.103400
     32 O26         4.9840   -5.2130    0.0850 oh        1 PHR     -0.630800
     33 H201       -2.3810   -0.2150    1.7990 h1        1 PHR     -0.007300
     34 H202       -2.7640   -1.8650    1.1050 h1        1 PHR     -0.007300
     35 H191       -0.7650   -1.3410   -0.5670 hc        1 PHR      0.043700
     36 H192       -1.0220    0.3800   -0.0690 hc        1 PHR      0.043700
     37 H181       -3.4130    0.2460   -0.8100 hc        1 PHR      0.023700
     38 H182       -3.1870   -1.4900   -1.2510 hc        1 PHR      0.023700
     39 H171       -2.9020   -0.3800   -3.3180 hc        1 PHR      0.030700
     40 H172       -1.2150   -0.7030   -2.7630 hc        1 PHR      0.030700
     41 H161       -1.8100    1.8420   -1.6260 hc        1 PHR      0.049700
     42 H162       -2.6580    1.8840   -3.2150 hc        1 PHR      0.049700
     43 H151       -0.5910    2.7160   -3.8090 h1        1 PHR      0.062200
     44 H152       -0.3690    0.9330   -4.2070 h1        1 PHR      0.062200
     45 H3          0.2850    5.4180    0.0960 hn        1 PHR      0.327500
     46 H1          1.4540    1.8210    1.7430 hn        1 PHR      0.454500
     47 H101        1.6580   -1.5220   -0.5130 h1        1 PHR      0.114700
     48 H102        0.9080   -0.5840    0.8940 h1        1 PHR      0.114700
     49 H11         3.9780   -0.4050    0.3400 h1        1 PHR      0.053700
     50 H19         2.2680   -0.0400    2.5910 ho        1 PHR      0.485000
     51 H12         2.2270   -2.6670    1.4310 h1        1 PHR      0.078700
     52 H21         2.9880   -1.8730    3.3530 ho        1 PHR      0.493000
     53 H13         5.3060   -2.6540    0.9490 h1        1 PHR      0.078700
     54 H23         3.3150   -2.5160   -1.0130 ho        1 PHR      0.414000
     55 H141        3.0180   -4.7450    0.5570 h1        1 PHR      0.052700
     56 H142        4.2530   -4.7110    1.9170 h1        1 PHR      0.052700
     57 H26         5.0510   -4.7870   -0.7800 ho        1 PHR      0.405000
@<TRIPOS>BOND
     1    1    2 1   
     2    2    3 1   
     3    2    4 1   
     4    2    5 1   
     5    5    6 1   
     6    6    7 1   
     7    6   33 1   
     8    6   34 1   
     9    7    8 1   
    10    7   35 1   
    11    7   36 1   
    12    8    9 1   
    13    8   37 1   
    14    8   38 1   
    15    9   10 1   
    16    9   39 1   
    17    9   40 1   
    18   10   11 1   
    19   10   41 1   
    20   10   42 1   
    21   11   12 1   
    22   11   43 1   
    23   11   44 1   
    24   12   13 1   
    25   12   17 1   
    26   13   14 1   
    27   13   20 2   
    28   14   15 2   
    29   14   16 1   
    30   16   22 1   
    31   16   45 1   
    32   17   18 2   
    33   17   19 1   
    34   19   20 1   
    35   19   24 1   
    36   20   21 1   
    37   21   22 1   
    38   21   46 1   
    39   22   23 2   
    40   24   25 1   
    41   24   47 1   
    42   24   48 1   
    43   25   26 1   
    44   25   27 1   
    45   25   49 1   
    46   26   50 1   
    47   27   28 1   
    48   27   29 1   
    49   27   51 1   
    50   28   52 1   
    51   29   30 1   
    52   29   31 1   
    53   29   53 1   
    54   30   54 1   
    55   31   32 1   
    56   31   55 1   
    57   31   56 1   
    58   32   57 1   
@<TRIPOS>SUBSTRUCTURE
     1 PHR         1 TEMP              0 ****  ****    0 ROOT
