@<TRIPOS>MOLECULE
PHR
   57    58     1     0     0
SMALL
bcc


@<TRIPOS>ATOM
      1 O2P         1.7140   -1.3860   -1.4850 o         1 PHR     -0.934833
      2 P           3.1500   -0.9810   -1.6630 p5        1 PHR      1.313900
      3 O3P         4.1930   -1.9240   -1.1200 o         1 PHR     -0.934833
      4 O1P         3.5150   -0.3140   -2.9640 o         1 PHR     -0.934833
      5 O27         3.2990    0.3700   -0.5610 os        1 PHR     -0.560200
      6 C20         4.5740    0.8480   -0.4590 c3        1 PHR      0.246400
      7 C19         4.7180    2.2300   -1.1240 c3        1 PHR     -0.132400
      8 C18         6.1440    2.7230   -1.0370 c3        1 PHR     -0.067400
      9 C17         6.3170    4.0630   -1.7250 c3        1 PHR     -0.077400
     10 C16         7.7750    4.4740   -1.7530 c3        1 PHR     -0.107400
     11 C15         7.9350    5.8270   -2.4410 c3        1 PHR      0.052000
     12 N5          9.2990    6.2810   -2.6590 n         1 PHR     -0.242000
     13 C9         10.0940    6.7110   -1.5560 cc        1 PHR     -0.244600
     14 C4          9.7220    7.5750   -0.4480 c         1 PHR      0.759700
     15 O2          8.6050    8.0640   -0.2210 o         1 PHR     -0.601500
     16 N3         10.7870    7.8790    0.4340 n         1 PHR     -0.588500
     17 C6         10.1740    5.4420   -3.4470 c         1 PHR      0.759500
     18 O4          9.9300    4.8760   -4.5200 o         1 PHR     -0.586500
     19 N7         11.5250    5.5090   -2.8960 n         1 PHR     -0.371000
     20 C8         11.4220    6.2580   -1.7070 cd        1 PHR      0.158200
     21 N1         12.4220    6.5740   -0.8050 n         1 PHR     -0.445100
     22 C2         12.1040    7.4280    0.2750 c         1 PHR      0.815500
     23 O1         13.0080    7.7660    1.0720 o         1 PHR     -0.657500
     24 C10        12.5210    4.5110   -3.1500 c3        1 PHR      0.091000
     25 C11        13.8000    5.0750   -3.8030 c3        1 PHR      0.109100
     26 O19        14.4980    5.7910   -2.7940 oh        1 PHR     -0.627800
     27 C12        14.6780    3.9160   -4.3120 c3        1 PHR      0.114100
     28 O21        15.4090    3.3190   -3.2620 oh        1 PHR     -0.586800
     29 C13        15.6450    4.3800   -5.4170 c3        1 PHR      0.107100
     30 O23        16.1510    5.6530   -5.0400 oh        1 PHR     -0.628800
     31 C14        14.9310    4.4510   -6.7700 c3        1 PHR      0.090400
     32 O26        15.8820    4.9620   -7.6920 oh        1 PHR     -0.618800
     33 H201        5.3150    0.1370   -0.9270 h1        1 PHR     -0.023800
     34 H202        4.8520    0.9780    0.6340 h1        1 PHR     -0.023800
     35 H191        4.0290    2.9580   -0.6280 hc        1 PHR      0.044200
     36 H192        4.4030    2.1300   -2.1960 hc        1 PHR      0.044200
     37 H181        6.8210    1.9670   -1.5170 hc        1 PHR      0.025200
     38 H182        6.4550    2.8140    0.0370 hc        1 PHR      0.025200
     39 H171        5.7140    4.8430   -1.1910 hc        1 PHR      0.039700
     40 H172        5.9240    3.9930   -2.7730 hc        1 PHR      0.039700
     41 H161        8.1720    4.5270   -0.7060 hc        1 PHR      0.042200
     42 H162        8.3660    3.6940   -2.3030 hc        1 PHR      0.042200
     43 H151        7.4270    6.6270   -1.8300 h1        1 PHR      0.085200
     44 H152        7.4590    5.7810   -3.4620 h1        1 PHR      0.085200
     45 H3         10.6010    8.4440    1.2350 hn        1 PHR      0.351500
     46 H1         13.3760    6.3310   -0.9730 hn        1 PHR      0.375500
     47 H101       12.0710    3.7530   -3.8570 h1        1 PHR      0.086200
     48 H102       12.8200    3.9900   -2.1950 h1        1 PHR      0.086200
     49 H11        13.5480    5.7580   -4.6600 h1        1 PHR      0.065700
     50 H19        15.1660    6.3300   -3.2390 ho        1 PHR      0.431000
     51 H12        14.0380    3.0830   -4.7220 h1        1 PHR      0.093700
     52 H21        15.8180    4.0330   -2.7510 ho        1 PHR      0.418000
     53 H13        16.5040    3.6530   -5.4840 h1        1 PHR      0.066700
     54 H23        16.6590    5.9860   -5.7910 ho        1 PHR      0.429000
     55 H141       14.0430    5.1350   -6.7150 h1        1 PHR      0.045700
     56 H142       14.5980    3.4270   -7.0840 h1        1 PHR      0.045700
     57 H26        15.4260    5.0600   -8.5350 ho        1 PHR      0.412000
@<TRIPOS>BOND
     1    1    2 1   
     2    2    3 1   
     3    2    4 1   
     4    2    5 1   
     5    5    6 1   
     6    6    7 1   
     7    6   33 1   
     8    6   34 1   
     9    7    8 1   
    10    7   35 1   
    11    7   36 1   
    12    8    9 1   
    13    8   37 1   
    14    8   38 1   
    15    9   10 1   
    16    9   39 1   
    17    9   40 1   
    18   10   11 1   
    19   10   41 1   
    20   10   42 1   
    21   11   12 1   
    22   11   43 1   
    23   11   44 1   
    24   12   13 1   
    25   12   17 1   
    26   13   14 1   
    27   13   20 2   
    28   14   15 2   
    29   14   16 1   
    30   16   22 1   
    31   16   45 1   
    32   17   18 2   
    33   17   19 1   
    34   19   20 1   
    35   19   24 1   
    36   20   21 1   
    37   21   22 1   
    38   21   46 1   
    39   22   23 2   
    40   24   25 1   
    41   24   47 1   
    42   24   48 1   
    43   25   26 1   
    44   25   27 1   
    45   25   49 1   
    46   26   50 1   
    47   27   28 1   
    48   27   29 1   
    49   27   51 1   
    50   28   52 1   
    51   29   30 1   
    52   29   31 1   
    53   29   53 1   
    54   30   54 1   
    55   31   32 1   
    56   31   55 1   
    57   31   56 1   
    58   32   57 1   
@<TRIPOS>SUBSTRUCTURE
     1 PHR         1 TEMP              0 ****  ****    0 ROOT
