@<TRIPOS>MOLECULE
PHS
    5     4     1     0     0
SMALL
bcc


@<TRIPOS>ATOM
      1 P          -0.0180   -0.1080    0.0720 p5        1 PHS      1.261900
      2 O1P         1.4880    0.0180   -0.0160 o         1 PHS     -0.972500
      3 O2P        -0.5940    0.1090    1.4550 o         1 PHS     -0.972500
      4 O3P        -0.6020   -1.2840   -0.6820 o         1 PHS     -0.972500
      5 HP1        -0.4810    1.0060   -0.6520 hp        1 PHS     -0.345400
@<TRIPOS>BOND
     1    1    2 1   
     2    1    3 1   
     3    1    4 1   
     4    1    5 1   
@<TRIPOS>SUBSTRUCTURE
     1 PHS         1 TEMP              0 ****  ****    0 ROOT
