@<TRIPOS>MOLECULE
PHS
    5     4     1     0     0
SMALL
bcc


@<TRIPOS>ATOM
      1 P           0.7010   -1.9710    0.4760 p5        1 PHS      1.261900
      2 O1P        -0.1740   -2.8430   -0.3990 o         1 PHS     -0.972500
      3 O2P         0.4550   -2.1130    1.9630 o         1 PHS     -0.972500
      4 O3P         0.8630   -0.5450   -0.0070 o         1 PHS     -0.972500
      5 HP1         1.9840   -2.5200    0.3040 hp        1 PHS     -0.345400
@<TRIPOS>BOND
     1    1    2 1   
     2    1    3 1   
     3    1    4 1   
     4    1    5 1   
@<TRIPOS>SUBSTRUCTURE
     1 PHS         1 TEMP              0 ****  ****    0 ROOT
