@<TRIPOS>MOLECULE
PHT
   16    13     1     0     0
SMALL
bcc


@<TRIPOS>ATOM
      1 O8         -2.3440    0.6560   -1.8290 o         1 PHT     -0.586000
      2 O9         -0.4550    1.2250   -2.7590 o         1 PHT     -0.586000
      3 C10        -0.4200    2.1040    0.5920 c1        1 PHT      0.373000
      4 O11        -1.5250    2.3930    1.1230 o         1 PHT     -0.586000
      5 O12         0.3460    3.0200    0.1940 os        1 PHT     -0.586000
      6 C7         -1.0850    0.6560   -1.8290 c2        1 PHT      0.373000
      7 C1          0.6840    0.0220    1.4590 c1        1 PHT     -0.165500
      8 C2         -0.0100    0.6560    0.4400 c1        1 PHT     -0.048000
      9 C3         -0.3280   -0.0370   -0.7170 c2        1 PHT     -0.048000
     10 C4          0.0480   -1.3640   -0.8570 c2        1 PHT     -0.141000
     11 C5          0.7420   -1.9980    0.1620 c1        1 PHT     -0.190000
     12 C6          1.0600   -1.3050    1.3190 c1        1 PHT     -0.165500
     13 H1          0.9100    0.5100    2.2730 ha        1 PHT      0.089500
     14 H4         -0.1780   -1.8520   -1.6710 ha        1 PHT      0.106000
     15 H5          1.0060   -2.9320    0.0640 ha        1 PHT      0.073000
     16 H6          1.5490   -1.7520    2.0370 ha        1 PHT      0.089500
@<TRIPOS>BOND
     1    1    6 1   
     2    2    6 1   
     3    3    4 1   
     4    3    8 1   
     5    6    9 1   
     6    7   12 1   
     7    7   13 1   
     8    8    9 1   
     9    9   10 1   
    10   10   11 1   
    11   10   14 1   
    12   11   15 1   
    13   12   16 1   
@<TRIPOS>SUBSTRUCTURE
     1 PHT         1 TEMP              0 ****  ****    0 ROOT
