@<TRIPOS>MOLECULE
PHT
   16    16     1     0     0
SMALL
bcc


@<TRIPOS>ATOM
      1 O8          1.4980    1.4840    1.7240 o         1 PHT     -0.851300
      2 O9          1.8440   -0.7080    1.8420 o         1 PHT     -0.851300
      3 O11        -2.0970   -1.3760    0.9780 o         1 PHT     -0.851300
      4 O12        -2.4430    0.8150    0.8590 o         1 PHT     -0.851300
      5 C7          1.3630    0.3110    1.2650 c         1 PHT      0.924200
      6 C1         -1.0010   -0.2250   -1.7550 ca        1 PHT     -0.141000
      7 C2         -0.6170   -0.0920   -0.4090 ca        1 PHT     -0.068600
      8 C3          0.7350    0.1380   -0.1130 ca        1 PHT     -0.068600
      9 C4          1.6540    0.2250   -1.1730 ca        1 PHT     -0.141000
     10 C5          1.2610    0.0910   -2.5010 ca        1 PHT     -0.190000
     11 C6         -0.0820   -0.1370   -2.7960 ca        1 PHT     -0.190000
     12 H1         -2.0620   -0.4050   -1.9800 ha        1 PHT      0.106000
     13 H4          2.7120    0.4050   -0.9340 ha        1 PHT      0.106000
     14 H5          2.0010    0.1640   -3.3090 ha        1 PHT      0.073000
     15 H6         -0.4100   -0.2450   -3.8380 ha        1 PHT      0.073000
     16 C10        -1.7710   -0.2200    0.5780 c         1 PHT      0.924200
@<TRIPOS>BOND
     1    1    5 1   
     2    2    5 1   
     3    3   16 1   
     4    4   16 1   
     5    5    8 1   
     6    6    7 ar  
     7    6   11 ar  
     8    6   12 1   
     9    7    8 ar  
    10    7   16 1   
    11    8    9 ar  
    12    9   10 ar  
    13    9   13 1   
    14   10   11 ar  
    15   10   14 1   
    16   11   15 1   
@<TRIPOS>SUBSTRUCTURE
     1 PHT         1 TEMP              0 ****  ****    0 ROOT
