@<TRIPOS>MOLECULE
PHT
   16    16     1     0     0
SMALL
bcc


@<TRIPOS>ATOM
      1 O8         -0.0280   -1.2020   -0.4310 o         1 PHT     -0.851300
      2 O9          1.4210    0.3150   -1.1620 o         1 PHT     -0.851300
      3 O11         0.8440    2.5060    2.2430 o         1 PHT     -0.851300
      4 O12        -0.6050    0.9890    2.9740 o         1 PHT     -0.851300
      5 C7          0.9650   -0.4380   -0.2510 c         1 PHT      0.924200
      6 C1          2.3620   -0.0420    3.3380 ca        1 PHT     -0.141000
      7 C2          1.5390    0.2080    2.2260 ca        1 PHT     -0.068600
      8 C3          1.7370   -0.5440    1.0580 ca        1 PHT     -0.068600
      9 C4          2.7510   -1.5180    1.0450 ca        1 PHT     -0.141000
     10 C5          3.5590   -1.7560    2.1520 ca        1 PHT     -0.190000
     11 C6          3.3620   -1.0090    3.3120 ca        1 PHT     -0.190000
     12 H1          2.2020    0.5510    4.2510 ha        1 PHT      0.106000
     13 H4          3.9900   -1.1830    4.1960 ha        1 PHT      0.073000
     14 H5          2.9010   -2.1030    0.1260 ha        1 PHT      0.106000
     15 H6          4.3430   -2.5230    2.1130 ha        1 PHT      0.073000
     16 C10         0.5060    1.3040    2.4560 c         1 PHT      0.924200
@<TRIPOS>BOND
     1    1    5 1   
     2    2    5 1   
     3    3   16 1   
     4    4   16 1   
     5    5    8 1   
     6    6    7 ar  
     7    6   11 ar  
     8    6   12 1   
     9    7    8 ar  
    10    7   16 1   
    11    8    9 ar  
    12    9   10 ar  
    13    9   14 1   
    14   10   11 ar  
    15   10   15 1   
    16   11   13 1   
@<TRIPOS>SUBSTRUCTURE
     1 PHT         1 TEMP              0 ****  ****    0 ROOT
