@<TRIPOS>MOLECULE
PHU
   19    19     1     0     0
SMALL
bcc


@<TRIPOS>ATOM
      1 C1         -0.0610    0.0400   -0.0390 c         1 PHU      0.641100
      2 C2          2.0220   -0.0890   -1.3030 ca        1 PHU     -0.014400
      3 C3          1.5420    0.4680   -2.5020 ca        1 PHU     -0.125000
      4 C4          3.2680   -0.7510   -1.2760 ca        1 PHU     -0.125000
      5 C5          4.0210   -0.8340   -2.4430 ca        1 PHU     -0.099500
      6 C6          2.3140    0.3670   -3.6580 ca        1 PHU     -0.099500
      7 C7          3.5490   -0.2790   -3.6340 ca        1 PHU     -0.096000
      8 N1          1.3010    0.0330   -0.0750 n         1 PHU     -0.398100
      9 N2         -0.7250    0.0020    1.3620 n4        1 PHU     -0.763400
     10 O1         -0.8990    0.1440   -0.9360 o         1 PHU     -0.467100
     11 H3          0.5650    0.9760   -2.5460 ha        1 PHU      0.151500
     12 H4          3.6610   -1.1960   -0.3490 ha        1 PHU      0.151500
     13 H5          4.9970   -1.3460   -2.4220 ha        1 PHU      0.162000
     14 H6          1.9370    0.8050   -4.5970 ha        1 PHU      0.162000
     15 H7          4.1520   -0.3530   -4.5530 ha        1 PHU      0.163000
     16 HN1         1.8350   -0.1230    0.7550 hn        1 PHU      0.347500
     17 HN2        -0.5120   -0.8720    1.8450 hn        1 PHU      0.469133
     18 HN2A       -1.7420    0.0640    1.2100 hn        1 PHU      0.469133
     19 H23        -0.4250    0.7930    1.9360 hn        1 PHU      0.469133
@<TRIPOS>BOND
     1    1    8 1   
     2    1    9 1   
     3    1   10 2   
     4    2    3 ar  
     5    2    4 ar  
     6    2    8 1   
     7    3    6 ar  
     8    3   11 1   
     9    4    5 ar  
    10    4   12 1   
    11    5    7 ar  
    12    5   13 1   
    13    6    7 ar  
    14    6   14 1   
    15    7   15 1   
    16    8   16 1   
    17    9   17 1   
    18    9   18 1   
    19    9   19 1   
@<TRIPOS>SUBSTRUCTURE
     1 PHU         1 TEMP              0 ****  ****    0 ROOT
