@<TRIPOS>MOLECULE
PHU
   20    20     1     0     0
SMALL
bcc


@<TRIPOS>ATOM
      1 C1          0.0150    0.4930    0.5140 c         1 PHU      0.477100
      2 C2          1.9480    0.3570   -1.0570 ca        1 PHU     -0.172400
      3 C3          1.5460    0.5450   -2.3990 ca        1 PHU     -0.104500
      4 C4          3.0680   -0.4400   -0.7400 ca        1 PHU     -0.104500
      5 C5          3.7710   -1.0530   -1.7750 ca        1 PHU     -0.088000
      6 C6          2.2670   -0.0790   -3.4100 ca        1 PHU     -0.088000
      7 C7          3.3810   -0.8740   -3.1050 ca        1 PHU     -0.016000
      8 N1          1.2800    1.1110    0.0030 n4        1 PHU     -0.482200
      9 N2         -0.4220   -0.8100   -0.0680 n4        1 PHU     -0.716400
     10 O1         -0.6570    1.0250    1.3790 o         1 PHU     -0.265100
     11 H3          0.7050    1.2080   -2.6680 ha        1 PHU      0.172000
     12 H4          3.4210   -0.5680    0.2990 ha        1 PHU      0.172000
     13 H5          4.6600   -1.6700   -1.5360 ha        1 PHU      0.206000
     14 H6          1.9690    0.0720   -4.4660 ha        1 PHU      0.206000
     15 H7          3.9600   -1.3490   -3.9220 ha        1 PHU      0.209000
     16 HN1         1.9240    1.2240    0.8150 hn        1 PHU      0.521800
     17 HN2        -1.4410   -0.9260    0.1090 hn        1 PHU      0.517133
     18 HN2A       -0.2420   -0.8550   -1.0870 hn        1 PHU      0.517133
     19 H12         1.0390    2.0630   -0.3480 hn        1 PHU      0.521800
     20 H23         0.0800   -1.5890    0.3930 hn        1 PHU      0.517133
@<TRIPOS>BOND
     1    1    8 1   
     2    1    9 1   
     3    1   10 2   
     4    2    3 ar  
     5    2    4 ar  
     6    2    8 1   
     7    3    6 ar  
     8    3   11 1   
     9    4    5 ar  
    10    4   12 1   
    11    5    7 ar  
    12    5   13 1   
    13    6    7 ar  
    14    6   14 1   
    15    7   15 1   
    16    8   16 1   
    17    8   19 1   
    18    9   17 1   
    19    9   18 1   
    20    9   20 1   
@<TRIPOS>SUBSTRUCTURE
     1 PHU         1 TEMP              0 ****  ****    0 ROOT
