@<TRIPOS>MOLECULE
PHU
   18    18     1     0     0
SMALL
bcc


@<TRIPOS>ATOM
      1 C1         -2.1750   -0.0870    0.0240 c         1 PHU      0.750100
      2 C2          0.2640    0.3340   -0.1480 ca        1 PHU      0.061600
      3 C3          0.6830   -1.0070   -0.2810 ca        1 PHU     -0.159500
      4 C4          1.2390    1.3300    0.0990 ca        1 PHU     -0.159500
      5 C5          2.5830    0.9870    0.2000 ca        1 PHU     -0.108000
      6 C6          2.0330   -1.3280   -0.1690 ca        1 PHU     -0.108000
      7 C7          2.9870   -0.3410    0.0680 ca        1 PHU     -0.152000
      8 N1         -1.0770    0.7300   -0.3220 n         1 PHU     -0.458100
      9 N2         -3.4490    0.5020    0.0780 n         1 PHU     -0.650000
     10 O1         -2.0630   -1.3070    0.2850 o         1 PHU     -0.623100
     11 H3         -0.0540   -1.8070   -0.4600 ha        1 PHU      0.149000
     12 H4          0.9460    2.3850    0.2100 ha        1 PHU      0.149000
     13 H5          3.3290    1.7730    0.3890 ha        1 PHU      0.133000
     14 H6          2.3440   -2.3790   -0.2710 ha        1 PHU      0.133000
     15 H7          4.0510   -0.6060    0.1520 ha        1 PHU      0.133000
     16 HN1        -1.2200    1.7170   -0.2820 hn        1 PHU      0.306500
     17 HN2        -3.6270    1.3290   -0.4360 hn        1 PHU      0.303000
     18 HN2A       -4.1970   -0.1500    0.1290 hn        1 PHU      0.303000
@<TRIPOS>BOND
     1    1    8 1   
     2    1    9 1   
     3    1   10 2   
     4    2    3 ar  
     5    2    4 ar  
     6    2    8 1   
     7    3    6 ar  
     8    3   11 1   
     9    4    5 ar  
    10    4   12 1   
    11    5    7 ar  
    12    5   13 1   
    13    6    7 ar  
    14    6   14 1   
    15    7   15 1   
    16    8   16 1   
    17    9   17 1   
    18    9   18 1   
@<TRIPOS>SUBSTRUCTURE
     1 PHU         1 TEMP              0 ****  ****    0 ROOT
