@<TRIPOS>MOLECULE
PHV
   83    86     1     0     0
SMALL
bcc


@<TRIPOS>ATOM
      1 C14        -1.5510   -0.3290    0.6900 c         1 PHV      0.735100
      2 O14        -2.1950    0.0090    1.7030 o         1 PHV     -0.627000
      3 O15        -1.1560   -1.6460    0.5590 os        1 PHV     -0.411900
      4 C16        -1.2360   -2.4630    1.7300 c3        1 PHV      0.182700
      5 C41        -2.4410   -3.3470    1.7050 ca        1 PHV     -0.086300
      6 C42        -2.9310   -3.8680    2.9090 ca        1 PHV     -0.113500
      7 C43        -4.0270   -4.7280    2.9060 ca        1 PHV     -0.139500
      8 C44        -4.6460   -5.0710    1.7040 ca        1 PHV     -0.146000
      9 C45        -4.1630   -4.5520    0.5030 ca        1 PHV     -0.139500
     10 C46        -3.0630   -3.6950    0.5010 ca        1 PHV     -0.113500
     11 C22        -4.2230    1.2460   -0.5310 ca        1 PHV     -0.118000
     12 C23        -5.4450    0.6250   -0.7850 ca        1 PHV     -0.138750
     13 C24        -5.9690    0.6010   -2.0760 ca        1 PHV     -0.144000
     14 C25        -5.2590    1.1950   -3.1190 ca        1 PHV     -0.138750
     15 C26        -4.0360    1.8140   -2.8690 ca        1 PHV     -0.118000
     16 C21        -3.5070    1.8510   -1.5710 ca        1 PHV     -0.056800
     17 C12        -2.2010    2.5510   -1.3510 c3        1 PHV      0.012900
     18 C11        -1.2850    1.8800   -0.2910 c3        1 PHV      0.020700
     19 C10         0.1650    2.4290   -0.4670 c         1 PHV      0.659100
     20 O10         0.5280    2.8230   -1.5940 o         1 PHV     -0.616100
     21 N13        -1.2460    0.4340   -0.4270 n         1 PHV     -0.490900
     22 C31        -2.4250    3.9880   -0.9700 ca        1 PHV     -0.056800
     23 C36        -3.4010    4.3560   -0.0370 ca        1 PHV     -0.118000
     24 C35        -3.6000    5.6980    0.2850 ca        1 PHV     -0.138750
     25 C34        -2.8230    6.6850   -0.3190 ca        1 PHV     -0.144000
     26 C33        -1.8390    6.3250   -1.2400 ca        1 PHV     -0.138750
     27 C32        -1.6380    4.9850   -1.5630 ca        1 PHV     -0.118000
     28 N9          0.9930    2.5020    0.6350 n         1 PHV     -0.427800
     29 C8          2.4160    2.1650    0.4970 c3        1 PHV      0.003700
     30 C7          2.6630    0.7970   -0.2170 c         1 PHV      0.640100
     31 O7          1.6750    0.1680   -0.6800 o         1 PHV     -0.715100
     32 C8A         2.9890    2.1110    1.9300 c3        1 PHV     -0.120400
     33 C8B         1.7880    2.0540    2.8670 c3        1 PHV     -0.075400
     34 C8C         0.5380    2.2220    1.9890 c3        1 PHV      0.071000
     35 P           5.4860   -0.6420    1.5150 p5        1 PHV      1.190700
     36 C1          6.9390   -4.5510   -0.0480 c3        1 PHV      0.097700
     37 C2          4.7360   -4.1400    0.7420 c3        1 PHV      0.091400
     38 O2          5.6660   -5.1060    0.2440 os        1 PHV     -0.469600
     39 C4          3.5650   -2.0120    0.1110 c3        1 PHV     -0.069400
     40 C5          4.5230   -0.8680   -0.0940 c3        1 PHV     -0.106500
     41 N6          3.9760    0.4440   -0.3600 n         1 PHV     -0.460900
     42 OP3         4.3880   -0.6350    2.5490 o         1 PHV     -0.920500
     43 H16        -0.2980   -3.0860    1.6690 h1        1 PHV      0.090700
     44 H16A       -1.2190   -1.8340    2.6600 h1        1 PHV      0.090700
     45 H42        -2.4470   -3.5930    3.8580 ha        1 PHV      0.144500
     46 H43        -4.4050   -5.1350    3.8550 ha        1 PHV      0.118500
     47 H44        -5.5110   -5.7480    1.7040 ha        1 PHV      0.113000
     48 H45        -4.6480   -4.8190   -0.4460 ha        1 PHV      0.118500
     49 H46        -2.6750   -3.2810   -0.4430 ha        1 PHV      0.144500
     50 H22        -3.8070    1.2310    0.4920 ha        1 PHV      0.148500
     51 H23        -5.9900    0.1430    0.0400 ha        1 PHV      0.120250
     52 H24        -6.9310    0.1080   -2.2740 ha        1 PHV      0.114000
     53 H25        -5.6600    1.1710   -4.1420 ha        1 PHV      0.120250
     54 H26        -3.4760    2.2720   -3.6980 ha        1 PHV      0.148500
     55 H12        -1.6280    2.5290   -2.3290 hc        1 PHV      0.097700
     56 H11        -1.6910    2.1580    0.7290 h1        1 PHV      0.086700
     57 HN13       -0.4890    0.0790   -0.9930 hn        1 PHV      0.366500
     58 H36        -4.0130    3.5780    0.4460 ha        1 PHV      0.148500
     59 H35        -4.3670    5.9740    1.0210 ha        1 PHV      0.120250
     60 H34        -2.9780    7.7420   -0.0620 ha        1 PHV      0.114000
     61 H33        -1.2110    7.0980   -1.7050 ha        1 PHV      0.120250
     62 H32        -0.8340    4.6930   -2.2620 ha        1 PHV      0.148500
     63 H8          2.9020    2.9760   -0.1130 h1        1 PHV      0.069700
     64 H8A         3.6650    1.2030    2.1020 hc        1 PHV      0.115200
     65 H8AA        3.6030    3.0240    2.1180 hc        1 PHV      0.115200
     66 H8B         1.7630    1.0680    3.3950 hc        1 PHV      0.048200
     67 H8BA        1.8330    2.8630    3.6350 hc        1 PHV      0.048200
     68 H8C        -0.0910    3.0870    2.3350 h1        1 PHV      0.028700
     69 H8CA       -0.0940    1.2910    2.0390 h1        1 PHV      0.028700
     70 H1          7.1180   -3.5860    0.5040 h1        1 PHV      0.035700
     71 H1A         7.6830   -5.3320    0.2510 h1        1 PHV      0.035700
     72 H1B         7.0060   -4.3820   -1.1530 h1        1 PHV      0.035700
     73 H2          3.9710   -4.7600    1.2800 h1        1 PHV      0.078700
     74 H2A         5.2500   -3.4220    1.4580 h1        1 PHV      0.078700
     75 H3          4.8610   -3.1910   -1.1940 hc        1 PHV      0.012200
     76 H3A         3.2630   -3.9420   -0.8390 hc        1 PHV      0.012200
     77 H4          2.5870   -1.8280   -0.4130 hc        1 PHV      0.051200
     78 H4A         3.3410   -2.0720    1.2140 hc        1 PHV      0.051200
     79 H5          5.2450   -1.0870   -0.9180 h1        1 PHV      0.040700
     80 HN6         4.6300    1.1340    0.0140 hn        1 PHV      0.330500
     81 OP1         6.4390   -1.8070    1.5350 o         1 PHV     -0.920500
     82 C3          4.0990   -3.3470   -0.3870 c3        1 PHV     -0.080400
     83 OP2         6.0970    0.7250    1.3180 o         1 PHV     -0.920500
@<TRIPOS>BOND
     1    1    2 2   
     2    1    3 1   
     3    1   21 1   
     4    3    4 1   
     5    4    5 1   
     6    4   43 1   
     7    4   44 1   
     8    5    6 ar  
     9    5   10 ar  
    10    6    7 ar  
    11    6   45 1   
    12    7    8 ar  
    13    7   46 1   
    14    8    9 ar  
    15    8   47 1   
    16    9   10 ar  
    17    9   48 1   
    18   10   49 1   
    19   11   12 ar  
    20   11   16 ar  
    21   11   50 1   
    22   12   13 ar  
    23   12   51 1   
    24   13   14 ar  
    25   13   52 1   
    26   14   15 ar  
    27   14   53 1   
    28   15   16 ar  
    29   15   54 1   
    30   16   17 1   
    31   17   18 1   
    32   17   22 1   
    33   17   55 1   
    34   18   19 1   
    35   18   21 1   
    36   18   56 1   
    37   19   20 2   
    38   19   28 1   
    39   21   57 1   
    40   22   23 ar  
    41   22   27 ar  
    42   23   24 ar  
    43   23   58 1   
    44   24   25 ar  
    45   24   59 1   
    46   25   26 ar  
    47   25   60 1   
    48   26   27 ar  
    49   26   61 1   
    50   27   62 1   
    51   28   29 1   
    52   28   34 1   
    53   29   30 1   
    54   29   32 1   
    55   29   63 1   
    56   30   31 2   
    57   30   41 1   
    58   32   33 1   
    59   32   64 1   
    60   32   65 1   
    61   33   34 1   
    62   33   66 1   
    63   33   67 1   
    64   34   68 1   
    65   34   69 1   
    66   35   40 1   
    67   35   42 1   
    68   35   81 1   
    69   35   83 1   
    70   36   38 1   
    71   36   70 1   
    72   36   71 1   
    73   36   72 1   
    74   37   38 1   
    75   37   73 1   
    76   37   74 1   
    77   37   82 1   
    78   39   40 1   
    79   39   77 1   
    80   39   78 1   
    81   39   82 1   
    82   40   41 1   
    83   40   79 1   
    84   41   80 1   
    85   75   82 1   
    86   76   82 1   
@<TRIPOS>SUBSTRUCTURE
     1 PHV         1 TEMP              0 ****  ****    0 ROOT
