@<TRIPOS>MOLECULE
PHX
   33    29     1     0     0
SMALL
bcc


@<TRIPOS>ATOM
      1 CAC         4.1400   -1.2040   -1.3150 c1        1 PHX     -0.096000
      2 CAB         5.5340   -1.2380   -1.3260 c1        1 PHX     -0.126750
      3 CAM         6.2190   -1.9860   -0.3750 c1        1 PHX     -0.126750
      4 CAQ         5.5150   -2.7010    0.5850 c1        1 PHX     -0.126750
      5 CAR         4.1190   -2.6670    0.5960 c1        1 PHX     -0.126750
      6 CAN         3.4350   -1.9180   -0.3550 c1        1 PHX     -0.010000
      7 CAO         1.8770   -1.9270   -0.3810 c2        1 PHX      0.045000
      8 NAD         1.2010   -1.1340    0.4280 n1        1 PHX     -0.100000
      9 OAS         1.1990   -2.2390   -1.5680 os        1 PHX     -0.231000
     10 CAT        -0.1190   -1.4940   -1.4400 c2        1 PHX      0.329000
     11 OAU        -1.1520   -1.7600   -2.0290 o         1 PHX     -0.335000
     12 CAE        -0.0110   -0.7730   -0.0450 c1        1 PHX     -0.353000
     13 CAF        -0.9390    0.0390    0.5550 c1        1 PHX      0.167000
     14 NAG        -2.1970    0.3170   -0.1100 n2        1 PHX     -0.267000
     15 CAH        -3.3400    0.7610    0.6590 c3        1 PHX     -0.049000
     16 CAI        -3.8150    2.1300    0.1310 c3        1 PHX     -0.167000
     17 CAJ        -4.8760    2.7080    1.0870 c3        1 PHX     -0.233000
     18 CAK        -5.1490    4.1610    0.7250 c2        1 PHX      0.333000
     19 OAL        -5.8530    4.4380   -0.2900 o         1 PHX     -0.575500
     20 OAP        -4.6090    5.0860    1.3870 o         1 PHX     -0.575500
     21 HAC         3.6600   -0.6350   -1.9500 ha        1 PHX      0.157000
     22 HAB         6.0270   -0.7360   -2.0000 ha        1 PHX      0.134000
     23 HAM         7.1900   -2.0520   -0.4150 ha        1 PHX      0.134000
     24 HAQ         6.0000   -3.2320    1.2600 ha        1 PHX      0.134000
     25 HAR         3.6240   -3.1680    1.2700 ha        1 PHX      0.134000
     26 HAF        -0.7510    0.4330    1.4370 ha        1 PHX      0.168000
     27 HAG        -2.2640    0.2300   -1.0140 hn        1 PHX      0.254000
     28 HAH1       -3.0870    0.8430    1.5980 h1        1 PHX      0.091500
     29 HAH2       -4.0660    0.1070    0.5720 h1        1 PHX      0.091500
     30 HAI1       -4.2070    2.0180   -0.7680 hc        1 PHX      0.101000
     31 HAI2       -3.0490    2.7460    0.0810 hc        1 PHX      0.101000
     32 HAJ1       -5.7080    2.1880    1.0060 hc        1 PHX      0.063000
     33 HAJ2       -4.5500    2.6570    2.0040 hc        1 PHX      0.063000
@<TRIPOS>BOND
     1    1    6 1   
     2    1   21 1   
     3    2    3 1   
     4    2   22 1   
     5    3   23 1   
     6    4    5 1   
     7    4   24 1   
     8    5   25 1   
     9    6    7 1   
    10    7    8 1   
    11    7    9 1   
    12    9   10 1   
    13   10   11 1   
    14   10   12 1   
    15   12   13 1   
    16   13   26 1   
    17   14   15 1   
    18   14   27 1   
    19   15   16 1   
    20   15   28 1   
    21   15   29 1   
    22   16   17 1   
    23   16   30 1   
    24   16   31 1   
    25   17   18 1   
    26   17   32 1   
    27   17   33 1   
    28   18   19 1   
    29   18   20 1   
@<TRIPOS>SUBSTRUCTURE
     1 PHX         1 TEMP              0 ****  ****    0 ROOT
