@<TRIPOS>MOLECULE
PHX
   34    35     1     0     0
SMALL
bcc


@<TRIPOS>ATOM
      1 CAC        -0.0720    0.3080    0.0260 ca        1 PHX     -0.085500
      2 CAB         1.2770   -0.0140   -0.0980 ca        1 PHX     -0.142000
      3 CAM         1.9490   -0.6420    0.9510 ca        1 PHX     -0.107000
      4 CAQ         1.2690   -0.9510    2.1290 ca        1 PHX     -0.142000
      5 CAR        -0.0820   -0.6330    2.2650 ca        1 PHX     -0.085500
      6 CAN        -0.7570   -0.0020    1.2110 ca        1 PHX     -0.123900
      7 CAO        -2.1670    0.3330    1.3450 cc        1 PHX      0.605200
      8 NAD        -3.0020    0.1350    2.3510 nd        1 PHX     -0.555300
      9 OAS        -2.7590    0.9790    0.2160 os        1 PHX     -0.443700
     10 CAT        -4.1000    1.2010    0.5720 c         1 PHX      0.709800
     11 OAU        -4.8270    1.7470   -0.2490 o         1 PHX     -0.588500
     12 CAE        -4.2600    0.6600    1.9380 cd        1 PHX     -0.172600
     13 CAF        -5.4150    0.6690    2.6780 c2        1 PHX      0.211000
     14 NAG        -6.5640    1.2590    2.2500 nh        1 PHX     -0.749000
     15 CAH        -7.8140    1.0660    2.9300 c3        1 PHX      0.208800
     16 CAI        -8.6620   -0.0920    2.3920 c3        1 PHX     -0.114400
     17 CAJ        -9.9510   -0.1850    3.1780 c3        1 PHX     -0.179400
     18 CAK       -10.8320   -1.2810    2.6560 c         1 PHX      0.623100
     19 OAL       -11.9300   -1.1510    2.1200 o         1 PHX     -0.476000
     20 OAP       -10.4300   -2.5820    2.7800 oh        1 PHX     -0.576100
     21 HAC        -0.6070    0.8050   -0.7990 ha        1 PHX      0.154500
     22 HAB         1.8130    0.2300   -1.0280 ha        1 PHX      0.137500
     23 HAM         3.0150   -0.8950    0.8490 ha        1 PHX      0.135000
     24 HAQ         1.7980   -1.4460    2.9570 ha        1 PHX      0.137500
     25 HAR        -0.6130   -0.8780    3.1980 ha        1 PHX      0.154500
     26 HAF        -5.4310    0.2170    3.6920 h4        1 PHX      0.165000
     27 HAG        -6.6010    1.6140    1.3150 hn        1 PHX      0.460800
     28 HAH1       -7.6200    0.8970    4.0270 h1        1 PHX      0.062700
     29 HAH2       -8.4050    2.0220    2.8250 h1        1 PHX      0.062700
     30 HAI1       -8.8920    0.0730    1.3060 hc        1 PHX      0.062200
     31 HAI2       -8.0930   -1.0550    2.4700 hc        1 PHX      0.062200
     32 HAJ1       -9.7350   -0.3800    4.2630 hc        1 PHX      0.081200
     33 HAJ2      -10.5150    0.7840    3.1100 hc        1 PHX      0.081200
     34 HAG2       -9.5600   -2.6200    3.2000 ho        1 PHX      0.423000
@<TRIPOS>BOND
     1    1    2 ar  
     2    1    6 ar  
     3    1   21 1   
     4    2    3 ar  
     5    2   22 1   
     6    3    4 ar  
     7    3   23 1   
     8    4    5 ar  
     9    4   24 1   
    10    5    6 ar  
    11    5   25 1   
    12    6    7 1   
    13    7    8 2   
    14    7    9 1   
    15    8   12 1   
    16    9   10 1   
    17   10   11 2   
    18   10   12 1   
    19   12   13 2   
    20   13   14 1   
    21   13   26 1   
    22   14   15 1   
    23   14   27 1   
    24   15   16 1   
    25   15   28 1   
    26   15   29 1   
    27   16   17 1   
    28   16   30 1   
    29   16   31 1   
    30   17   18 1   
    31   17   32 1   
    32   17   33 1   
    33   18   19 2   
    34   18   20 1   
    35   20   34 1   
@<TRIPOS>SUBSTRUCTURE
     1 PHX         1 TEMP              0 ****  ****    0 ROOT
