@<TRIPOS>MOLECULE
PHX
   34    35     1     0     0
SMALL
bcc


@<TRIPOS>ATOM
      1 CAC        -0.0400   -0.1180    0.0490 ca        1 PHX     -0.085000
      2 CAB         1.3320   -0.3480   -0.0180 ca        1 PHX     -0.142000
      3 CAM         2.0620   -0.5820    1.1480 ca        1 PHX     -0.106000
      4 CAQ         1.4180   -0.5860    2.3850 ca        1 PHX     -0.142000
      5 CAR         0.0450   -0.3570    2.4650 ca        1 PHX     -0.085000
      6 CAN        -0.6890   -0.1220    1.2930 ca        1 PHX     -0.124900
      7 CAO        -2.1220    0.1180    1.3670 cc        1 PHX      0.606200
      8 NAD        -2.9310    0.1580    2.4120 nd        1 PHX     -0.554300
      9 OAS        -2.7750    0.3500    0.1160 os        1 PHX     -0.443700
     10 CAT        -4.1290    0.5550    0.4330 c         1 PHX      0.709800
     11 OAU        -4.9060    0.7730   -0.4880 o         1 PHX     -0.588500
     12 CAE        -4.2340    0.4310    1.9030 cd        1 PHX     -0.169600
     13 CAF        -5.3800    0.5610    2.6420 c2        1 PHX      0.211000
     14 NAG        -6.5780    0.9050    2.0920 nh        1 PHX     -0.751000
     15 CAH        -7.8060    0.8100    2.8310 c3        1 PHX      0.205800
     16 CAI        -8.5690   -0.5060    2.6430 c3        1 PHX     -0.122400
     17 CAJ        -9.8620   -0.5000    3.4320 c3        1 PHX     -0.179400
     18 CAK       -11.0820   -0.4480    2.5610 c         1 PHX      0.621100
     19 OAL       -12.0680   -1.1800    2.6390 o         1 PHX     -0.477000
     20 OAP       -11.1800    0.5010    1.5810 oh        1 PHX     -0.576100
     21 HAC        -0.6210    0.0670   -0.8690 ha        1 PHX      0.155000
     22 HAB         1.8390   -0.3450   -0.9940 ha        1 PHX      0.138000
     23 HAM         3.1450   -0.7640    1.0910 ha        1 PHX      0.135000
     24 HAQ         1.9930   -0.7700    3.3050 ha        1 PHX      0.138000
     25 HAR        -0.4580   -0.3600    3.4440 ha        1 PHX      0.155000
     26 HAF        -5.3540    0.4270    3.7430 h4        1 PHX      0.168000
     27 HAG        -6.6480    0.9570    1.0950 hn        1 PHX      0.458800
     28 HAH1       -8.4640    1.6640    2.4960 h1        1 PHX      0.057700
     29 HAH2       -7.5920    0.9520    3.9290 h1        1 PHX      0.057700
     30 HAI1       -8.7750   -0.6780    1.5520 hc        1 PHX      0.068700
     31 HAI2       -7.9280   -1.3600    2.9890 hc        1 PHX      0.068700
     32 HAJ1       -9.9040    0.3750    4.1360 hc        1 PHX      0.086200
     33 HAJ2       -9.9300   -1.4320    4.0580 hc        1 PHX      0.086200
     34 HAG2      -10.3790    1.0420    1.5660 ho        1 PHX      0.422000
@<TRIPOS>BOND
     1    1    2 ar  
     2    1    6 ar  
     3    1   21 1   
     4    2    3 ar  
     5    2   22 1   
     6    3    4 ar  
     7    3   23 1   
     8    4    5 ar  
     9    4   24 1   
    10    5    6 ar  
    11    5   25 1   
    12    6    7 1   
    13    7    8 2   
    14    7    9 1   
    15    8   12 1   
    16    9   10 1   
    17   10   11 2   
    18   10   12 1   
    19   12   13 2   
    20   13   14 1   
    21   13   26 1   
    22   14   15 1   
    23   14   27 1   
    24   15   16 1   
    25   15   28 1   
    26   15   29 1   
    27   16   17 1   
    28   16   30 1   
    29   16   31 1   
    30   17   18 1   
    31   17   32 1   
    32   17   33 1   
    33   18   19 2   
    34   18   20 1   
    35   20   34 1   
@<TRIPOS>SUBSTRUCTURE
     1 PHX         1 TEMP              0 ****  ****    0 ROOT
