@<TRIPOS>MOLECULE
PHX
   34    35     1     0     0
SMALL
bcc


@<TRIPOS>ATOM
      1 CAC        -0.0370   -0.1390    0.0590 ca        1 PHX     -0.085000
      2 CAB         1.3360   -0.3670   -0.0020 ca        1 PHX     -0.142000
      3 CAM         2.0640   -0.5810    1.1690 ca        1 PHX     -0.106000
      4 CAQ         1.4180   -0.5660    2.4050 ca        1 PHX     -0.142000
      5 CAR         0.0450   -0.3380    2.4780 ca        1 PHX     -0.085000
      6 CAN        -0.6880   -0.1240    1.3020 ca        1 PHX     -0.124900
      7 CAO        -2.1210    0.1140    1.3690 cc        1 PHX      0.606200
      8 NAD        -2.9320    0.1690    2.4120 nd        1 PHX     -0.554300
      9 OAS        -2.7730    0.3240    0.1140 os        1 PHX     -0.443700
     10 CAT        -4.1280    0.5310    0.4250 c         1 PHX      0.709800
     11 OAU        -4.9040    0.7320   -0.5010 o         1 PHX     -0.588500
     12 CAE        -4.2340    0.4310    1.8970 cd        1 PHX     -0.169600
     13 CAF        -5.3830    0.5710    2.6310 c2        1 PHX      0.211000
     14 NAG        -6.5800    0.9030    2.0740 nu        1 PHX     -0.751000
     15 CAH        -7.8090    0.8180    2.8130 c3        1 PHX      0.205800
     16 CAI        -8.5690   -0.5030    2.6440 c3        1 PHX     -0.122400
     17 CAJ        -9.8640   -0.4860    3.4320 c3        1 PHX     -0.179400
     18 CAK       -11.0830   -0.4490    2.5580 c         1 PHX      0.621100
     19 OAL       -12.0680   -1.1810    2.6460 o         1 PHX     -0.477000
     20 OAP       -11.1800    0.4840    1.5630 oh        1 PHX     -0.576100
     21 HAC        -0.6160    0.0300   -0.8630 ha        1 PHX      0.155000
     22 HAB         1.8450   -0.3780   -0.9770 ha        1 PHX      0.138000
     23 HAM         3.1480   -0.7600    1.1170 ha        1 PHX      0.135000
     24 HAQ         1.9920   -0.7340    3.3280 ha        1 PHX      0.138000
     25 HAR        -0.4600   -0.3270    3.4570 ha        1 PHX      0.155000
     26 HAF        -5.3580    0.4550    3.7350 h4        1 PHX      0.168000
     27 HAG        -6.6480    0.9390    1.0760 hn        1 PHX      0.458800
     28 HAH1       -8.4680    1.6660    2.4630 h1        1 PHX      0.057700
     29 HAH2       -7.5970    0.9780    3.9090 h1        1 PHX      0.057700
     30 HAI1       -8.7740   -0.6930    1.5570 hc        1 PHX      0.068700
     31 HAI2       -7.9280   -1.3500    3.0060 hc        1 PHX      0.068700
     32 HAJ1       -9.9090    0.4000    4.1210 hc        1 PHX      0.086200
     33 HAJ2       -9.9320   -1.4070    4.0720 hc        1 PHX      0.086200
     34 HAG2      -10.3800    1.0260    1.5400 ho        1 PHX      0.422000
@<TRIPOS>BOND
     1    1    2 ar  
     2    1    6 ar  
     3    1   21 1   
     4    2    3 ar  
     5    2   22 1   
     6    3    4 ar  
     7    3   23 1   
     8    4    5 ar  
     9    4   24 1   
    10    5    6 ar  
    11    5   25 1   
    12    6    7 1   
    13    7    8 2   
    14    7    9 1   
    15    8   12 1   
    16    9   10 1   
    17   10   11 2   
    18   10   12 1   
    19   12   13 2   
    20   13   14 1   
    21   13   26 1   
    22   14   15 1   
    23   14   27 1   
    24   15   16 1   
    25   15   28 1   
    26   15   29 1   
    27   16   17 1   
    28   16   30 1   
    29   16   31 1   
    30   17   18 1   
    31   17   32 1   
    32   17   33 1   
    33   18   19 2   
    34   18   20 1   
    35   20   34 1   
@<TRIPOS>SUBSTRUCTURE
     1 PHX         1 TEMP              0 ****  ****    0 ROOT
