@<TRIPOS>MOLECULE
PHX
   33    34     1     0     0
SMALL
bcc


@<TRIPOS>ATOM
      1 CAC        -4.9480   -0.6700    0.5100 ca        1 PHX     -0.096500
      2 CAB        -6.2760   -0.5550    0.1090 ca        1 PHX     -0.143000
      3 CAM        -6.6270    0.3250   -0.9160 ca        1 PHX     -0.126000
      4 CAQ        -5.6440    1.0920   -1.5400 ca        1 PHX     -0.143000
      5 CAR        -4.3110    0.9850   -1.1470 ca        1 PHX     -0.096500
      6 CAN        -3.9570    0.1010   -0.1170 ca        1 PHX     -0.091900
      7 CAO        -2.5690   -0.0170    0.3010 cc        1 PHX      0.543200
      8 NAD        -1.4910    0.6200   -0.1260 nd        1 PHX     -0.517300
      9 OAS        -2.3080   -0.9660    1.3350 os        1 PHX     -0.453700
     10 CAT        -0.9180   -0.8970    1.5580 c         1 PHX      0.712800
     11 OAU        -0.4550   -1.6340    2.4250 o         1 PHX     -0.624500
     12 CAE        -0.4010    0.1130    0.6270 cd        1 PHX     -0.236600
     13 CAF         0.9230    0.5020    0.5010 c2        1 PHX      0.258000
     14 NAG         1.9070   -0.0040    1.2620 nh        1 PHX     -0.719000
     15 CAH         3.2880    0.4130    1.1370 c3        1 PHX      0.191800
     16 CAI         3.8880    0.3030   -0.2620 c3        1 PHX     -0.089400
     17 CAJ         5.3350    0.7320   -0.2390 c3        1 PHX     -0.205400
     18 CAK         5.8340    1.0670   -1.6620 c         1 PHX      0.912600
     19 OAL         5.0420    1.6650   -2.4440 o         1 PHX     -0.841300
     20 OAP         7.0180    0.7400   -1.9520 o         1 PHX     -0.841300
     21 HAC        -4.6640   -1.3640    1.3180 ha        1 PHX      0.155500
     22 HAB        -7.0500   -1.1610    0.6020 ha        1 PHX      0.129000
     23 HAM        -7.6760    0.4130   -1.2300 ha        1 PHX      0.124000
     24 HAQ        -5.9180    1.7850   -2.3490 ha        1 PHX      0.129000
     25 HAR        -3.5380    1.5910   -1.6450 ha        1 PHX      0.155500
     26 HAF         1.2080    1.2760   -0.2470 h4        1 PHX      0.187000
     27 HAG         1.6960   -0.7410    1.9030 hn        1 PHX      0.453800
     28 HAH1        3.3620    1.4850    1.4820 h1        1 PHX      0.050700
     29 HAH2        3.8890   -0.2220    1.8480 h1        1 PHX      0.050700
     30 HAI1        3.8100   -0.7500   -0.6360 hc        1 PHX      0.061200
     31 HAI2        3.3330    0.9600   -0.9860 hc        1 PHX      0.061200
     32 HAJ1        5.4590    1.6550    0.3810 hc        1 PHX      0.025200
     33 HAJ2        5.9770   -0.0700    0.2000 hc        1 PHX      0.025200
@<TRIPOS>BOND
     1    1    2 ar  
     2    1    6 ar  
     3    1   21 1   
     4    2    3 ar  
     5    2   22 1   
     6    3    4 ar  
     7    3   23 1   
     8    4    5 ar  
     9    4   24 1   
    10    5    6 ar  
    11    5   25 1   
    12    6    7 1   
    13    7    8 2   
    14    7    9 1   
    15    8   12 1   
    16    9   10 1   
    17   10   11 2   
    18   10   12 1   
    19   12   13 2   
    20   13   14 1   
    21   13   26 1   
    22   14   15 1   
    23   14   27 1   
    24   15   16 1   
    25   15   28 1   
    26   15   29 1   
    27   16   17 1   
    28   16   30 1   
    29   16   31 1   
    30   17   18 1   
    31   17   32 1   
    32   17   33 1   
    33   18   19 1   
    34   18   20 1   
@<TRIPOS>SUBSTRUCTURE
     1 PHX         1 TEMP              0 ****  ****    0 ROOT
