@<TRIPOS>MOLECULE
PHZ
   17    17     1     0     0
SMALL
bcc


@<TRIPOS>ATOM
      1 N1          0.2020   -0.3880   -0.2020 n4        1 PHZ     -0.628400
      2 N2          1.1290    0.6240    0.1520 nh        1 PHZ     -0.428400
      3 CG          1.9120    0.3060    1.3200 ca        1 PHZ     -0.067400
      4 CD1         1.3390    0.5150    2.5910 ca        1 PHZ     -0.093500
      5 CE1         2.1120    0.3140    3.7320 ca        1 PHZ     -0.114500
      6 CZ          3.4430   -0.0920    3.6240 ca        1 PHZ     -0.063000
      7 CE2         4.0110   -0.3010    2.3650 ca        1 PHZ     -0.114500
      8 CD2         3.2550   -0.1100    1.2120 ca        1 PHZ     -0.093500
      9 HN11       -0.3810   -0.0170   -0.9690 hn        1 PHZ      0.461467
     10 HN12       -0.4000   -0.5550    0.6210 hn        1 PHZ      0.461467
     11 HN2         1.7550    0.7820   -0.6370 hn        1 PHZ      0.414800
     12 HD1         0.2990    0.8630    2.6930 ha        1 PHZ      0.149000
     13 HE1         1.6680    0.4870    4.7270 ha        1 PHZ      0.168000
     14 HZ          4.0490   -0.2430    4.5330 ha        1 PHZ      0.169000
     15 HE2         5.0650   -0.6150    2.2810 ha        1 PHZ      0.168000
     16 HD2         3.7240   -0.2660    0.2270 ha        1 PHZ      0.149000
     17 H13         0.6190   -1.2870   -0.4890 hn        1 PHZ      0.461467
@<TRIPOS>BOND
     1    1    2 1   
     2    1    9 1   
     3    1   10 1   
     4    1   17 1   
     5    2    3 1   
     6    2   11 1   
     7    3    4 ar  
     8    3    8 ar  
     9    4    5 ar  
    10    4   12 1   
    11    5    6 ar  
    12    5   13 1   
    13    6    7 ar  
    14    6   14 1   
    15    7    8 ar  
    16    7   15 1   
    17    8   16 1   
@<TRIPOS>SUBSTRUCTURE
     1 PHZ         1 TEMP              0 ****  ****    0 ROOT
