@<TRIPOS>MOLECULE
PHZ
   17    17     1     0     0
SMALL
bcc


@<TRIPOS>ATOM
      1 N1          0.2170   -0.4480   -0.2030 nz        1 PHZ     -0.628400
      2 N2          1.1230    0.5860    0.1390 nu        1 PHZ     -0.428400
      3 CG          1.9070    0.3000    1.3150 ca        1 PHZ     -0.067400
      4 CD1         1.3270    0.5190    2.5810 ca        1 PHZ     -0.093500
      5 CE1         2.0980    0.3490    3.7280 ca        1 PHZ     -0.114500
      6 CZ          3.4370   -0.0350    3.6300 ca        1 PHZ     -0.063000
      7 CE2         4.0130   -0.2540    2.3770 ca        1 PHZ     -0.114500
      8 CD2         3.2580   -0.0940    1.2190 ca        1 PHZ     -0.093500
      9 HN11        0.6510   -1.3430   -0.4740 hn        1 PHZ      0.461467
     10 HN12       -0.3860   -0.6140    0.6210 hn        1 PHZ      0.461467
     11 HN2         1.7500    0.7430   -0.6500 hn        1 PHZ      0.414800
     12 HD1         0.2800    0.8500    2.6740 ha        1 PHZ      0.149000
     13 HE1         1.6470    0.5300    4.7180 ha        1 PHZ      0.168000
     14 HZ          4.0420   -0.1620    4.5440 ha        1 PHZ      0.169000
     15 HE2         5.0720   -0.5500    2.3010 ha        1 PHZ      0.168000
     16 HD2         3.7340   -0.2580    0.2380 ha        1 PHZ      0.149000
     17 H13        -0.3700   -0.0990   -0.9770 hn        1 PHZ      0.461467
@<TRIPOS>BOND
     1    1    2 1   
     2    1    9 1   
     3    1   10 1   
     4    1   17 1   
     5    2    3 1   
     6    2   11 1   
     7    3    4 ar  
     8    3    8 ar  
     9    4    5 ar  
    10    4   12 1   
    11    5    6 ar  
    12    5   13 1   
    13    6    7 ar  
    14    6   14 1   
    15    7    8 ar  
    16    7   15 1   
    17    8   16 1   
@<TRIPOS>SUBSTRUCTURE
     1 PHZ         1 TEMP              0 ****  ****    0 ROOT
