@<TRIPOS>MOLECULE
PHZ
   18    18     1     0     0
SMALL
bcc


@<TRIPOS>ATOM
      1 N1          0.3010    0.5250   -0.3000 n4        1 PHZ     -0.709400
      2 N2          1.1960   -0.5600    0.1100 n4        1 PHZ     -0.418200
      3 CG          1.9430   -0.2650    1.3250 ca        1 PHZ     -0.158400
      4 CD1         1.4040   -0.6400    2.5820 ca        1 PHZ     -0.066000
      5 CE1         2.1800   -0.4580    3.7180 ca        1 PHZ     -0.095000
      6 CZ          3.4570    0.1160    3.6280 ca        1 PHZ      0.026000
      7 CE2         3.9670    0.5120    2.3830 ca        1 PHZ     -0.095000
      8 CD2         3.2190    0.3460    1.2260 ca        1 PHZ     -0.066000
      9 HN11       -0.3820    0.7230    0.4630 hn        1 PHZ      0.514800
     10 HN12        0.8540    1.3940   -0.4610 hn        1 PHZ      0.514800
     11 HN2         1.8690   -0.7330   -0.6740 hn        1 PHZ      0.523800
     12 HD1         0.4030   -1.0960    2.6770 ha        1 PHZ      0.175000
     13 HE1         1.7840   -0.7720    4.7050 ha        1 PHZ      0.213000
     14 HZ          4.0640    0.2610    4.5460 ha        1 PHZ      0.214000
     15 HE2         4.9790    0.9620    2.3190 ha        1 PHZ      0.213000
     16 HD2         3.6430    0.6630    0.2570 ha        1 PHZ      0.175000
     17 H13        -0.2180    0.2830   -1.1700 hn        1 PHZ      0.514800
     18 H22         0.6120   -1.4150    0.2650 hn        1 PHZ      0.523800
@<TRIPOS>BOND
     1    1    2 1   
     2    1    9 1   
     3    1   10 1   
     4    1   17 1   
     5    2    3 1   
     6    2   11 1   
     7    2   18 1   
     8    3    4 ar  
     9    3    8 ar  
    10    4    5 ar  
    11    4   12 1   
    12    5    6 ar  
    13    5   13 1   
    14    6    7 ar  
    15    6   14 1   
    16    7    8 ar  
    17    7   15 1   
    18    8   16 1   
@<TRIPOS>SUBSTRUCTURE
     1 PHZ         1 TEMP              0 ****  ****    0 ROOT
