@<TRIPOS>MOLECULE
PHZ
   16    16     1     0     0
SMALL
bcc


@<TRIPOS>ATOM
      1 N1         -2.8880    0.1170    0.0510 n3        1 PHZ     -0.642600
      2 N2         -1.8710   -0.7210   -0.3080 nh        1 PHZ     -0.486400
      3 CG         -0.5070   -0.3260   -0.1370 ca        1 PHZ      0.079600
      4 CD1        -0.1020    1.0200   -0.2520 ca        1 PHZ     -0.171000
      5 CE1         1.2480    1.3530   -0.1880 ca        1 PHZ     -0.100000
      6 CZ          2.2170    0.3680   -0.0090 ca        1 PHZ     -0.157000
      7 CE2         1.8270   -0.9660    0.1060 ca        1 PHZ     -0.100000
      8 CD2         0.4830   -1.3180    0.0510 ca        1 PHZ     -0.171000
      9 HN11       -2.6310    0.7360    0.8120 hn        1 PHZ      0.344300
     10 HN12       -3.0970    0.7060   -0.7470 hn        1 PHZ      0.344300
     11 HN2        -2.0340   -1.6170    0.1360 hn        1 PHZ      0.400800
     12 HD1        -0.8380    1.8220   -0.4090 ha        1 PHZ      0.131000
     13 HE1         1.5490    2.4080   -0.2830 ha        1 PHZ      0.132500
     14 HZ          3.2810    0.6390    0.0390 ha        1 PHZ      0.134000
     15 HE2         2.5870   -1.7490    0.2470 ha        1 PHZ      0.132500
     16 HD2         0.1970   -2.3760    0.1450 ha        1 PHZ      0.131000
@<TRIPOS>BOND
     1    1    2 1   
     2    1    9 1   
     3    1   10 1   
     4    2    3 1   
     5    2   11 1   
     6    3    4 ar  
     7    3    8 ar  
     8    4    5 ar  
     9    4   12 1   
    10    5    6 ar  
    11    5   13 1   
    12    6    7 ar  
    13    6   14 1   
    14    7    8 ar  
    15    7   15 1   
    16    8   16 1   
@<TRIPOS>SUBSTRUCTURE
     1 PHZ         1 TEMP              0 ****  ****    0 ROOT
