@<TRIPOS>MOLECULE
PI0
   74    70     1     0     0
SMALL
bcc


@<TRIPOS>ATOM
      1 C1         -0.6180   -0.2780   -1.4090 c2        1 PI0     -0.175500
      2 C2          0.8600    5.7820    2.6680 c2        1 PI0      0.250000
      3 O3          3.1910   -2.5550    2.7780 o         1 PI0     -0.923500
      4 C4         -0.7200   -1.5810   -1.1300 c2        1 PI0     -0.175500
      5 C6          0.4000   -2.5370   -1.2330 c3        1 PI0     -0.191000
      6 C7          4.2650   -5.0810    0.6390 c2        1 PI0     -0.192000
      7 C9          3.9460   -2.6480    0.3330 c3        1 PI0     -0.807000
      8 C10         8.1450   -7.1460    2.0270 c1        1 PI0     -0.780000
      9 C15         1.1430    1.0280    1.9830 c2        1 PI0      0.307000
     10 C16        -4.3750    5.6810    5.7160 c3        1 PI0     -0.178000
     11 C17        -4.9200    6.7070    6.5920 c1        1 PI0     -0.120000
     12 C18        -0.6510    2.4140    2.9220 c3        1 PI0      0.003000
     13 C19        -1.2580    3.1650    1.7340 c3        1 PI0     -0.250000
     14 C20         0.8890    5.0570    1.4080 c1        1 PI0      0.006000
     15 C23        -3.8140    5.6990    8.5050 c2        1 PI0      0.056000
     16 C24        -3.2510    4.6810    7.6870 c2        1 PI0     -0.246000
     17 C28        -1.7520    2.2710    3.9950 c2        1 PI0      0.304000
     18 C32        -3.0620    3.5780    5.5090 c1        1 PI0     -0.054000
     19 O1          1.8320    2.0430    1.7440 o         1 PI0     -0.403000
     20 N17        -0.0890    1.1270    2.5870 n         1 PI0     -0.371000
     21 N31        -1.9960    3.4560    4.7590 n         1 PI0     -0.196000
     22 C22        -4.5830    6.7060    7.9600 c2        1 PI0     -0.236000
     23 C25        -3.4760    4.6620    6.3340 c2        1 PI0     -0.028000
     24 N1         -6.2810    8.4070    8.5190 n2        1 PI0     -0.291000
     25 O2          0.1340    5.3450    3.6060 o         1 PI0     -0.455000
     26 N3          1.5230    6.9750    2.8120 n         1 PI0     -0.410000
     27 N4          3.0240   -0.4810    1.4310 n3        1 PI0     -0.892000
     28 C5          1.6090   -0.3830    1.5900 c3        1 PI0     -0.031000
     29 C3         -1.7440    0.6720   -1.3250 c3        1 PI0     -0.191000
     30 S1          3.9010   -1.7860    1.8340 s6        1 PI0      2.806000
     31 O4          5.2050   -1.3710    2.1630 o         1 PI0     -0.923500
     32 C8          4.7880   -3.8700    0.4170 c2        1 PI0     -0.107000
     33 C12         9.1540   -7.3790    2.7960 c1        1 PI0      0.390000
     34 C11         7.1360   -6.9130    1.2640 c1        1 PI0      0.390000
     35 C13         6.2420   -3.6640    0.2040 c3        1 PI0     -0.194000
     36 N2         -4.4090    8.1360    9.9540 n3        1 PI0     -0.329000
     37 H1          1.2720   -1.1330    2.3670 h1        1 PI0      0.121500
     38 H4         -1.6810   -2.0200   -0.8110 ha        1 PI0      0.122000
     39 H4A         0.3410    0.1590   -1.7380 ha        1 PI0      0.122000
     40 H6          0.5510   -3.0630   -0.2570 hc        1 PI0      0.081833
     41 H6A         0.1720   -3.3100   -2.0100 hc        1 PI0      0.081833
     42 H6B         1.3570   -2.0310   -1.5150 hc        1 PI0      0.081833
     43 H9          4.3510   -2.0060   -0.4950 h1        1 PI0      0.149000
     44 H9A         2.9090   -2.9380    0.0090 h1        1 PI0      0.149000
     45 H10         6.8110   -4.6100    0.3900 hc        1 PI0      0.091667
     46 H16        -5.2660    5.1590    5.2500 hc        1 PI0      0.163500
     47 H17        -3.8330    6.2010    4.8720 hc        1 PI0      0.163500
     48 H18        -2.2090    2.6910    1.3920 hc        1 PI0      0.106000
     49 H19        -1.4590    4.2230    2.0380 hc        1 PI0      0.106000
     50 H19A        0.1980    3.0520    3.3340 h1        1 PI0      0.147000
     51 H20         1.6010    4.2340    1.2660 ha        1 PI0      0.141000
     52 H20A       -0.5380    3.1750    0.8770 hc        1 PI0      0.106000
     53 H23        -3.6090    5.6470    9.5890 ha        1 PI0      0.148000
     54 H24        -2.6320    3.9060    8.1650 ha        1 PI0      0.142000
     55 H32        -2.7920    1.3630    6.6710 ha        1 PI0      0.002500
     56 H32A       -2.6060    1.7080    7.2250 ha        1 PI0      0.002500
     57 HN17       -0.6640    0.3240    2.7080 hn        1 PI0      0.253000
     58 HN31       -1.2910    4.1740    4.6680 hn        1 PI0      0.234000
     59 HN1        -6.7470    8.0490    7.7110 hn        1 PI0      0.170000
     60 HN3         1.9570    7.4100    2.0390 hn        1 PI0      0.231500
     61 HN3A        1.3450    7.5230    3.6200 hn        1 PI0      0.231500
     62 HN4         3.4510    0.3690    1.1340 hn        1 PI0      0.263000
     63 H5          1.0850   -0.6230    0.6110 h1        1 PI0      0.121500
     64 H3         -1.5080    1.4880   -0.5930 hc        1 PI0      0.081833
     65 H3A        -2.6890    0.1720   -1.0020 hc        1 PI0      0.081833
     66 H3B        -1.9200    1.1450   -2.3240 hc        1 PI0      0.081833
     67 H12         4.8970   -5.9800    0.7010 ha        1 PI0      0.128000
     68 H11         6.4340   -3.3390   -0.8490 hc        1 PI0      0.091667
     69 H13         6.6300   -2.8710    0.8950 hc        1 PI0      0.091667
     70 HN2        -3.4390    8.2370    9.7420 hn        1 PI0      0.174500
     71 HN2A       -4.7590    8.9300   10.4510 hn        1 PI0      0.174500
     72 O30        -2.3780    1.2270    4.1810 o         1 PI0     -0.250000
     73 H7          3.1900   -5.2450    0.7880 ha        1 PI0      0.128000
     74 C26        -5.1600    7.8090    8.7890 c2        1 PI0      0.116000
@<TRIPOS>BOND
     1    1    4 1   
     2    1   29 1   
     3    1   39 1   
     4    2   14 1   
     5    2   25 1   
     6    2   26 1   
     7    3   30 1   
     8    4    5 1   
     9    4   38 1   
    10    5   40 1   
    11    5   41 1   
    12    5   42 1   
    13    6   32 1   
    14    6   67 1   
    15    6   73 1   
    16    7   30 1   
    17    7   32 1   
    18    7   43 1   
    19    7   44 1   
    20    8   33 1   
    21    8   34 1   
    22    9   19 1   
    23    9   20 1   
    24    9   28 1   
    25   10   11 1   
    26   10   23 1   
    27   10   46 1   
    28   10   47 1   
    29   11   22 1   
    30   12   13 1   
    31   12   17 1   
    32   12   20 1   
    33   12   50 1   
    34   13   48 1   
    35   13   49 1   
    36   13   52 1   
    37   14   51 1   
    38   15   16 1   
    39   15   22 1   
    40   15   53 1   
    41   16   23 1   
    42   16   54 1   
    43   17   21 1   
    44   17   72 1   
    45   18   21 1   
    46   18   23 1   
    47   20   57 1   
    48   21   58 1   
    49   22   74 1   
    50   24   59 1   
    51   24   74 1   
    52   26   60 1   
    53   26   61 1   
    54   27   28 1   
    55   27   30 1   
    56   27   62 1   
    57   28   37 1   
    58   28   63 1   
    59   29   64 1   
    60   29   65 1   
    61   29   66 1   
    62   30   31 1   
    63   32   35 1   
    64   35   45 1   
    65   35   68 1   
    66   35   69 1   
    67   36   70 1   
    68   36   71 1   
    69   36   74 1   
    70   55   56 1   
@<TRIPOS>SUBSTRUCTURE
     1 PI0         1 TEMP              0 ****  ****    0 ROOT
