@<TRIPOS>MOLECULE
PI0
   74    75     1     0     0
SMALL
bcc


@<TRIPOS>ATOM
      1 C1         -2.9600   -2.0630   -0.7550 c3        1 PI0     -0.074700
      2 C2          2.0520   -4.2890   -0.3550 c         1 PI0      0.657100
      3 O3         -3.9210    1.8840   -0.4260 o         1 PI0     -0.643300
      4 C4         -2.0270   -2.4600   -1.8890 c3        1 PI0     -0.089400
      5 C6         -2.0550   -1.5050   -3.0540 c3        1 PI0     -0.099100
      6 C7         -6.8210    2.1820   -1.3990 ca        1 PI0     -0.114000
      7 C9         -5.8980    0.3150   -0.0160 c3        1 PI0     -0.250300
      8 C10        -9.0250    3.0780   -0.9730 ca        1 PI0     -0.121000
      9 C15        -1.1580   -0.8810    0.5760 c         1 PI0      0.656100
     10 C16         5.5100    1.2740   -0.6180 ca        1 PI0     -0.125000
     11 C17         6.8200    0.8450   -0.8220 ca        1 PI0     -0.103000
     12 C18         1.2840   -0.5810    0.3940 c3        1 PI0      0.041700
     13 C19         2.0530   -1.7920   -0.1670 c3        1 PI0     -0.097400
     14 C20         1.5300   -3.0880    0.4110 c3        1 PI0     -0.157400
     15 C23         7.4320    1.6910    1.3660 ca        1 PI0     -0.103000
     16 C24         6.1180    2.1130    1.5670 ca        1 PI0     -0.125000
     17 C28         2.1220    0.6690    0.0160 c         1 PI0      0.642100
     18 C32         3.7370    2.3670    0.7800 c3        1 PI0      0.128300
     19 O1         -1.0530   -1.3700    1.7180 o         1 PI0     -0.614100
     20 N17        -0.0540   -0.4360   -0.1180 n         1 PI0     -0.556900
     21 N31         2.8000    1.3040    1.0340 n         1 PI0     -0.548900
     22 C22         7.7830    1.0570    0.1700 ca        1 PI0     -0.135900
     23 C25         5.1540    1.9070    0.5780 ca        1 PI0     -0.116300
     24 N1          9.3760   -0.6530   -0.3920 n2        1 PI0     -0.828100
     25 O2          1.2780   -5.0630   -0.9550 o         1 PI0     -0.615100
     26 N3          3.4040   -4.5190   -0.3660 n         1 PI0     -0.676000
     27 N4         -3.4950   -0.2100    0.8360 n3        1 PI0     -0.918100
     28 C5         -2.5390   -0.7180   -0.1110 c3        1 PI0      0.184500
     29 C3         -3.0500   -3.1810    0.2600 c3        1 PI0     -0.097100
     30 S1         -4.4570    1.0700    0.5940 s6        1 PI0      1.450900
     31 O4         -4.7430    1.6620    1.8370 o         1 PI0     -0.643300
     32 C8         -6.9730    1.2860   -0.3320 ca        1 PI0     -0.074300
     33 C12        -7.8430    3.0740   -1.7150 ca        1 PI0     -0.127500
     34 C11        -9.1800    2.1890    0.0900 ca        1 PI0     -0.127500
     35 C13        -8.1590    1.2940    0.4100 ca        1 PI0     -0.114000
     36 N2         10.1740    1.5580    0.2290 nh        1 PI0     -0.957800
     37 H1         -3.9870   -1.9050   -1.1980 hc        1 PI0      0.049700
     38 H4         -0.9800   -2.5710   -1.5040 hc        1 PI0      0.055200
     39 H4A        -2.3410   -3.4780   -2.2500 hc        1 PI0      0.055200
     40 H6         -3.1050   -1.3000   -3.3760 hc        1 PI0      0.037033
     41 H6A        -1.5720   -0.5310   -2.7970 hc        1 PI0      0.037033
     42 H6B        -1.5020   -1.9450   -3.9190 hc        1 PI0      0.037033
     43 H9         -5.6740   -0.2670   -0.9520 h1        1 PI0      0.110700
     44 H9A        -6.2920   -0.4380    0.7180 h1        1 PI0      0.110700
     45 H10        -9.8300    3.7830   -1.2240 ha        1 PI0      0.133000
     46 H16         4.7440    1.1160   -1.3950 ha        1 PI0      0.145500
     47 H17         7.0940    0.3340   -1.7580 ha        1 PI0      0.148000
     48 H18         1.2080   -0.6970    1.5180 h1        1 PI0      0.095700
     49 H19         1.9770   -1.8040   -1.2860 hc        1 PI0      0.062700
     50 H19A        3.1370   -1.6660    0.0940 hc        1 PI0      0.062700
     51 H20         0.4070   -3.1160    0.3620 hc        1 PI0      0.080200
     52 H20A        1.8160   -3.1770    1.4920 hc        1 PI0      0.080200
     53 H23         8.1840    1.8470    2.1540 ha        1 PI0      0.148000
     54 H24         5.8450    2.6100    2.5110 ha        1 PI0      0.145500
     55 H32         3.4010    2.9220   -0.1460 h1        1 PI0      0.074200
     56 H32A        3.6910    3.0760    1.6560 h1        1 PI0      0.074200
     57 HN17       -0.1440   -0.1060   -1.0530 hn        1 PI0      0.336500
     58 HN31        2.8570    0.8570    1.9190 hn        1 PI0      0.312500
     59 HN1        10.3220   -0.9390   -0.5300 hn        1 PI0      0.384400
     60 HN3         4.0310   -3.9070    0.0860 hn        1 PI0      0.312500
     61 HN3A        3.7660   -5.2960   -0.8610 hn        1 PI0      0.312500
     62 HN4        -3.4690   -0.6930    1.7070 hn        1 PI0      0.467800
     63 H5         -2.4590    0.0450   -0.9490 h1        1 PI0      0.089700
     64 H3         -2.0640   -3.3400    0.7630 hc        1 PI0      0.045700
     65 H3A        -3.8110   -2.9500    1.0440 hc        1 PI0      0.045700
     66 H3B        -3.3470   -4.1330   -0.2440 hc        1 PI0      0.045700
     67 H12        -7.7150    3.7770   -2.5510 ha        1 PI0      0.135000
     68 H11       -10.1070    2.1930    0.6810 ha        1 PI0      0.135000
     69 H13        -8.2880    0.5980    1.2520 ha        1 PI0      0.142500
     70 HN2         9.8610    2.5000    0.2170 hn        1 PI0      0.400300
     71 HN2A       11.0690    1.4180   -0.1800 hn        1 PI0      0.400300
     72 O30         2.1520    1.0780   -1.1610 o         1 PI0     -0.608100
     73 H7         -5.8800    2.1920   -1.9750 ha        1 PI0      0.142500
     74 C26         9.1890    0.5850   -0.0470 ce        1 PI0      0.650800
@<TRIPOS>BOND
     1    1    4 1   
     2    1   28 1   
     3    1   29 1   
     4    1   37 1   
     5    2   14 1   
     6    2   25 2   
     7    2   26 1   
     8    3   30 2   
     9    4    5 1   
    10    4   38 1   
    11    4   39 1   
    12    5   40 1   
    13    5   41 1   
    14    5   42 1   
    15    6   32 ar  
    16    6   33 ar  
    17    6   73 1   
    18    7   30 1   
    19    7   32 1   
    20    7   43 1   
    21    7   44 1   
    22    8   33 ar  
    23    8   34 ar  
    24    8   45 1   
    25    9   19 2   
    26    9   20 1   
    27    9   28 1   
    28   10   11 ar  
    29   10   23 ar  
    30   10   46 1   
    31   11   22 ar  
    32   11   47 1   
    33   12   13 1   
    34   12   17 1   
    35   12   20 1   
    36   12   48 1   
    37   13   14 1   
    38   13   49 1   
    39   13   50 1   
    40   14   51 1   
    41   14   52 1   
    42   15   16 ar  
    43   15   22 ar  
    44   15   53 1   
    45   16   23 ar  
    46   16   54 1   
    47   17   21 1   
    48   17   72 2   
    49   18   21 1   
    50   18   23 1   
    51   18   55 1   
    52   18   56 1   
    53   20   57 1   
    54   21   58 1   
    55   22   74 1   
    56   24   59 1   
    57   24   74 2   
    58   26   60 1   
    59   26   61 1   
    60   27   28 1   
    61   27   30 1   
    62   27   62 1   
    63   28   63 1   
    64   29   64 1   
    65   29   65 1   
    66   29   66 1   
    67   30   31 2   
    68   32   35 ar  
    69   33   67 1   
    70   34   35 ar  
    71   34   68 1   
    72   35   69 1   
    73   36   70 1   
    74   36   71 1   
    75   36   74 1   
@<TRIPOS>SUBSTRUCTURE
     1 PI0         1 TEMP              0 ****  ****    0 ROOT
