@<TRIPOS>MOLECULE
PI0
   79    72     1     0     0
SMALL
bcc


@<TRIPOS>ATOM
      1 C1        150.6850  -75.9010  -71.5140 c2        1 PI0      0.163000
      2 C2        -98.0160  475.1400  -55.9620 c2        1 PI0      0.261000
      3 O3        148.5460  -72.4700  -71.5670 o         1 PI0     -0.842000
      4 C4        150.9200  -76.4270  -72.7960 c1        1 PI0     -0.222000
      5 C6        151.1370  -76.8830  -73.8840 c1        1 PI0     -0.045000
      6 C7        145.6490  -71.8300  -68.9520 c2        1 PI0     -0.154000
      7 C9        148.2150  -72.2690  -69.0830 c2        1 PI0     -1.039000
      8 C10      1124.8590 -959.4420 -500.0570 c2        1 PI0     -0.486000
      9 C15       267.0960  251.8260   17.8250 c1        1 PI0      0.199000
     10 C16      -190.2810  217.0270  230.9530 ca        1 PI0     -0.173000
     11 C17      -191.0660  215.9060  231.1460 ca        1 PI0     -0.037500
     12 C18       -94.4840  473.8770  -56.5030 cx        1 PI0     -0.162000
     13 C19       -95.9210  473.8140  -56.0550 c3        1 PI0     -0.159000
     14 C20       -96.5480  475.1870  -56.2490 c3        1 PI0     -0.181000
     15 C23      -190.4600  215.8700  233.4980 ca        1 PI0     -0.037500
     16 C24      -189.6690  216.9890  233.3190 ca        1 PI0     -0.173000
     17 C28       -94.1790  473.7880  -57.9530 cu        1 PI0      0.266000
     18 C32      -188.9270  218.8170  231.8950 c1        1 PI0      0.048000
     19 O1        266.0030  252.2440   17.8650 o         1 PI0     -0.199000
     20 N17     -1000.7330-1114.6030  336.4300 n4        1 PI0     -0.094000
     21 C22      -191.1650  215.3170  232.4160 ca        1 PI0     -0.263000
     22 C25      -189.5660  217.5960  232.0400 ca        1 PI0     -0.017000
     23 O2        -98.7180  474.2280  -55.5680 o         1 PI0     -0.137000
     24 N3        -98.7630  476.4470  -56.2060 n4        1 PI0     -0.158000
     25 N4        149.2690  -74.4750  -70.0610 n4        1 PI0     -0.405000
     26 C5        149.6010  -75.1060  -71.3100 c2        1 PI0     -0.283000
     27 C3        151.6680  -76.2370  -70.4520 c3        1 PI0     -0.232000
     28 S1        149.1590  -72.5810  -70.3400 s6        1 PI0      2.828000
     29 O4        150.4730  -72.2200  -70.1320 o         1 PI0     -0.842000
     30 C8        146.9160  -72.0610  -69.0390 c1        1 PI0      0.119000
     31 C12      1125.7750 -960.4490 -500.0850 c1        1 PI0      0.658000
     32 C11      1124.5890 -958.4860 -500.9610 c1        1 PI0      0.188000
     33 C13      1124.3070 -957.5600 -501.8040 c2        1 PI0     -0.144000
     34 H1       -999.7140-1114.4940  336.4000 hn        1 PI0      0.274000
     35 H4       -119.9280    0.2140  330.9310 ha        1 PI0      0.000000
     36 H4A      -119.5120    0.4850  331.3900 ha        1 PI0      0.000000
     37 H6       -405.6900 -233.8220 -144.3370 ha        1 PI0      0.000000
     38 H6A      -405.7220 -233.6190 -144.9820 ha        1 PI0      0.000000
     39 H6B       151.3340  -77.2890  -74.8490 ha        1 PI0      0.252000
     40 H9        148.7390  -72.1100  -68.1040 h4        1 PI0      0.234000
     41 H9A       148.8710  -74.8900  -72.1180 hx        1 PI0      0.211000
     42 H16      -190.2200  217.4950  229.9580 ha        1 PI0      0.163000
     43 H17      -191.6320  215.4960  230.2940 ha        1 PI0      0.142500
     44 H18     -1000.9710-1115.6010  336.4170 hn        1 PI0      0.274000
     45 H19       -96.5010  473.0460  -56.6340 hc        1 PI0      0.122500
     46 H19A      -96.3780  475.5310  -57.3090 hc        1 PI0      0.154500
     47 H20       -95.9660  473.5170  -54.9730 hc        1 PI0      0.122500
     48 H20A      -96.0570  475.9300  -55.5600 hc        1 PI0      0.154500
     49 H23      -190.5360  215.4150  234.5000 ha        1 PI0      0.142500
     50 H24      -189.1260  217.4240  234.1720 ha        1 PI0      0.163000
     51 H32      -187.9130  219.1090  231.6430 ha        1 PI0      0.178000
     52 H32A     -132.6730  681.1290 -101.9930 ha        1 PI0      0.000000
     53 HN17    -1001.1500-1114.1420  335.6150 hn        1 PI0      0.274000
     54 HN1      -193.4650  214.8110  233.8320 hn        1 PI0      0.245000
     55 HN3       -98.3850  477.1850  -55.6040 hn        1 PI0      0.266333
     56 HN3A      -99.7640  476.3280  -55.9990 hn        1 PI0      0.266333
     57 HN4       148.3910  -74.8660  -69.7200 hn        1 PI0      0.240000
     58 H5      -1001.0980-1114.1760  337.2880 hn        1 PI0      0.274000
     59 H3        152.2450  -75.3230  -70.1560 hc        1 PI0      0.118333
     60 H3A       151.1540  -76.6550  -69.5500 hc        1 PI0      0.118333
     61 H3B       152.4030  -77.0020  -70.8120 hc        1 PI0      0.118333
     62 H12       144.9070  -72.6120  -68.7040 ha        1 PI0      0.210500
     63 H11      1124.8000 -956.5610 -501.8030 ha        1 PI0      0.255000
     64 H13      1123.5480 -957.6780 -502.6110 ha        1 PI0      0.255000
     65 HN2      -191.4370  213.1960  230.9160 hn        1 PI0      0.261667
     66 HN2A     -190.6560  212.6690  232.2950 hn        1 PI0      0.261667
     67 O30       -94.2110  474.2510  -59.0740 o         1 PI0     -0.216000
     68 H7        145.2210  -70.8230  -69.1310 ha        1 PI0      0.210500
     69 C26      -192.0480  214.1660  232.6430 c2        1 PI0      0.085000
     70 H172      -93.8460  474.4460  -55.7860 h1        1 PI0      0.165000
     71 H33       -98.6580  476.7340  -57.1840 hn        1 PI0      0.266333
     72 H42       149.9860  -74.6790  -69.3630 hn        1 PI0      0.240000
     73 H231     -192.2180  212.1540  231.9750 hn        1 PI0      0.261667
     74 N31       -93.7840  472.7470  -57.1310 n         1 PI0     -0.264000
     75 H10      1124.2440 -959.4420 -499.1030 ha        1 PI0      0.272000
     76 HN31     -133.2020  681.0500 -102.4060 ha        1 PI0      0.000000
     77 H312      -94.1060  471.8080  -57.1480 hn        1 PI0      0.231000
     78 N1       -193.1070  214.0180  233.3400 n2        1 PI0     -0.190000
     79 N2       -191.5620  212.9410  231.9010 n4        1 PI0     -0.062000
@<TRIPOS>BOND
     1    1    4 1   
     2    1   26 1   
     3    1   27 1   
     4    2   14 1   
     5    2   23 1   
     6    2   24 1   
     7    3   28 1   
     8    4    5 1   
     9    5   39 1   
    10    6   30 1   
    11    6   62 1   
    12    6   68 1   
    13    7   28 1   
    14    7   30 1   
    15    7   40 1   
    16    8   31 1   
    17    8   32 1   
    18    8   75 1   
    19    9   19 1   
    20   10   11 1   
    21   10   22 1   
    22   10   42 1   
    23   11   21 1   
    24   11   43 1   
    25   12   13 1   
    26   12   17 1   
    27   12   70 1   
    28   12   74 1   
    29   13   14 1   
    30   13   45 1   
    31   13   47 1   
    32   14   46 1   
    33   14   48 1   
    34   15   16 1   
    35   15   21 1   
    36   15   49 1   
    37   16   22 1   
    38   16   50 1   
    39   17   67 1   
    40   17   74 1   
    41   18   22 1   
    42   18   51 1   
    43   20   34 1   
    44   20   44 1   
    45   20   53 1   
    46   20   58 1   
    47   21   69 1   
    48   24   55 1   
    49   24   56 1   
    50   24   71 1   
    51   25   26 1   
    52   25   28 1   
    53   25   57 1   
    54   25   72 1   
    55   26   41 1   
    56   27   59 1   
    57   27   60 1   
    58   27   61 1   
    59   28   29 1   
    60   32   33 1   
    61   33   63 1   
    62   33   64 1   
    63   35   36 1   
    64   37   38 1   
    65   52   76 1   
    66   54   78 1   
    67   65   79 1   
    68   66   79 1   
    69   69   78 1   
    70   69   79 1   
    71   73   79 1   
    72   74   77 1   
@<TRIPOS>SUBSTRUCTURE
     1 PI0         1 TEMP              0 ****  ****    0 ROOT
