@<TRIPOS>MOLECULE
PI2
   68    69     1     0     0
SMALL
bcc


@<TRIPOS>ATOM
      1 C1          0.9200   -1.1510   -5.0500 c3        1 PI2     -0.114400
      2 C2          1.6520   -0.2240   -2.8170 c         1 PI2      0.659100
      3 O3          1.3270   -1.2280   -2.1500 o         1 PI2     -0.624100
      4 C4          1.9230   -0.2900   -4.3100 c3        1 PI2     -0.140400
      5 N5          1.7890    1.0060   -2.1930 n         1 PI2     -0.556900
      6 C6          1.9010    1.1050   -0.7590 c3        1 PI2      0.048700
      7 C7          0.5190    1.3640   -0.0970 c         1 PI2      0.643100
      8 O8          0.2170    2.5040    0.3120 o         1 PI2     -0.621100
      9 C9          2.8300    2.2410   -0.3010 c3        1 PI2     -0.165400
     10 C10         4.1940    2.1400   -0.9510 c         1 PI2      0.658100
     11 O11         4.3470    2.3550   -2.1740 o         1 PI2     -0.634100
     12 N12         5.2750    1.8120   -0.1760 n         1 PI2     -0.666000
     13 N13        -0.3040    0.2750    0.0770 n         1 PI2     -0.543900
     14 C14        -1.6350    0.4320    0.6230 c3        1 PI2      0.075700
     15 C15        -2.6790   -0.5030   -0.0210 c3        1 PI2     -0.046100
     16 C16        -2.5200   -0.6140   -1.4930 ca        1 PI2     -0.100300
     17 C17        -2.5350    0.5330   -2.2970 ca        1 PI2     -0.109500
     18 C18        -2.2110    0.4500   -3.6470 ca        1 PI2     -0.140500
     19 C19        -2.2940   -1.8660   -2.0770 ca        1 PI2     -0.109500
     20 C20        -1.9730   -1.9680   -3.4280 ca        1 PI2     -0.140500
     21 C21        -1.8820   -0.7980   -4.1930 ca        1 PI2      0.089100
     22 O22        -1.4740   -0.9050   -5.5190 os        1 PI2     -0.343900
     23 C23        -0.1710   -0.3460   -5.7400 c3        1 PI2      0.131400
     24 C24        -1.6870    0.1940    2.1600 c3        1 PI2      0.087100
     25 O25        -3.0260    0.3360    2.6080 oh        1 PI2     -0.598800
     26 C26        -0.7560    1.1620    2.9150 c3        1 PI2      0.129800
     27 N27        -0.8640    1.1530    4.3540 n3        1 PI2     -0.812200
     28 C28        -0.1950    0.0350    4.9950 c3        1 PI2      0.159800
     29 C29        -0.5250   -0.0860    6.4820 c3        1 PI2     -0.081400
     30 C30         0.2510   -1.2250    7.1280 c3        1 PI2     -0.066700
     31 C31         0.2890   -1.0370    8.6310 c3        1 PI2     -0.090600
     32 C32        -0.3520   -2.5720    6.7880 c3        1 PI2     -0.090600
     33 H11         0.4540   -1.8870   -4.3380 hc        1 PI2      0.072200
     34 H12         1.4670   -1.7520   -5.8250 hc        1 PI2      0.072200
     35 H41         2.9480   -0.7430   -4.4070 hc        1 PI2      0.070700
     36 H42         1.9680    0.7340   -4.7660 hc        1 PI2      0.070700
     37 HN5         2.1760    1.7660   -2.7130 hn        1 PI2      0.336500
     38 H6          2.3020    0.1230   -0.3550 h1        1 PI2      0.082700
     39 H91         2.3850    3.2340   -0.5870 hc        1 PI2      0.094200
     40 H92         2.8800    2.2110    0.8180 hc        1 PI2      0.094200
     41 H121        6.1770    1.7800   -0.5830 hn        1 PI2      0.315500
     42 H122        5.1870    1.6800    0.7980 hn        1 PI2      0.315500
     43 H13        -0.1030   -0.5640   -0.4250 hn        1 PI2      0.343500
     44 H14        -1.9610    1.5030    0.4410 h1        1 PI2      0.069700
     45 H151       -2.6080   -1.5180    0.4540 hc        1 PI2      0.065700
     46 H152       -3.6930   -0.0920    0.2340 hc        1 PI2      0.065700
     47 H17        -2.7720    1.5100   -1.8490 ha        1 PI2      0.136500
     48 H18        -2.1900    1.3500   -4.2780 ha        1 PI2      0.145000
     49 H19        -2.3360   -2.7760   -1.4600 ha        1 PI2      0.136500
     50 H20        -1.7650   -2.9430   -3.8900 ha        1 PI2      0.145000
     51 H231       -0.0690   -0.3960   -6.8570 h1        1 PI2      0.053700
     52 H232       -0.1670    0.7260   -5.4100 h1        1 PI2      0.053700
     53 H24        -1.4310   -0.8760    2.3990 h1        1 PI2      0.078700
     54 H25        -3.2800    1.2560    2.4680 ho        1 PI2      0.401000
     55 H261       -0.9830    2.2130    2.5710 h1        1 PI2      0.066700
     56 H262        0.3070    0.9350    2.6250 h1        1 PI2      0.066700
     57 H27        -1.8310    1.1810    4.6260 hn        1 PI2      0.362800
     58 H281        0.9140    0.2030    4.8790 h1        1 PI2      0.027200
     59 H282       -0.4360   -0.9480    4.4930 h1        1 PI2      0.027200
     60 H291       -1.6250   -0.2600    6.6190 hc        1 PI2      0.048200
     61 H292       -0.2700    0.8760    6.9990 hc        1 PI2      0.048200
     62 H30         1.3100   -1.2010    6.7420 hc        1 PI2      0.045700
     63 H311        0.8450   -1.8780    9.1120 hc        1 PI2      0.034200
     64 H312        0.7990   -0.0790    8.8930 hc        1 PI2      0.034200
     65 H313       -0.7460   -1.0130    9.0490 hc        1 PI2      0.034200
     66 H321       -1.4050   -2.6350    7.1540 hc        1 PI2      0.034200
     67 H322       -0.3510   -2.7370    5.6840 hc        1 PI2      0.034200
     68 H323        0.2370   -3.3900    7.2680 hc        1 PI2      0.034200
@<TRIPOS>BOND
     1    1    4 1   
     2    1   23 1   
     3    1   33 1   
     4    1   34 1   
     5    2    3 2   
     6    2    4 1   
     7    2    5 1   
     8    4   35 1   
     9    4   36 1   
    10    5    6 1   
    11    5   37 1   
    12    6    7 1   
    13    6    9 1   
    14    6   38 1   
    15    7    8 2   
    16    7   13 1   
    17    9   10 1   
    18    9   39 1   
    19    9   40 1   
    20   10   11 2   
    21   10   12 1   
    22   12   41 1   
    23   12   42 1   
    24   13   14 1   
    25   13   43 1   
    26   14   15 1   
    27   14   24 1   
    28   14   44 1   
    29   15   16 1   
    30   15   45 1   
    31   15   46 1   
    32   16   17 ar  
    33   16   19 ar  
    34   17   18 ar  
    35   17   47 1   
    36   18   21 ar  
    37   18   48 1   
    38   19   20 ar  
    39   19   49 1   
    40   20   21 ar  
    41   20   50 1   
    42   21   22 1   
    43   22   23 1   
    44   23   51 1   
    45   23   52 1   
    46   24   25 1   
    47   24   26 1   
    48   24   53 1   
    49   25   54 1   
    50   26   27 1   
    51   26   55 1   
    52   26   56 1   
    53   27   28 1   
    54   27   57 1   
    55   28   29 1   
    56   28   58 1   
    57   28   59 1   
    58   29   30 1   
    59   29   60 1   
    60   29   61 1   
    61   30   31 1   
    62   30   32 1   
    63   30   62 1   
    64   31   63 1   
    65   31   64 1   
    66   31   65 1   
    67   32   66 1   
    68   32   67 1   
    69   32   68 1   
@<TRIPOS>SUBSTRUCTURE
     1 PI2         1 TEMP              0 ****  ****    0 ROOT
