@<TRIPOS>MOLECULE
PI2
   72    73     1     0     0
SMALL
bcc


@<TRIPOS>ATOM
      1 C1          0.0220    2.0820   -1.4050 c3        1 PI2     -0.128400
      2 C2          1.1450    0.5000    0.1680 c         1 PI2      0.602100
      3 O3          0.2480   -0.2010    0.5740 o         1 PI2     -0.385100
      4 C4          1.3140    1.3660   -1.0430 c3        1 PI2     -0.137400
      5 N5          2.4380    0.4770    1.1090 ny        1 PI2     -0.746800
      6 C6          2.3990   -0.4820    2.2510 c3        1 PI2      0.085500
      7 C7          3.2460    0.0810    3.4320 c         1 PI2      0.494100
      8 O8          4.4590    0.2010    3.3400 o         1 PI2     -0.354100
      9 C9          2.9900   -1.8860    1.9580 c3        1 PI2     -0.188400
     10 C10         2.4660   -2.5530    0.7110 c         1 PI2      0.554100
     11 O11         2.0370   -1.9720   -0.2760 o         1 PI2     -0.400100
     12 N12         2.5270   -4.0450    0.6250 nz        1 PI2     -0.742400
     13 N13         2.5740    0.4760    4.6990 ny        1 PI2     -0.661800
     14 C14         3.1960    1.7010    5.3900 c3        1 PI2      0.150500
     15 C15         2.2010    2.8740    5.3570 c3        1 PI2     -0.057100
     16 C16         1.4720    2.9750    4.0670 ca        1 PI2     -0.244300
     17 C17         2.1420    3.3050    2.8880 ca        1 PI2     -0.095000
     18 C18         1.4520    3.4010    1.6770 ca        1 PI2     -0.221000
     19 C19         0.0670    2.8650    4.0570 ca        1 PI2     -0.095000
     20 C20        -0.6430    2.9940    2.8770 ca        1 PI2     -0.221000
     21 C21         0.0550    3.2370    1.6650 ca        1 PI2      0.185100
     22 O22        -0.7480    3.2610    0.5670 os        1 PI2     -0.284900
     23 C23        -0.1820    3.4300   -0.7380 c3        1 PI2      0.102400
     24 C24         3.6340    1.3550    6.8510 c3        1 PI2      0.109100
     25 O25         2.5540    0.6380    7.4160 oh        1 PI2     -0.613800
     26 C26         3.9160    2.6610    7.6290 c3        1 PI2      0.065800
     27 N27         4.5920    2.4700    8.9380 ny        1 PI2     -0.772000
     28 C28         4.8420    3.7920    9.6360 c3        1 PI2      0.111800
     29 C29         5.5150    3.5940   10.9870 c3        1 PI2     -0.117400
     30 C30         5.7370    4.9530   11.6550 c3        1 PI2     -0.055700
     31 C31         6.0580    4.7320   13.1210 c3        1 PI2     -0.106100
     32 C32         6.8510    5.7260   10.9840 c3        1 PI2     -0.106100
     33 H11         0.0500    2.2630   -2.5210 hc        1 PI2      0.127700
     34 H12        -0.8680    1.4230   -1.2040 hc        1 PI2      0.127700
     35 H41         2.1470    2.1110   -0.9280 hc        1 PI2      0.128200
     36 H42         1.5890    0.6580   -1.8850 hc        1 PI2      0.128200
     37 HN5         3.2490    0.2830    0.5120 hn        1 PI2      0.478300
     38 H6          1.3060   -0.6000    2.5460 hx        1 PI2      0.164700
     39 H91         2.7850   -2.5250    2.8640 hc        1 PI2      0.148200
     40 H92         4.1160   -1.8110    1.8430 hc        1 PI2      0.148200
     41 H121        3.4800   -4.3930    0.8150 hn        1 PI2      0.509133
     42 H122        1.8720   -4.4810    1.2920 hn        1 PI2      0.509133
     43 H13         1.5770    0.7010    4.5180 hn        1 PI2      0.495800
     44 H14         4.1300    1.9730    4.8120 hx        1 PI2      0.128700
     45 H151        1.4700    2.7670    6.2070 hc        1 PI2      0.114200
     46 H152        2.7930    3.8190    5.5280 hc        1 PI2      0.114200
     47 H17         3.2170    3.5510    2.9110 ha        1 PI2      0.162500
     48 H18         1.9860    3.7590    0.7830 ha        1 PI2      0.191500
     49 H19        -0.4850    2.7140    5.0030 ha        1 PI2      0.162500
     50 H20        -1.7480    2.9520    2.8590 ha        1 PI2      0.191500
     51 H231        0.7380    4.0640   -0.7310 h1        1 PI2      0.116700
     52 H232       -1.0080    3.9890   -1.2810 h1        1 PI2      0.116700
     53 H24         4.5610    0.7130    6.8130 h1        1 PI2      0.081700
     54 H25         2.8340    0.2310    8.2500 ho        1 PI2      0.465000
     55 H261        2.9360    3.1890    7.8330 hx        1 PI2      0.134200
     56 H262        4.5690    3.3340    7.0000 hx        1 PI2      0.134200
     57 H27         4.0120    1.8890    9.5560 hn        1 PI2      0.456800
     58 H281        5.4960    4.4160    8.9610 hx        1 PI2      0.116700
     59 H282        3.8440    4.3010    9.7680 hx        1 PI2      0.116700
     60 H291        4.8700    2.9640   11.6560 hc        1 PI2      0.076200
     61 H292        6.5070    3.0820   10.8690 hc        1 PI2      0.076200
     62 H30         4.7830    5.5490   11.5860 hc        1 PI2      0.060700
     63 H311        6.2190    5.7190   13.6230 hc        1 PI2      0.058367
     64 H312        6.9870    4.1250   13.2370 hc        1 PI2      0.058367
     65 H313        5.2170    4.2100   13.6380 hc        1 PI2      0.058367
     66 H321        7.8120    5.1570   11.0220 hc        1 PI2      0.058367
     67 H322        6.6050    5.9510    9.9190 hc        1 PI2      0.058367
     68 H323        7.0070    6.6990   11.5170 hc        1 PI2      0.058367
     69 H52         2.5180    1.4520    1.4660 hn        1 PI2      0.478300
     70 H123        2.2560   -4.3500   -0.3340 hn        1 PI2      0.509133
     71 H132        2.6040   -0.3150    5.3670 hn        1 PI2      0.495800
     72 H272        5.4970    1.9980    8.8140 hn        1 PI2      0.456800
@<TRIPOS>BOND
     1    1    4 1   
     2    1   23 1   
     3    1   33 1   
     4    1   34 1   
     5    2    3 2   
     6    2    4 1   
     7    2    5 1   
     8    4   35 1   
     9    4   36 1   
    10    5    6 1   
    11    5   37 1   
    12    5   69 1   
    13    6    7 1   
    14    6    9 1   
    15    6   38 1   
    16    7    8 2   
    17    7   13 1   
    18    9   10 1   
    19    9   39 1   
    20    9   40 1   
    21   10   11 2   
    22   10   12 1   
    23   12   41 1   
    24   12   42 1   
    25   12   70 1   
    26   13   14 1   
    27   13   43 1   
    28   13   71 1   
    29   14   15 1   
    30   14   24 1   
    31   14   44 1   
    32   15   16 1   
    33   15   45 1   
    34   15   46 1   
    35   16   17 ar  
    36   16   19 ar  
    37   17   18 ar  
    38   17   47 1   
    39   18   21 ar  
    40   18   48 1   
    41   19   20 ar  
    42   19   49 1   
    43   20   21 ar  
    44   20   50 1   
    45   21   22 1   
    46   22   23 1   
    47   23   51 1   
    48   23   52 1   
    49   24   25 1   
    50   24   26 1   
    51   24   53 1   
    52   25   54 1   
    53   26   27 1   
    54   26   55 1   
    55   26   56 1   
    56   27   28 1   
    57   27   57 1   
    58   27   72 1   
    59   28   29 1   
    60   28   58 1   
    61   28   59 1   
    62   29   30 1   
    63   29   60 1   
    64   29   61 1   
    65   30   31 1   
    66   30   32 1   
    67   30   62 1   
    68   31   63 1   
    69   31   64 1   
    70   31   65 1   
    71   32   66 1   
    72   32   67 1   
    73   32   68 1   
@<TRIPOS>SUBSTRUCTURE
     1 PI2         1 TEMP              0 ****  ****    0 ROOT
