@<TRIPOS>MOLECULE
PI2
   68    66     1     0     0
SMALL
bcc


@<TRIPOS>ATOM
      1 C1         -4.2600    1.3780   -5.1260 c3        1 PI2     -0.191000
      2 C2         -2.1720    1.2810   -3.6880 c1        1 PI2      0.304000
      3 O3         -2.1750    0.2610   -3.0350 o         1 PI2     -0.381000
      4 C4         -2.7390    1.2750   -5.1650 c2        1 PI2     -0.177000
      5 N5         -1.0490    2.1940   -3.6020 n3        1 PI2     -0.367000
      6 C6         -0.0800    1.6800   -2.6920 c3        1 PI2      0.021000
      7 C7         -0.6810    1.6180   -1.2810 c2        1 PI2      0.291000
      8 O8         -0.4950    2.5220   -0.5030 o         1 PI2     -0.397000
      9 C9          1.1280    2.5780   -2.6830 c3        1 PI2     -0.192000
     10 C10         2.0070    2.2740   -3.9240 c2        1 PI2      0.302000
     11 O11         2.0380    1.1530   -4.3850 o         1 PI2     -0.395000
     12 N12         2.7810    3.3210   -4.5310 n         1 PI2     -0.427000
     13 N13        -0.7070    0.1870   -0.7880 n         1 PI2     -0.348000
     14 C14        -0.4890    0.1590    0.6400 c3        1 PI2      0.041000
     15 C15        -1.7600   -0.2550    1.3340 c3        1 PI2     -0.133000
     16 C16        -2.9980    0.0020    0.3700 c2        1 PI2     -0.090000
     17 C17        -3.7110    1.2190    0.2710 c2        1 PI2     -0.110000
     18 C18        -4.3520    1.5590   -0.9230 c1        1 PI2     -0.141000
     19 C19        -3.7750   -1.1010   -0.4050 c1        1 PI2     -0.102000
     20 C20        -4.6190   -0.7520   -1.4470 c1        1 PI2     -0.151000
     21 C21        -4.7710    0.5670   -1.7910 c1        1 PI2      0.044000
     22 O22        -5.4630    0.9250   -3.0300 os        1 PI2     -0.227000
     23 C23        -4.8250    0.2850   -4.1430 c3        1 PI2     -0.019000
     24 C24         0.6080   -0.8310    0.9660 c3        1 PI2      0.014000
     25 O25         0.0950   -2.1300    0.9150 oh        1 PI2     -0.331000
     26 C26         1.1520   -0.5480    2.3790 c3        1 PI2     -0.114000
     27 N27         2.4110   -1.2950    2.5800 n3        1 PI2     -0.312000
     28 C28         2.6970   -1.3950    4.0140 c3        1 PI2     -0.073000
     29 C29         4.0720   -2.0620    4.2190 c3        1 PI2     -0.160000
     30 C30         4.2400   -2.4560    5.7090 c3        1 PI2     -0.106000
     31 C31         4.6390   -3.9210    5.8050 c3        1 PI2     -0.209500
     32 C32         5.3370   -1.5830    6.3510 c3        1 PI2     -0.209500
     33 H11        -4.5210    2.2650   -4.8130 hc        1 PI2      0.104000
     34 H12        -4.6230    1.2280   -6.0280 hc        1 PI2      0.104000
     35 H41        -2.4800    0.4430   -5.6110 ha        1 PI2      0.115000
     36 H42        -2.3720    2.0390   -5.6590 ha        1 PI2      0.115000
     37 HN5        -0.7800    2.6600   -4.3430 hn        1 PI2      0.249000
     38 H6          0.1840    0.7820   -2.9720 h1        1 PI2      0.124000
     39 H91         1.6470    2.4190   -1.8690 hc        1 PI2      0.132500
     40 H92         0.8380    3.5180   -2.7080 hc        1 PI2      0.132500
     41 H121        3.1210    3.9950   -4.0160 hn        1 PI2      0.228500
     42 H122        2.9730    3.2870   -5.4250 hn        1 PI2      0.228500
     43 H13        -0.3790   -0.4830   -1.3120 hn        1 PI2      0.263000
     44 H14        -0.2240    1.0540    0.9490 h1        1 PI2      0.113000
     45 H151       -1.8700    0.2700    2.1550 hc        1 PI2      0.105500
     46 H152       -1.7130   -1.2080    1.5600 hc        1 PI2      0.105500
     47 H17        -3.7710    1.8130    1.0440 ha        1 PI2      0.135000
     48 H18        -4.5430    2.4930   -1.1240 ha        1 PI2      0.146000
     49 H19        -3.6950   -2.0320   -0.1340 ha        1 PI2      0.140000
     50 H20        -5.1660   -1.4300   -1.8760 ha        1 PI2      0.143000
     51 H231       -4.0950   -0.2700   -3.8230 h1        1 PI2      0.096000
     52 H232       -5.4800   -0.2760   -4.6190 h1        1 PI2      0.096000
     53 H24         1.3250   -0.7420    0.3200 h1        1 PI2      0.089000
     54 H25         0.7240   -2.6880    0.6050 ho        1 PI2      0.217000
     55 H261        1.3200    0.4070    2.4770 h1        1 PI2      0.082000
     56 H262        0.4930   -0.8340    3.0460 h1        1 PI2      0.082000
     57 H27         3.0970   -0.8550    2.1610 hn        1 PI2      0.154000
     58 H281        2.0070   -1.9310    4.4460 h1        1 PI2      0.071000
     59 H282        2.7080   -0.5070    4.4030 h1        1 PI2      0.071000
     60 H291        4.1320   -2.8670    3.6580 hc        1 PI2      0.086500
     61 H292        4.7780   -1.4360    3.9670 hc        1 PI2      0.086500
     62 H30         3.3990   -2.3170    6.1780 hc        1 PI2      0.088000
     63 H311        3.9390   -4.4780    5.4040 hc        1 PI2      0.074000
     64 H312        5.4820   -4.0620    5.3280 hc        1 PI2      0.074000
     65 H313        4.7520   -4.1690    6.7520 hc        1 PI2      0.074000
     66 H321        5.4980   -1.8860    7.2770 hc        1 PI2      0.074000
     67 H322        6.1650   -1.6650    5.8310 hc        1 PI2      0.074000
     68 H323        5.0470   -0.6470    6.3580 hc        1 PI2      0.074000
@<TRIPOS>BOND
     1    1    4 1   
     2    1   23 1   
     3    1   33 1   
     4    1   34 1   
     5    2    3 1   
     6    2    5 1   
     7    4   35 1   
     8    4   36 1   
     9    5    6 1   
    10    5   37 1   
    11    6    7 1   
    12    6    9 1   
    13    6   38 1   
    14    7    8 1   
    15    7   13 1   
    16    9   10 1   
    17    9   39 1   
    18    9   40 1   
    19   10   11 1   
    20   10   12 1   
    21   12   41 1   
    22   12   42 1   
    23   13   14 1   
    24   13   43 1   
    25   14   15 1   
    26   14   24 1   
    27   14   44 1   
    28   15   16 1   
    29   15   45 1   
    30   15   46 1   
    31   16   17 1   
    32   16   19 1   
    33   17   18 1   
    34   17   47 1   
    35   18   48 1   
    36   19   49 1   
    37   20   21 1   
    38   20   50 1   
    39   21   22 1   
    40   22   23 1   
    41   23   51 1   
    42   23   52 1   
    43   24   25 1   
    44   24   26 1   
    45   24   53 1   
    46   25   54 1   
    47   26   27 1   
    48   26   55 1   
    49   26   56 1   
    50   27   28 1   
    51   27   57 1   
    52   28   29 1   
    53   28   58 1   
    54   28   59 1   
    55   29   30 1   
    56   29   60 1   
    57   29   61 1   
    58   30   31 1   
    59   30   32 1   
    60   30   62 1   
    61   31   63 1   
    62   31   64 1   
    63   31   65 1   
    64   32   66 1   
    65   32   67 1   
    66   32   68 1   
@<TRIPOS>SUBSTRUCTURE
     1 PI2         1 TEMP              0 ****  ****    0 ROOT
