@<TRIPOS>MOLECULE
PI2
   72    73     1     0     0
SMALL
bcc


@<TRIPOS>ATOM
      1 C1          0.3420    2.2030   -1.5400 c3        1 PI2     -0.128400
      2 C2          1.2000    0.5560    0.1310 c         1 PI2      0.602100
      3 O3          0.2100   -0.0210    0.5130 o         1 PI2     -0.385100
      4 C4          1.5240    1.3550   -1.0960 c3        1 PI2     -0.137400
      5 N5          2.4380    0.4160    1.1330 n4        1 PI2     -0.746800
      6 C6          2.2360   -0.4920    2.3000 c3        1 PI2      0.085500
      7 C7          3.0900    0.0090    3.5030 c         1 PI2      0.494100
      8 O8          4.3110   -0.0160    3.4660 o         1 PI2     -0.354100
      9 C9          2.6710   -1.9640    2.0760 c3        1 PI2     -0.188400
     10 C10         2.1280   -2.6090    0.8250 c         1 PI2      0.554100
     11 O11         1.8140   -2.0160   -0.1980 o         1 PI2     -0.400100
     12 N12         2.0170   -4.0990    0.7850 n4        1 PI2     -0.742400
     13 N13         2.4120    0.5230    4.7240 n4        1 PI2     -0.661800
     14 C14         3.1430    1.6900    5.4080 c3        1 PI2      0.150500
     15 C15         2.2950    2.9690    5.2940 c3        1 PI2     -0.057100
     16 C16         1.6410    3.1100    3.9680 ca        1 PI2     -0.244300
     17 C17         2.3980    3.3180    2.8130 ca        1 PI2     -0.095000
     18 C18         1.7780    3.4520    1.5680 ca        1 PI2     -0.221000
     19 C19         0.2340    3.1630    3.8930 ca        1 PI2     -0.095000
     20 C20        -0.4010    3.3320    2.6770 ca        1 PI2     -0.221000
     21 C21         0.3740    3.4510    1.4930 ca        1 PI2      0.185100
     22 O22        -0.3720    3.5300    0.3580 os        1 PI2     -0.284900
     23 C23         0.2680    3.5880   -0.9240 c3        1 PI2      0.102400
     24 C24         3.4720    1.3470    6.8990 c3        1 PI2      0.109100
     25 O25         2.2910    0.7790    7.4310 oh        1 PI2     -0.613800
     26 C26         3.8700    2.6370    7.6510 c3        1 PI2      0.065800
     27 N27         4.4600    2.4140    8.9960 n4        1 PI2     -0.772000
     28 C28         4.8320    3.7220    9.6670 c3        1 PI2      0.111800
     29 C29         5.4170    3.4930   11.0530 c3        1 PI2     -0.117400
     30 C30         5.7650    4.8400   11.6930 c3        1 PI2     -0.055700
     31 C31         5.9930    4.6330   13.1780 c3        1 PI2     -0.106100
     32 C32         6.9910    5.4560   11.0540 c3        1 PI2     -0.106100
     33 H11        -0.6270    1.6590   -1.3630 hc        1 PI2      0.127700
     34 H12         0.4410    2.3400   -2.6580 hc        1 PI2      0.127700
     35 H41         2.4330    2.0020   -0.9620 hc        1 PI2      0.128200
     36 H42         1.7510    0.5910   -1.9020 hc        1 PI2      0.128200
     37 HN5         2.6160    1.3870    1.4650 hn        1 PI2      0.478300
     38 H6          1.1250   -0.4730    2.5440 hx        1 PI2      0.164700
     39 H91         2.3510   -2.5440    2.9900 hc        1 PI2      0.148200
     40 H92         3.8020   -2.0250    2.0140 hc        1 PI2      0.148200
     41 H121        2.9130   -4.5490    1.0310 hn        1 PI2      0.509133
     42 H122        1.7540   -4.4040   -0.1770 hn        1 PI2      0.509133
     43 H13         2.3200   -0.2430    5.4160 hn        1 PI2      0.495800
     44 H14         4.1280    1.8330    4.8690 hx        1 PI2      0.128700
     45 H151        1.5190    2.9760    6.1100 hc        1 PI2      0.114200
     46 H152        2.9850    3.8440    5.4650 hc        1 PI2      0.114200
     47 H17         3.4920    3.4390    2.8810 ha        1 PI2      0.162500
     48 H18         2.3900    3.7150    0.6900 ha        1 PI2      0.191500
     49 H19        -0.3730    3.1100    4.8140 ha        1 PI2      0.162500
     50 H20        -1.5020    3.4180    2.6060 ha        1 PI2      0.191500
     51 H231        1.2550    4.1100   -0.8900 h1        1 PI2      0.116700
     52 H232       -0.4610    4.2190   -1.5210 h1        1 PI2      0.116700
     53 H24         4.3180    0.6000    6.9240 h1        1 PI2      0.081700
     54 H25         2.4840    0.3710    8.2890 ho        1 PI2      0.465000
     55 H261        2.9500    3.2820    7.7920 hx        1 PI2      0.134200
     56 H262        4.6250    3.2080    7.0350 hx        1 PI2      0.134200
     57 H27         3.7890    1.9260    9.6020 hn        1 PI2      0.456800
     58 H281        5.5830    4.2420    9.0060 hx        1 PI2      0.116700
     59 H282        3.8960    4.3470    9.7360 hx        1 PI2      0.116700
     60 H291        6.3460    2.8670   10.9980 hc        1 PI2      0.075700
     61 H292        4.6730    2.9650   11.7090 hc        1 PI2      0.075700
     62 H30         4.8910    5.5390   11.5610 hc        1 PI2      0.060700
     63 H311        6.2460    5.6110   13.6580 hc        1 PI2      0.058367
     64 H312        5.0760    4.2290   13.6690 hc        1 PI2      0.058367
     65 H313        6.8400    3.9270   13.3550 hc        1 PI2      0.058367
     66 H321        7.8760    4.7820   11.1530 hc        1 PI2      0.058367
     67 H322        6.8200    5.6720    9.9720 hc        1 PI2      0.058367
     68 H323        7.2360    6.4220   11.5650 hc        1 PI2      0.058367
     69 H52         3.2460    0.1090    0.5820 hn        1 PI2      0.478300
     70 H123        1.2860   -4.4340    1.4330 hn        1 PI2      0.509133
     71 H132        1.4580    0.8550    4.4890 hn        1 PI2      0.495800
     72 H272        5.3080    1.8370    8.9290 hn        1 PI2      0.456800
@<TRIPOS>BOND
     1    1    4 1   
     2    1   23 1   
     3    1   33 1   
     4    1   34 1   
     5    2    3 2   
     6    2    4 1   
     7    2    5 1   
     8    4   35 1   
     9    4   36 1   
    10    5    6 1   
    11    5   37 1   
    12    5   69 1   
    13    6    7 1   
    14    6    9 1   
    15    6   38 1   
    16    7    8 2   
    17    7   13 1   
    18    9   10 1   
    19    9   39 1   
    20    9   40 1   
    21   10   11 2   
    22   10   12 1   
    23   12   41 1   
    24   12   42 1   
    25   12   70 1   
    26   13   14 1   
    27   13   43 1   
    28   13   71 1   
    29   14   15 1   
    30   14   24 1   
    31   14   44 1   
    32   15   16 1   
    33   15   45 1   
    34   15   46 1   
    35   16   17 ar  
    36   16   19 ar  
    37   17   18 ar  
    38   17   47 1   
    39   18   21 ar  
    40   18   48 1   
    41   19   20 ar  
    42   19   49 1   
    43   20   21 ar  
    44   20   50 1   
    45   21   22 1   
    46   22   23 1   
    47   23   51 1   
    48   23   52 1   
    49   24   25 1   
    50   24   26 1   
    51   24   53 1   
    52   25   54 1   
    53   26   27 1   
    54   26   55 1   
    55   26   56 1   
    56   27   28 1   
    57   27   57 1   
    58   27   72 1   
    59   28   29 1   
    60   28   58 1   
    61   28   59 1   
    62   29   30 1   
    63   29   60 1   
    64   29   61 1   
    65   30   31 1   
    66   30   32 1   
    67   30   62 1   
    68   31   63 1   
    69   31   64 1   
    70   31   65 1   
    71   32   66 1   
    72   32   67 1   
    73   32   68 1   
@<TRIPOS>SUBSTRUCTURE
     1 PI2         1 TEMP              0 ****  ****    0 ROOT
