@<TRIPOS>MOLECULE
PI2
   72    73     1     0     0
SMALL
bcc


@<TRIPOS>ATOM
      1 C1          0.0920    2.1410   -1.4350 c3        1 PI2     -0.128400
      2 C2          1.1930    0.5440    0.1370 c         1 PI2      0.602100
      3 O3          0.2900   -0.1570    0.5280 o         1 PI2     -0.385100
      4 C4          1.3780    1.4190   -1.0660 c3        1 PI2     -0.137400
      5 N5          2.4750    0.5090    1.0920 n4        1 PI2     -0.746800
      6 C6          2.4210   -0.4590    2.2260 c3        1 PI2      0.085500
      7 C7          3.2560    0.0910    3.4210 c         1 PI2      0.494100
      8 O8          4.4710    0.2080    3.3430 o         1 PI2     -0.354100
      9 C9          3.0110   -1.8630    1.9280 c3        1 PI2     -0.188400
     10 C10         2.4990   -2.5180    0.6700 c         1 PI2      0.554100
     11 O11         2.0810   -1.9270   -0.3170 o         1 PI2     -0.400100
     12 N12         2.5570   -4.0090    0.5720 n4        1 PI2     -0.742400
     13 N13         2.5710    0.4790    4.6830 n4        1 PI2     -0.661800
     14 C14         3.1890    1.6960    5.3910 c3        1 PI2      0.150500
     15 C15         2.1990    2.8730    5.3560 c3        1 PI2     -0.057100
     16 C16         1.4840    2.9870    4.0590 ca        1 PI2     -0.244300
     17 C17         2.1690    3.3230    2.8890 ca        1 PI2     -0.095000
     18 C18         1.4920    3.4310    1.6720 ca        1 PI2     -0.221000
     19 C19         0.0790    2.8810    4.0320 ca        1 PI2     -0.095000
     20 C20        -0.6170    3.0220    2.8450 ca        1 PI2     -0.221000
     21 C21         0.0960    3.2720    1.6430 ca        1 PI2      0.185100
     22 O22        -0.6950    3.3080    0.5360 os        1 PI2     -0.284900
     23 C23        -0.1140    3.4850   -0.7610 c3        1 PI2      0.102400
     24 C24         3.6090    1.3370    6.8540 c3        1 PI2      0.109100
     25 O25         2.5200    0.6190    7.4010 oh        1 PI2     -0.613800
     26 C26         3.8870    2.6350    7.6460 c3        1 PI2      0.065800
     27 N27         4.5460    2.4310    8.9610 n4        1 PI2     -0.772000
     28 C28         4.7930    3.7470    9.6730 c3        1 PI2      0.111800
     29 C29         5.4470    3.5340   11.0310 c3        1 PI2     -0.117400
     30 C30         5.6680    4.8880   11.7110 c3        1 PI2     -0.055700
     31 C31         5.9650    4.6550   13.1810 c3        1 PI2     -0.106100
     32 C32         6.7980    5.6570   11.0630 c3        1 PI2     -0.106100
     33 H11         0.1340    2.3300   -2.5500 hc        1 PI2      0.127700
     34 H12        -0.8010    1.4840   -1.2500 hc        1 PI2      0.127700
     35 H41         1.6610    0.7160   -1.9100 hc        1 PI2      0.128200
     36 H42         2.2130    2.1590   -0.9350 hc        1 PI2      0.128200
     37 HN5         3.2920    0.3170    0.5020 hn        1 PI2      0.478300
     38 H6          1.3250   -0.5770    2.5070 hx        1 PI2      0.164700
     39 H91         4.1390   -1.7900    1.8260 hc        1 PI2      0.148200
     40 H92         2.7940   -2.5080    2.8270 hc        1 PI2      0.148200
     41 H121        2.2940   -4.3060   -0.3920 hn        1 PI2      0.509133
     42 H122        1.8950   -4.4490    1.2300 hn        1 PI2      0.509133
     43 H13         1.5770    0.7090    4.4920 hn        1 PI2      0.495800
     44 H14         4.1310    1.9700    4.8260 hx        1 PI2      0.128700
     45 H151        2.7920    3.8140    5.5410 hc        1 PI2      0.114200
     46 H152        1.4580    2.7610    6.1970 hc        1 PI2      0.114200
     47 H17         3.2450    3.5660    2.9270 ha        1 PI2      0.162500
     48 H18         2.0390    3.7940    0.7870 ha        1 PI2      0.191500
     49 H19        -0.4840    2.7250    4.9700 ha        1 PI2      0.162500
     50 H20        -1.7220    2.9840    2.8140 ha        1 PI2      0.191500
     51 H231       -0.9310    4.0510   -1.3090 h1        1 PI2      0.116200
     52 H232        0.8080    4.1150   -0.7390 h1        1 PI2      0.116200
     53 H24         4.5350    0.6910    6.8220 h1        1 PI2      0.081700
     54 H25         2.7890    0.2040    8.2350 ho        1 PI2      0.465000
     55 H261        4.5500    3.3110    7.0300 hx        1 PI2      0.134200
     56 H262        2.9060    3.1660    7.8420 hx        1 PI2      0.134200
     57 H27         5.4500    1.9560    8.8450 hn        1 PI2      0.456800
     58 H281        3.7960    4.2610    9.7950 hx        1 PI2      0.116700
     59 H282        5.4590    4.3720    9.0110 hx        1 PI2      0.116700
     60 H291        6.4370    3.0180   10.9230 hc        1 PI2      0.076200
     61 H292        4.7890    2.9040   11.6870 hc        1 PI2      0.076200
     62 H30         4.7190    5.4910   11.6320 hc        1 PI2      0.060700
     63 H311        6.8890    4.0400   13.3060 hc        1 PI2      0.058367
     64 H312        5.1140    4.1360   13.6820 hc        1 PI2      0.058367
     65 H313        6.1270    5.6370   13.6910 hc        1 PI2      0.058367
     66 H321        6.9520    6.6260   11.6030 hc        1 PI2      0.058367
     67 H322        7.7540    5.0820   11.1120 hc        1 PI2      0.058367
     68 H323        6.5700    5.8900    9.9950 hc        1 PI2      0.058367
     69 H52         2.5550    1.4800    1.4570 hn        1 PI2      0.478300
     70 H123        3.5070   -4.3620    0.7690 hn        1 PI2      0.509133
     71 H132        2.5900   -0.3180    5.3450 hn        1 PI2      0.495800
     72 H272        3.9560    1.8480    9.5680 hn        1 PI2      0.456800
@<TRIPOS>BOND
     1    1    4 1   
     2    1   23 1   
     3    1   33 1   
     4    1   34 1   
     5    2    3 2   
     6    2    4 1   
     7    2    5 1   
     8    4   35 1   
     9    4   36 1   
    10    5    6 1   
    11    5   37 1   
    12    5   69 1   
    13    6    7 1   
    14    6    9 1   
    15    6   38 1   
    16    7    8 2   
    17    7   13 1   
    18    9   10 1   
    19    9   39 1   
    20    9   40 1   
    21   10   11 2   
    22   10   12 1   
    23   12   41 1   
    24   12   42 1   
    25   12   70 1   
    26   13   14 1   
    27   13   43 1   
    28   13   71 1   
    29   14   15 1   
    30   14   24 1   
    31   14   44 1   
    32   15   16 1   
    33   15   45 1   
    34   15   46 1   
    35   16   17 ar  
    36   16   19 ar  
    37   17   18 ar  
    38   17   47 1   
    39   18   21 ar  
    40   18   48 1   
    41   19   20 ar  
    42   19   49 1   
    43   20   21 ar  
    44   20   50 1   
    45   21   22 1   
    46   22   23 1   
    47   23   51 1   
    48   23   52 1   
    49   24   25 1   
    50   24   26 1   
    51   24   53 1   
    52   25   54 1   
    53   26   27 1   
    54   26   55 1   
    55   26   56 1   
    56   27   28 1   
    57   27   57 1   
    58   27   72 1   
    59   28   29 1   
    60   28   58 1   
    61   28   59 1   
    62   29   30 1   
    63   29   60 1   
    64   29   61 1   
    65   30   31 1   
    66   30   32 1   
    67   30   62 1   
    68   31   63 1   
    69   31   64 1   
    70   31   65 1   
    71   32   66 1   
    72   32   67 1   
    73   32   68 1   
@<TRIPOS>SUBSTRUCTURE
     1 PI2         1 TEMP              0 ****  ****    0 ROOT
