@<TRIPOS>MOLECULE
PI3
   73    74     1     0     0
SMALL
bcc


@<TRIPOS>ATOM
      1 C1          0.0860    1.4970   -1.5850 c3        1 PI3     -0.127400
      2 C2          1.5100    0.5300    0.2230 c         1 PI3      0.571100
      3 O3          0.8610   -0.4210    0.6000 o         1 PI3     -0.375100
      4 C4          1.5010    1.2750   -1.0810 c3        1 PI3     -0.145400
      5 N5          2.5450    1.0850    1.2520 ny        1 PI3     -0.711800
      6 C6          2.6270    0.3420    2.5490 c3        1 PI3      0.064500
      7 C7          3.0010    1.3180    3.6780 c         1 PI3      0.526100
      8 O8          3.8610    2.1810    3.5860 o         1 PI3     -0.392100
      9 C9          3.7040   -0.7830    2.5310 c3        1 PI3     -0.073700
     10 C10         3.8010   -1.4140    3.9030 c3        1 PI3     -0.124100
     11 C11         3.3500   -1.8290    1.4940 c3        1 PI3     -0.124100
     12 N12         2.2960    1.1660    5.0020 ny        1 PI3     -0.664800
     13 C13         2.0430    2.4900    5.7010 c3        1 PI3      0.088500
     14 C14         0.6030    2.9680    5.4370 c3        1 PI3     -0.052100
     15 C15         0.1700    2.7970    4.0270 ca        1 PI3     -0.227300
     16 C16         0.8290    3.4500    2.9830 ca        1 PI3     -0.094500
     17 C17         0.3840    3.3270    1.6660 ca        1 PI3     -0.211000
     18 C18        -1.0120    2.0820    3.7530 ca        1 PI3     -0.094500
     19 C19        -1.4870    1.9690    2.4590 ca        1 PI3     -0.211000
     20 C20        -0.7750    2.5810    1.3970 ca        1 PI3      0.176100
     21 O21        -1.3360    2.3710    0.1710 os        1 PI3     -0.290900
     22 C22        -0.6200    2.7170   -1.0210 c3        1 PI3      0.107400
     23 C23         2.2980    2.4220    7.2400 c3        1 PI3      0.119100
     24 O24         1.6460    3.5150    7.8510 oh        1 PI3     -0.582800
     25 C25         3.8030    2.6190    7.5610 c3        1 PI3      0.096800
     26 N26         4.0590    2.9690    8.9840 ny        1 PI3     -0.761000
     27 C27         5.5120    3.2680    9.2450 c3        1 PI3      0.109800
     28 C28         5.7630    3.6060   10.7100 c3        1 PI3     -0.113400
     29 C29         7.2450    3.9130   10.9240 c3        1 PI3     -0.057700
     30 C30         7.4170    4.6010   12.2650 c3        1 PI3     -0.104100
     31 C31         8.0870    2.6570   10.8680 c3        1 PI3     -0.104100
     32 H11         0.1550    1.6350   -2.7040 hc        1 PI3      0.121200
     33 H12A       -0.5440    0.5820   -1.4060 hc        1 PI3      0.121200
     34 H41         2.0520    0.6140   -1.8180 hc        1 PI3      0.121200
     35 H42         2.0490    2.2540   -1.0220 hc        1 PI3      0.121200
     36 HN5         2.2770    2.0700    1.4270 hn        1 PI3      0.474300
     37 H6          1.6120   -0.1340    2.7290 hx        1 PI3      0.155700
     38 H9          4.7020   -0.3250    2.2710 hc        1 PI3      0.097700
     39 H101        2.7980   -1.7170    4.2910 hc        1 PI3      0.072867
     40 H102        4.4290   -2.3440    3.8380 hc        1 PI3      0.072867
     41 H103        4.3050   -0.7290    4.6280 hc        1 PI3      0.072867
     42 H111        4.0820   -2.6770    1.5530 hc        1 PI3      0.072867
     43 H112        3.4040   -1.4110    0.4600 hc        1 PI3      0.072867
     44 H113        2.3250   -2.2430    1.6640 hc        1 PI3      0.072867
     45 H12         1.3850    0.7090    4.8420 hn        1 PI3      0.474800
     46 H13         2.7580    3.2490    5.2550 hx        1 PI3      0.137700
     47 H141        0.5700    4.0650    5.7090 hc        1 PI3      0.108700
     48 H142       -0.1050    2.4290    6.1250 hc        1 PI3      0.108700
     49 H16         1.6840    4.1140    3.1990 ha        1 PI3      0.156000
     50 H17         0.8700    3.9250    0.8790 ha        1 PI3      0.185000
     51 H18        -1.5930    1.6330    4.5790 ha        1 PI3      0.156000
     52 H19        -2.4310    1.4390    2.2360 ha        1 PI3      0.185000
     53 H221       -1.4600    3.0160   -1.7200 h1        1 PI3      0.102200
     54 H222        0.0610    3.5910   -0.8790 h1        1 PI3      0.102200
     55 H23         1.9280    1.4460    7.6620 h1        1 PI3      0.077700
     56 H24         0.7110    3.2960    7.9950 ho        1 PI3      0.469000
     57 H251        4.3650    1.6730    7.3220 hx        1 PI3      0.111700
     58 H252        4.2120    3.4640    6.9320 hx        1 PI3      0.111700
     59 H26         3.7610    2.2010    9.5980 hn        1 PI3      0.468800
     60 H271        5.8060    4.1380    8.5910 hx        1 PI3      0.109200
     61 H272        6.1090    2.3590    8.9470 hx        1 PI3      0.109200
     62 H281        5.4690    2.7490   11.3730 hc        1 PI3      0.076700
     63 H282        5.1590    4.5040   11.0090 hc        1 PI3      0.076700
     64 H29         7.5880    4.6200   10.1160 hc        1 PI3      0.057700
     65 H301        8.4980    4.8320   12.4340 hc        1 PI3      0.055533
     66 H302        7.0650    3.9430   13.0960 hc        1 PI3      0.055533
     67 H303        6.8440    5.5590   12.2960 hc        1 PI3      0.055533
     68 H311        7.7640    1.9250   11.6480 hc        1 PI3      0.055533
     69 H312        8.0200    2.1700    9.8660 hc        1 PI3      0.055533
     70 H313        9.1590    2.9130   11.0590 hc        1 PI3      0.055533
     71 H52         3.4690    1.0730    0.8000 hn        1 PI3      0.474300
     72 H122        2.8700    0.5530    5.5970 hn        1 PI3      0.474800
     73 H262        3.4950    3.8000    9.2300 hn        1 PI3      0.468800
@<TRIPOS>BOND
     1    1    4 1   
     2    1   22 1   
     3    1   32 1   
     4    1   33 1   
     5    2    3 2   
     6    2    4 1   
     7    2    5 1   
     8    4   34 1   
     9    4   35 1   
    10    5    6 1   
    11    5   36 1   
    12    5   71 1   
    13    6    7 1   
    14    6    9 1   
    15    6   37 1   
    16    7    8 2   
    17    7   12 1   
    18    9   10 1   
    19    9   11 1   
    20    9   38 1   
    21   10   39 1   
    22   10   40 1   
    23   10   41 1   
    24   11   42 1   
    25   11   43 1   
    26   11   44 1   
    27   12   13 1   
    28   12   45 1   
    29   12   72 1   
    30   13   14 1   
    31   13   23 1   
    32   13   46 1   
    33   14   15 1   
    34   14   47 1   
    35   14   48 1   
    36   15   16 ar  
    37   15   18 ar  
    38   16   17 ar  
    39   16   49 1   
    40   17   20 ar  
    41   17   50 1   
    42   18   19 ar  
    43   18   51 1   
    44   19   20 ar  
    45   19   52 1   
    46   20   21 1   
    47   21   22 1   
    48   22   53 1   
    49   22   54 1   
    50   23   24 1   
    51   23   25 1   
    52   23   55 1   
    53   24   56 1   
    54   25   26 1   
    55   25   57 1   
    56   25   58 1   
    57   26   27 1   
    58   26   59 1   
    59   26   73 1   
    60   27   28 1   
    61   27   60 1   
    62   27   61 1   
    63   28   29 1   
    64   28   62 1   
    65   28   63 1   
    66   29   30 1   
    67   29   31 1   
    68   29   64 1   
    69   30   65 1   
    70   30   66 1   
    71   30   67 1   
    72   31   68 1   
    73   31   69 1   
    74   31   70 1   
@<TRIPOS>SUBSTRUCTURE
     1 PI3         1 TEMP              0 ****  ****    0 ROOT
