@<TRIPOS>MOLECULE
PI3
   70    71     1     0     0
SMALL
bcc


@<TRIPOS>ATOM
      1 C1          1.1430   -0.6350   -5.6290 c3        1 PI3     -0.113400
      2 C2          2.1490   -0.1380   -3.3790 c         1 PI3      0.663100
      3 O3          2.2600   -1.3300   -3.0260 o         1 PI3     -0.614100
      4 C4          2.0920    0.2530   -4.8480 c3        1 PI3     -0.142400
      5 N5          2.1330    0.8790   -2.4440 n         1 PI3     -0.564900
      6 C6          2.1920    0.6350   -1.0260 c3        1 PI3      0.045700
      7 C7          0.8300    1.0240   -0.3860 c         1 PI3      0.635100
      8 O8          0.4410    2.2090   -0.4110 o         1 PI3     -0.613100
      9 C9          3.2880    1.4540   -0.3030 c3        1 PI3     -0.075700
     10 C10         3.3260    1.0640    1.1610 c3        1 PI3     -0.093100
     11 C11         4.6450    1.2320   -0.9350 c3        1 PI3     -0.093100
     12 N12         0.0990    0.0240    0.2260 n         1 PI3     -0.543900
     13 C13        -1.2730    0.2320    0.6340 c3        1 PI3      0.066700
     14 C14        -2.2590   -0.7410   -0.0490 c3        1 PI3     -0.054100
     15 C15        -2.0880   -0.7630   -1.5250 ca        1 PI3     -0.098300
     16 C16        -2.3420    0.3880   -2.2820 ca        1 PI3     -0.112000
     17 C17        -2.0790    0.4080   -3.6470 ca        1 PI3     -0.139500
     18 C18        -1.6360   -1.9230   -2.1640 ca        1 PI3     -0.112000
     19 C19        -1.3690   -1.9220   -3.5310 ca        1 PI3     -0.139500
     20 C20        -1.5650   -0.7430   -4.2610 ca        1 PI3      0.088100
     21 O21        -1.2980   -0.7570   -5.6250 os        1 PI3     -0.342900
     22 C22        -0.1680    0.0450   -5.9920 c3        1 PI3      0.130400
     23 C23        -1.4640    0.0950    2.1700 c3        1 PI3      0.089100
     24 O24        -2.8320    0.2940    2.4910 oh        1 PI3     -0.597800
     25 C25        -0.5750    1.0910    2.9400 c3        1 PI3      0.131800
     26 N26        -0.8050    1.1760    4.3620 n3        1 PI3     -0.813200
     27 C27        -0.2000    0.1020    5.1300 c3        1 PI3      0.159800
     28 C28        -0.6570    0.0780    6.5870 c3        1 PI3     -0.081400
     29 C29         0.0540   -1.0170    7.3690 c3        1 PI3     -0.066700
     30 C30        -0.0350   -0.7320    8.8550 c3        1 PI3     -0.090600
     31 C31        -0.5270   -2.3820    7.0670 c3        1 PI3     -0.090600
     32 H11         0.9260   -1.5710   -5.0440 hc        1 PI3      0.073200
     33 H12A        1.6530   -0.9570   -6.5760 hc        1 PI3      0.073200
     34 H41         3.1380    0.1190   -5.2390 hc        1 PI3      0.065700
     35 H42         1.8220    1.3320   -4.9820 hc        1 PI3      0.065700
     36 HN5         1.9710    1.8160   -2.7270 hn        1 PI3      0.322500
     37 H6          2.4130   -0.4640   -0.8680 h1        1 PI3      0.097700
     38 H9          3.0180    2.5460   -0.3780 hc        1 PI3      0.070700
     39 H101        4.1030    1.6640    1.6930 hc        1 PI3      0.040200
     40 H102        2.3380    1.2590    1.6450 hc        1 PI3      0.040200
     41 H103        3.5760   -0.0180    1.2760 hc        1 PI3      0.040200
     42 H111        4.8700    0.1410   -1.0120 hc        1 PI3      0.040200
     43 H112        4.6880    1.6770   -1.9580 hc        1 PI3      0.040200
     44 H113        5.4380    1.7140   -0.3120 hc        1 PI3      0.040200
     45 H12         0.3660   -0.9190    0.0580 hn        1 PI3      0.313500
     46 H13        -1.5660    1.2890    0.3470 h1        1 PI3      0.083700
     47 H141       -2.1220   -1.7700    0.3770 hc        1 PI3      0.065700
     48 H142       -3.2980   -0.4070    0.2190 hc        1 PI3      0.065700
     49 H16        -2.7330    1.2910   -1.7870 ha        1 PI3      0.136000
     50 H17        -2.2630    1.3130   -4.2430 ha        1 PI3      0.146500
     51 H18        -1.4700   -2.8430   -1.5810 ha        1 PI3      0.136000
     52 H19        -0.9950   -2.8240   -4.0360 ha        1 PI3      0.146500
     53 H221       -0.2800    0.1310   -7.1080 h1        1 PI3      0.052700
     54 H222       -0.2580    1.0620   -5.5290 h1        1 PI3      0.052700
     55 H23        -1.2590   -0.9620    2.4970 h1        1 PI3      0.077700
     56 H24        -3.0480    1.2100    2.2750 ho        1 PI3      0.402000
     57 H251       -0.7540    2.1220    2.5180 h1        1 PI3      0.065200
     58 H252        0.5030    0.8260    2.7590 h1        1 PI3      0.065200
     59 H26        -1.7920    1.2250    4.5490 hn        1 PI3      0.363800
     60 H271        0.9160    0.2610    5.0980 h1        1 PI3      0.028200
     61 H272       -0.4050   -0.9120    4.6730 h1        1 PI3      0.028200
     62 H281       -1.7660   -0.0840    6.6410 hc        1 PI3      0.048700
     63 H282       -0.4400    1.0720    7.0610 hc        1 PI3      0.048700
     64 H29         1.1420   -1.0200    7.0750 hc        1 PI3      0.046700
     65 H301        0.4720   -1.5400    9.4350 hc        1 PI3      0.034200
     66 H302        0.4570    0.2410    9.0970 hc        1 PI3      0.034200
     67 H303       -1.1020   -0.6790    9.1800 hc        1 PI3      0.034200
     68 H311       -1.6090   -2.4200    7.3450 hc        1 PI3      0.034200
     69 H312       -0.4340   -2.6200    5.9800 hc        1 PI3      0.034200
     70 H313        0.0130   -3.1680    7.6480 hc        1 PI3      0.034200
@<TRIPOS>BOND
     1    1    4 1   
     2    1   22 1   
     3    1   32 1   
     4    1   33 1   
     5    2    3 2   
     6    2    4 1   
     7    2    5 1   
     8    4   34 1   
     9    4   35 1   
    10    5    6 1   
    11    5   36 1   
    12    6    7 1   
    13    6    9 1   
    14    6   37 1   
    15    7    8 2   
    16    7   12 1   
    17    9   10 1   
    18    9   11 1   
    19    9   38 1   
    20   10   39 1   
    21   10   40 1   
    22   10   41 1   
    23   11   42 1   
    24   11   43 1   
    25   11   44 1   
    26   12   13 1   
    27   12   45 1   
    28   13   14 1   
    29   13   23 1   
    30   13   46 1   
    31   14   15 1   
    32   14   47 1   
    33   14   48 1   
    34   15   16 ar  
    35   15   18 ar  
    36   16   17 ar  
    37   16   49 1   
    38   17   20 ar  
    39   17   50 1   
    40   18   19 ar  
    41   18   51 1   
    42   19   20 ar  
    43   19   52 1   
    44   20   21 1   
    45   21   22 1   
    46   22   53 1   
    47   22   54 1   
    48   23   24 1   
    49   23   25 1   
    50   23   55 1   
    51   24   56 1   
    52   25   26 1   
    53   25   57 1   
    54   25   58 1   
    55   26   27 1   
    56   26   59 1   
    57   27   28 1   
    58   27   60 1   
    59   27   61 1   
    60   28   29 1   
    61   28   62 1   
    62   28   63 1   
    63   29   30 1   
    64   29   31 1   
    65   29   64 1   
    66   30   65 1   
    67   30   66 1   
    68   30   67 1   
    69   31   68 1   
    70   31   69 1   
    71   31   70 1   
@<TRIPOS>SUBSTRUCTURE
     1 PI3         1 TEMP              0 ****  ****    0 ROOT
