@<TRIPOS>MOLECULE
PI3
   73    74     1     0     0
SMALL
bcc


@<TRIPOS>ATOM
      1 C1          0.1230    1.5020   -1.6010 c3        1 PI3     -0.127400
      2 C2          1.5320    0.5320    0.2170 c         1 PI3      0.571100
      3 O3          0.8760   -0.4160    0.5910 o         1 PI3     -0.375100
      4 C4          1.5340    1.2750   -1.0880 c3        1 PI3     -0.145400
      5 N5          2.5620    1.0840    1.2510 n4        1 PI3     -0.711800
      6 C6          2.6330    0.3430    2.5500 c3        1 PI3      0.064500
      7 C7          3.0050    1.3190    3.6800 c         1 PI3      0.526100
      8 O8          3.8700    2.1770    3.5910 o         1 PI3     -0.392100
      9 C9          3.7050   -0.7880    2.5410 c3        1 PI3     -0.073700
     10 C10         3.7900   -1.4170    3.9150 c3        1 PI3     -0.124100
     11 C11         3.3530   -1.8340    1.5030 c3        1 PI3     -0.124100
     12 N12         2.2910    1.1730    4.9990 n4        1 PI3     -0.664800
     13 C13         2.0400    2.4990    5.6950 c3        1 PI3      0.088500
     14 C14         0.6050    2.9840    5.4210 c3        1 PI3     -0.052100
     15 C15         0.1790    2.8120    4.0090 ca        1 PI3     -0.227300
     16 C16         0.8470    3.4590    2.9680 ca        1 PI3     -0.094500
     17 C17         0.4090    3.3360    1.6470 ca        1 PI3     -0.211000
     18 C18        -1.0050    2.1010    3.7300 ca        1 PI3     -0.094500
     19 C19        -1.4720    1.9870    2.4340 ca        1 PI3     -0.211000
     20 C20        -0.7510    2.5940    1.3730 ca        1 PI3      0.176100
     21 O21        -1.3060    2.3830    0.1450 os        1 PI3     -0.290900
     22 C22        -0.5830    2.7250   -1.0430 c3        1 PI3      0.107400
     23 C23         2.2850    2.4320    7.2360 c3        1 PI3      0.119100
     24 O24         1.6390    3.5310    7.8400 oh        1 PI3     -0.582800
     25 C25         3.7900    2.6180    7.5660 c3        1 PI3      0.096800
     26 N26         4.0400    2.9700    8.9890 n4        1 PI3     -0.761000
     27 C27         5.4940    3.2570    9.2590 c3        1 PI3      0.109800
     28 C28         5.7380    3.5980   10.7240 c3        1 PI3     -0.113400
     29 C29         7.2210    3.8920   10.9470 c3        1 PI3     -0.057700
     30 C30         7.3900    4.5840   12.2870 c3        1 PI3     -0.104100
     31 C31         8.0510    2.6280   10.9020 c3        1 PI3     -0.104100
     32 H11         0.1990    1.6380   -2.7200 hc        1 PI3      0.121200
     33 H12A       -0.5110    0.5890   -1.4250 hc        1 PI3      0.121200
     34 H41         2.0860    0.6110   -1.8210 hc        1 PI3      0.121200
     35 H42         2.0840    2.2520   -1.0280 hc        1 PI3      0.121200
     36 HN5         2.2980    2.0700    1.4230 hn        1 PI3      0.474300
     37 H6          1.6150   -0.1290    2.7250 hx        1 PI3      0.155700
     38 H9          4.7070   -0.3350    2.2870 hc        1 PI3      0.097700
     39 H101        4.4150   -2.3490    3.8550 hc        1 PI3      0.072867
     40 H102        2.7840   -1.7150    4.2960 hc        1 PI3      0.072867
     41 H103        4.2930   -0.7340    4.6420 hc        1 PI3      0.072867
     42 H111        2.3250   -2.2430    1.6670 hc        1 PI3      0.072867
     43 H112        3.4150   -1.4180    0.4680 hc        1 PI3      0.072867
     44 H113        4.0810   -2.6850    1.5680 hc        1 PI3      0.072867
     45 H12         2.8580    0.5570    5.5990 hn        1 PI3      0.474800
     46 H13         2.7620    3.2540    5.2520 hx        1 PI3      0.137700
     47 H141       -0.1100    2.4510    6.1060 hc        1 PI3      0.108700
     48 H142        0.5760    4.0820    5.6900 hc        1 PI3      0.108700
     49 H16         1.7030    4.1200    3.1860 ha        1 PI3      0.156000
     50 H17         0.9020    3.9300    0.8620 ha        1 PI3      0.185000
     51 H18        -1.5920    1.6570    4.5530 ha        1 PI3      0.156000
     52 H19        -2.4170    1.4610    2.2060 ha        1 PI3      0.185000
     53 H221        0.1010    3.5960   -0.8990 h1        1 PI3      0.102200
     54 H222       -1.4180    3.0250   -1.7480 h1        1 PI3      0.102200
     55 H23         1.9050    1.4600    7.6570 h1        1 PI3      0.077700
     56 H24         0.7000    3.3210    7.9780 ho        1 PI3      0.469000
     57 H251        4.2100    3.4580    6.9370 hx        1 PI3      0.111700
     58 H252        4.3450    1.6670    7.3330 hx        1 PI3      0.111700
     59 H26         3.4810    3.8060    9.2290 hn        1 PI3      0.468800
     60 H271        6.0850    2.3420    8.9680 hx        1 PI3      0.109200
     61 H272        5.7990    4.1220    8.6040 hx        1 PI3      0.109200
     62 H281        5.4310    2.7460   11.3880 hc        1 PI3      0.076700
     63 H282        5.1400    4.5030   11.0160 hc        1 PI3      0.076700
     64 H29         7.5760    4.5930   10.1390 hc        1 PI3      0.057700
     65 H301        8.4720    4.8060   12.4620 hc        1 PI3      0.055533
     66 H302        7.0260    3.9330   13.1180 hc        1 PI3      0.055533
     67 H303        6.8260    5.5470   12.3100 hc        1 PI3      0.055533
     68 H311        9.1250    2.8750   11.0990 hc        1 PI3      0.055533
     69 H312        7.9870    2.1360    9.9020 hc        1 PI3      0.055533
     70 H313        7.7160    1.9020   11.6830 hc        1 PI3      0.055533
     71 H52         3.4900    1.0670    0.8050 hn        1 PI3      0.474300
     72 H122        1.3780    0.7200    4.8340 hn        1 PI3      0.474800
     73 H262        3.7310    2.2060    9.6030 hn        1 PI3      0.468800
@<TRIPOS>BOND
     1    1    4 1   
     2    1   22 1   
     3    1   32 1   
     4    1   33 1   
     5    2    3 2   
     6    2    4 1   
     7    2    5 1   
     8    4   34 1   
     9    4   35 1   
    10    5    6 1   
    11    5   36 1   
    12    5   71 1   
    13    6    7 1   
    14    6    9 1   
    15    6   37 1   
    16    7    8 2   
    17    7   12 1   
    18    9   10 1   
    19    9   11 1   
    20    9   38 1   
    21   10   39 1   
    22   10   40 1   
    23   10   41 1   
    24   11   42 1   
    25   11   43 1   
    26   11   44 1   
    27   12   13 1   
    28   12   45 1   
    29   12   72 1   
    30   13   14 1   
    31   13   23 1   
    32   13   46 1   
    33   14   15 1   
    34   14   47 1   
    35   14   48 1   
    36   15   16 ar  
    37   15   18 ar  
    38   16   17 ar  
    39   16   49 1   
    40   17   20 ar  
    41   17   50 1   
    42   18   19 ar  
    43   18   51 1   
    44   19   20 ar  
    45   19   52 1   
    46   20   21 1   
    47   21   22 1   
    48   22   53 1   
    49   22   54 1   
    50   23   24 1   
    51   23   25 1   
    52   23   55 1   
    53   24   56 1   
    54   25   26 1   
    55   25   57 1   
    56   25   58 1   
    57   26   27 1   
    58   26   59 1   
    59   26   73 1   
    60   27   28 1   
    61   27   60 1   
    62   27   61 1   
    63   28   29 1   
    64   28   62 1   
    65   28   63 1   
    66   29   30 1   
    67   29   31 1   
    68   29   64 1   
    69   30   65 1   
    70   30   66 1   
    71   30   67 1   
    72   31   68 1   
    73   31   69 1   
    74   31   70 1   
@<TRIPOS>SUBSTRUCTURE
     1 PI3         1 TEMP              0 ****  ****    0 ROOT
