@<TRIPOS>MOLECULE
PI3
   70    68     1     0     0
SMALL
bcc


@<TRIPOS>ATOM
      1 C1         -1.9490   -2.7150   -4.9820 c3        1 PI3     -0.191000
      2 C2          0.0830   -2.6480   -3.3830 c1        1 PI3      0.307000
      3 O3          0.5120   -3.6080   -2.7940 o         1 PI3     -0.379000
      4 C4         -0.3580   -2.7770   -4.8840 c2        1 PI3     -0.178000
      5 N5          0.6810   -1.3130   -3.1560 n3        1 PI3     -0.372000
      6 C6          1.7410   -1.4130   -2.2060 c3        1 PI3      0.020000
      7 C7          1.4370   -0.5340   -1.0200 c2        1 PI3      0.286000
      8 O8          1.0610    0.6050   -1.1920 o         1 PI3     -0.383000
      9 C9          3.0530   -0.9630   -2.8560 c3        1 PI3     -0.116000
     10 C10         4.1750   -0.9390   -1.7960 c3        1 PI3     -0.211500
     11 C11         3.4320   -1.9450   -3.9790 c3        1 PI3     -0.211500
     12 N12         0.8560   -1.3410    0.0480 n         1 PI3     -0.359000
     13 C13        -0.1240   -0.5800    0.7470 c3        1 PI3      0.031000
     14 C14        -1.2190   -1.5110    1.2620 c3        1 PI3     -0.140000
     15 C15        -2.0530   -2.0700    0.0410 c2        1 PI3     -0.088000
     16 C16        -2.0470   -3.4350   -0.4070 c2        1 PI3     -0.115000
     17 C17        -3.0080   -3.8760   -1.3430 c1        1 PI3     -0.147000
     18 C18        -3.1570   -1.2190   -0.8080 c1        1 PI3     -0.110000
     19 C19        -3.6610   -1.7260   -1.9780 c1        1 PI3     -0.140000
     20 C20        -3.4760   -3.0240   -2.2820 c1        1 PI3      0.044000
     21 O21        -3.7680   -3.4990   -3.5930 os        1 PI3     -0.226000
     22 C22        -2.5550   -3.9050   -4.2350 c3        1 PI3     -0.028000
     23 C23         0.5260    0.1300    1.9130 c3        1 PI3      0.015000
     24 O24         0.5750   -0.7330    3.0190 oh        1 PI3     -0.336000
     25 C25        -0.2900    1.3760    2.2720 c3        1 PI3     -0.106000
     26 N26         0.3340    2.0560    3.3920 n3        1 PI3     -0.305000
     27 C27        -0.2420    3.3790    3.5360 c3        1 PI3     -0.074000
     28 C28         0.4850    4.1390    4.6770 c3        1 PI3     -0.160000
     29 C29        -0.0760    5.5790    4.7760 c3        1 PI3     -0.106000
     30 C30        -0.5980    5.8260    6.1920 c3        1 PI3     -0.209000
     31 C31         1.0280    6.5770    4.4600 c3        1 PI3     -0.209000
     32 H11        -2.2650   -1.8910   -4.5840 hc        1 PI3      0.100000
     33 H12A       -2.2170   -2.7480   -5.9150 hc        1 PI3      0.100000
     34 H41        -0.0420   -3.6310   -5.2440 ha        1 PI3      0.110500
     35 H42         0.0310   -2.0400   -5.4030 ha        1 PI3      0.110500
     36 HN5         0.7400   -0.7110   -3.8500 hn        1 PI3      0.240000
     37 H6          1.8260   -2.3390   -1.9100 h1        1 PI3      0.136000
     38 H9          2.9410   -0.0710   -3.2290 hc        1 PI3      0.108000
     39 H101        4.1620   -1.7740   -1.2890 hc        1 PI3      0.079000
     40 H102        4.0310   -0.1810   -1.1840 hc        1 PI3      0.079000
     41 H103        5.0500   -0.8390   -2.2450 hc        1 PI3      0.079000
     42 H111        4.3860   -1.8270   -4.2100 hc        1 PI3      0.079000
     43 H112        2.8810   -1.7670   -4.7700 hc        1 PI3      0.079000
     44 H113        3.2810   -2.8630   -3.6750 hc        1 PI3      0.079000
     45 H12         1.3680   -1.9390    0.4940 hn        1 PI3      0.235000
     46 H13        -0.5150    0.0770    0.1440 h1        1 PI3      0.130000
     47 H141       -0.8110   -2.2570    1.7460 hc        1 PI3      0.104500
     48 H142       -1.8090   -1.0200    1.8610 hc        1 PI3      0.104500
     49 H16        -1.4250   -4.0730   -0.0130 ha        1 PI3      0.136000
     50 H17        -3.3670   -4.7780   -1.2820 ha        1 PI3      0.148000
     51 H18        -3.4950   -0.3710   -0.4580 ha        1 PI3      0.136000
     52 H19        -4.2320   -1.1680   -2.5460 ha        1 PI3      0.146000
     53 H221       -2.7490   -4.6320   -4.8760 h1        1 PI3      0.105000
     54 H222       -1.9230   -4.2230   -3.5640 h1        1 PI3      0.105000
     55 H23         1.4270    0.3930    1.6680 h1        1 PI3      0.100000
     56 H24         1.3460   -0.6150    3.4550 ho        1 PI3      0.206000
     57 H251       -1.2020    1.1100    2.5180 h1        1 PI3      0.081500
     58 H252       -0.3220    1.9790    1.4990 h1        1 PI3      0.081500
     59 H26         0.1900    1.5760    4.1590 hn        1 PI3      0.149000
     60 H271       -0.1380    3.8720    2.6990 h1        1 PI3      0.071500
     61 H272       -1.1910    3.2990    3.7510 h1        1 PI3      0.071500
     62 H281        0.3390    3.6720    5.5250 hc        1 PI3      0.086000
     63 H282        1.4450    4.1760    4.4850 hc        1 PI3      0.086000
     64 H29        -0.8030    5.6880    4.1400 hc        1 PI3      0.085000
     65 H301        0.0970    5.5990    6.8410 hc        1 PI3      0.074333
     66 H302       -0.8420    6.7790    6.2920 hc        1 PI3      0.074333
     67 H303       -1.3880    5.2680    6.3520 hc        1 PI3      0.074333
     68 H311        1.3660    6.4160    3.5510 hc        1 PI3      0.074333
     69 H312        1.7620    6.4700    5.1060 hc        1 PI3      0.074333
     70 H313        0.6710    7.4910    4.5200 hc        1 PI3      0.074333
@<TRIPOS>BOND
     1    1    4 1   
     2    1   22 1   
     3    1   32 1   
     4    1   33 1   
     5    2    3 1   
     6    2    5 1   
     7    4   34 1   
     8    4   35 1   
     9    5    6 1   
    10    5   36 1   
    11    6    7 1   
    12    6    9 1   
    13    6   37 1   
    14    7    8 1   
    15    7   12 1   
    16    9   10 1   
    17    9   11 1   
    18    9   38 1   
    19   10   39 1   
    20   10   40 1   
    21   10   41 1   
    22   11   42 1   
    23   11   43 1   
    24   11   44 1   
    25   12   13 1   
    26   12   45 1   
    27   13   14 1   
    28   13   23 1   
    29   13   46 1   
    30   14   15 1   
    31   14   47 1   
    32   14   48 1   
    33   15   16 1   
    34   15   18 1   
    35   16   17 1   
    36   16   49 1   
    37   17   50 1   
    38   18   51 1   
    39   19   20 1   
    40   19   52 1   
    41   20   21 1   
    42   21   22 1   
    43   22   53 1   
    44   22   54 1   
    45   23   24 1   
    46   23   25 1   
    47   23   55 1   
    48   24   56 1   
    49   25   26 1   
    50   25   57 1   
    51   25   58 1   
    52   26   27 1   
    53   26   59 1   
    54   27   28 1   
    55   27   60 1   
    56   27   61 1   
    57   28   29 1   
    58   28   62 1   
    59   28   63 1   
    60   29   30 1   
    61   29   31 1   
    62   29   64 1   
    63   30   65 1   
    64   30   66 1   
    65   30   67 1   
    66   31   68 1   
    67   31   69 1   
    68   31   70 1   
@<TRIPOS>SUBSTRUCTURE
     1 PI3         1 TEMP              0 ****  ****    0 ROOT
