@<TRIPOS>MOLECULE
PI3
   73    74     1     0     0
SMALL
bcc


@<TRIPOS>ATOM
      1 C1          0.1050    1.5420   -1.5960 c3        1 PI3     -0.127400
      2 C2          1.5250    0.5630    0.2090 c         1 PI3      0.571100
      3 O3          0.8750   -0.3920    0.5770 o         1 PI3     -0.375100
      4 C4          1.5190    1.3170   -1.0890 c3        1 PI3     -0.145400
      5 N5          2.5560    1.1100    1.2450 n4        1 PI3     -0.711800
      6 C6          2.6350    0.3580    2.5370 c3        1 PI3      0.064500
      7 C7          3.0050    1.3260    3.6740 c         1 PI3      0.526100
      8 O8          3.8650    2.1900    3.5910 o         1 PI3     -0.392100
      9 C9          3.7110   -0.7670    2.5140 c3        1 PI3     -0.073700
     10 C10         3.8050   -1.4080    3.8820 c3        1 PI3     -0.124100
     11 C11         3.3610   -1.8060    1.4680 c3        1 PI3     -0.124100
     12 N12         2.2970    1.1640    4.9950 n4        1 PI3     -0.664800
     13 C13         2.0400    2.4830    5.7030 c3        1 PI3      0.088500
     14 C14         0.6010    2.9620    5.4380 c3        1 PI3     -0.052100
     15 C15         0.1720    2.8010    4.0260 ca        1 PI3     -0.227300
     16 C16         0.8340    3.4610    2.9890 ca        1 PI3     -0.094500
     17 C17         0.3930    3.3480    1.6690 ca        1 PI3     -0.211000
     18 C18        -1.0090    2.0870    3.7440 ca        1 PI3     -0.094500
     19 C19        -1.4800    1.9830    2.4470 ca        1 PI3     -0.211000
     20 C20        -0.7650    2.6030    1.3910 ca        1 PI3      0.176100
     21 O21        -1.3220    2.4020    0.1620 os        1 PI3     -0.290900
     22 C22        -0.6040    2.7580   -1.0250 c3        1 PI3      0.107400
     23 C23         2.2910    2.4040    7.2420 c3        1 PI3      0.119100
     24 O24         1.6370    3.4910    7.8590 oh        1 PI3     -0.582800
     25 C25         3.7950    2.5990    7.5690 c3        1 PI3      0.096800
     26 N26         4.0470    2.9400    8.9950 n4        1 PI3     -0.761000
     27 C27         5.4990    3.2390    9.2620 c3        1 PI3      0.109800
     28 C28         5.7450    3.5670   10.7300 c3        1 PI3     -0.113400
     29 C29         7.2260    3.8760   10.9500 c3        1 PI3     -0.057700
     30 C30         7.3930    4.5530   12.2970 c3        1 PI3     -0.104100
     31 C31         8.0710    2.6210   10.8870 c3        1 PI3     -0.104100
     32 H11        -0.5240    0.6250   -1.4260 hc        1 PI3      0.121200
     33 H12A        0.1770    1.6880   -2.7130 hc        1 PI3      0.121200
     34 H41         2.0720    0.6620   -1.8300 hc        1 PI3      0.121200
     35 H42         2.0660    2.2960   -1.0220 hc        1 PI3      0.121200
     36 HN5         2.2880    2.0930    1.4260 hn        1 PI3      0.474300
     37 H6          1.6190   -0.1200    2.7110 hx        1 PI3      0.155700
     38 H9          4.7110   -0.3070    2.2600 hc        1 PI3      0.097700
     39 H101        2.8010   -1.7140    4.2640 hc        1 PI3      0.072867
     40 H102        4.4340   -2.3370    3.8120 hc        1 PI3      0.072867
     41 H103        4.3070   -0.7280    4.6130 hc        1 PI3      0.072867
     42 H111        3.4180   -1.3810    0.4370 hc        1 PI3      0.072867
     43 H112        4.0930   -2.6540    1.5240 hc        1 PI3      0.072867
     44 H113        2.3360   -2.2210    1.6330 hc        1 PI3      0.072867
     45 H12         2.8690    0.5470    5.5870 hn        1 PI3      0.474800
     46 H13         2.7560    3.2450    5.2640 hx        1 PI3      0.137700
     47 H141        0.5670    4.0560    5.7180 hc        1 PI3      0.108700
     48 H142       -0.1080    2.4180    6.1200 hc        1 PI3      0.108700
     49 H16         1.6880    4.1230    3.2110 ha        1 PI3      0.156000
     50 H17         0.8810    3.9520    0.8870 ha        1 PI3      0.185000
     51 H18        -1.5920    1.6320    4.5640 ha        1 PI3      0.156000
     52 H19        -2.4230    1.4550    2.2170 ha        1 PI3      0.185000
     53 H221        0.0770    3.6300   -0.8750 h1        1 PI3      0.102200
     54 H222       -1.4420    3.0610   -1.7240 h1        1 PI3      0.102200
     55 H23         1.9210    1.4240    7.6560 h1        1 PI3      0.077700
     56 H24         0.7010    3.2710    7.9980 ho        1 PI3      0.469000
     57 H251        4.3590    1.6560    7.3240 hx        1 PI3      0.111700
     58 H252        4.2050    3.4500    6.9470 hx        1 PI3      0.111700
     59 H26         3.7480    2.1670    9.6020 hn        1 PI3      0.468800
     60 H271        5.7940    4.1140    8.6150 hx        1 PI3      0.109200
     61 H272        6.0980    2.3330    8.9600 hx        1 PI3      0.109200
     62 H281        5.1390    4.4620   11.0340 hc        1 PI3      0.076700
     63 H282        5.4510    2.7050   11.3860 hc        1 PI3      0.076700
     64 H29         7.5700    4.5890   10.1490 hc        1 PI3      0.057700
     65 H301        8.4730    4.7850   12.4700 hc        1 PI3      0.055533
     66 H302        7.0400    3.8890   13.1220 hc        1 PI3      0.055533
     67 H303        6.8180    5.5100   12.3340 hc        1 PI3      0.055533
     68 H311        8.0080    2.1410    9.8810 hc        1 PI3      0.055533
     69 H312        7.7470    1.8830   11.6600 hc        1 PI3      0.055533
     70 H313        9.1420    2.8780   11.0820 hc        1 PI3      0.055533
     71 H52         3.4820    1.1020    0.7950 hn        1 PI3      0.474300
     72 H122        1.3860    0.7070    4.8290 hn        1 PI3      0.474800
     73 H262        3.4810    3.7680    9.2450 hn        1 PI3      0.468800
@<TRIPOS>BOND
     1    1    4 1   
     2    1   22 1   
     3    1   32 1   
     4    1   33 1   
     5    2    3 2   
     6    2    4 1   
     7    2    5 1   
     8    4   34 1   
     9    4   35 1   
    10    5    6 1   
    11    5   36 1   
    12    5   71 1   
    13    6    7 1   
    14    6    9 1   
    15    6   37 1   
    16    7    8 2   
    17    7   12 1   
    18    9   10 1   
    19    9   11 1   
    20    9   38 1   
    21   10   39 1   
    22   10   40 1   
    23   10   41 1   
    24   11   42 1   
    25   11   43 1   
    26   11   44 1   
    27   12   13 1   
    28   12   45 1   
    29   12   72 1   
    30   13   14 1   
    31   13   23 1   
    32   13   46 1   
    33   14   15 1   
    34   14   47 1   
    35   14   48 1   
    36   15   16 ar  
    37   15   18 ar  
    38   16   17 ar  
    39   16   49 1   
    40   17   20 ar  
    41   17   50 1   
    42   18   19 ar  
    43   18   51 1   
    44   19   20 ar  
    45   19   52 1   
    46   20   21 1   
    47   21   22 1   
    48   22   53 1   
    49   22   54 1   
    50   23   24 1   
    51   23   25 1   
    52   23   55 1   
    53   24   56 1   
    54   25   26 1   
    55   25   57 1   
    56   25   58 1   
    57   26   27 1   
    58   26   59 1   
    59   26   73 1   
    60   27   28 1   
    61   27   60 1   
    62   27   61 1   
    63   28   29 1   
    64   28   62 1   
    65   28   63 1   
    66   29   30 1   
    67   29   31 1   
    68   29   64 1   
    69   30   65 1   
    70   30   66 1   
    71   30   67 1   
    72   31   68 1   
    73   31   69 1   
    74   31   70 1   
@<TRIPOS>SUBSTRUCTURE
     1 PI3         1 TEMP              0 ****  ****    0 ROOT
