@<TRIPOS>MOLECULE
PI4
   86    88     1     0     0
SMALL
bcc


@<TRIPOS>ATOM
      1 C1          0.6070    3.4330   -2.2020 c3        1 PI4     -0.127400
      2 C2          1.1070    1.4450   -0.7750 c         1 PI4      0.600100
      3 O3          0.0310    0.9090   -0.6370 o         1 PI4     -0.397100
      4 C4          1.6480    2.4040   -1.7930 c3        1 PI4     -0.138400
      5 N5          2.1710    1.0220    0.3210 n4        1 PI4     -0.739800
      6 C6          1.7240   -0.0010    1.3120 c3        1 PI4      0.079500
      7 C7          2.5230    0.1910    2.6370 c         1 PI4      0.494100
      8 O8          3.7420    0.0880    2.6460 o         1 PI4     -0.361100
      9 C9          1.9630   -1.4760    0.9040 c3        1 PI4     -0.187400
     10 C10         1.4960   -1.8480   -0.4800 c         1 PI4      0.555100
     11 O11         1.4750   -1.1000   -1.4470 o         1 PI4     -0.399100
     12 N12         1.0840   -3.2640   -0.7340 n4        1 PI4     -0.743400
     13 N13         1.7990    0.4930    3.8910 n4        1 PI4     -0.660800
     14 C14         2.5300    1.4760    4.8330 c3        1 PI4      0.150500
     15 C15         1.7990    2.8230    4.8340 c3        1 PI4     -0.064100
     16 C16         1.3210    3.2430    3.4910 ca        1 PI4     -0.223300
     17 C17         2.2190    3.5760    2.4770 ca        1 PI4     -0.100000
     18 C18         1.7600    3.9790    1.2190 ca        1 PI4     -0.222500
     19 C19        -0.0610    3.4250    3.2790 ca        1 PI4     -0.100000
     20 C20        -0.5360    3.8550    2.0540 ca        1 PI4     -0.222500
     21 C21         0.3790    4.1140    1.0010 ca        1 PI4      0.173100
     22 O22        -0.2240    4.4600   -0.1720 os        1 PI4     -0.289900
     23 C23         0.5640    4.6860   -1.3460 c3        1 PI4      0.103400
     24 C24         2.6370    0.8600    6.2640 c3        1 PI4      0.123100
     25 O25         1.3690    0.2810    6.5250 oh        1 PI4     -0.648800
     26 C26         3.0390    1.9440    7.3000 c3        1 PI4      0.158800
     27 N27         3.1300    1.4000    8.6450 n3        1 PI4     -0.763600
     28 C28         4.3610    1.7100    9.3690 c3        1 PI4      0.149500
     29 C29         4.1250    2.3160   10.7620 c3        1 PI4     -0.109400
     30 C30         3.1170    3.4450   10.6780 c3        1 PI4     -0.083400
     31 C31         1.7910    2.9570   10.1330 c3        1 PI4     -0.116400
     32 C32         1.9230    1.5990    9.4460 c3        1 PI4      0.161800
     33 C33         5.2410    0.4350    9.4010 c         1 PI4      0.538100
     34 O34         5.4100   -0.2970    8.4330 o         1 PI4     -0.454100
     35 C35         7.4770    0.3530   10.6430 c3        1 PI4      0.167200
     36 C36         7.9930    0.2220   12.0790 c3        1 PI4     -0.135100
     37 C37         7.7280    1.7700   10.1370 c3        1 PI4     -0.135100
     38 C38         8.1900   -0.6620    9.7510 c3        1 PI4     -0.135100
     39 N39         5.9600    0.0520   10.6550 n4        1 PI4     -0.684800
     40 H11        -0.4170    2.9690   -2.2400 hc        1 PI4      0.124200
     41 H12         0.8610    3.7560   -3.2550 hc        1 PI4      0.124200
     42 H41         1.9130    1.7710   -2.6940 hc        1 PI4      0.126200
     43 H42         2.5820    2.9210   -1.4420 hc        1 PI4      0.126200
     44 HN5         3.0110    0.6950   -0.1690 hn        1 PI4      0.480300
     45 H6          0.6090    0.1610    1.4690 hx        1 PI4      0.161700
     46 H91         3.0740   -1.7070    0.9420 hc        1 PI4      0.146200
     47 H92         1.4580   -2.1160    1.6830 hc        1 PI4      0.146200
     48 H121        1.8160   -3.9250   -0.4340 hn        1 PI4      0.506800
     49 H122        0.2080   -3.4870   -0.2370 hn        1 PI4      0.506800
     50 H13         1.6530   -0.3850    4.4270 hn        1 PI4      0.494300
     51 H14         3.5790    1.6000    4.4330 hx        1 PI4      0.118700
     52 H151        2.5260    3.5910    5.2290 hc        1 PI4      0.117700
     53 H152        0.9340    2.7750    5.5540 hc        1 PI4      0.117700
     54 H17         3.3030    3.5830    2.6790 ha        1 PI4      0.163500
     55 H18         2.4890    4.3330    0.4720 ha        1 PI4      0.187500
     56 H19        -0.7730    3.2650    4.1080 ha        1 PI4      0.163500
     57 H20        -1.6130    4.0440    1.8850 ha        1 PI4      0.187500
     58 H231        1.5780    5.0950   -1.1140 h1        1 PI4      0.113200
     59 H232       -0.0370    5.4820   -1.8860 h1        1 PI4      0.113200
     60 H24         3.4230    0.0480    6.2540 h1        1 PI4      0.080700
     61 H25         1.3800   -0.0960    7.4190 ho        1 PI4      0.478000
     62 H261        4.0270    2.3640    6.9570 h1        1 PI4      0.071200
     63 H262        2.2740    2.7740    7.2720 h1        1 PI4      0.071200
     64 H28         5.0080    2.4460    8.7910 h1        1 PI4      0.097700
     65 H291        5.0960    2.7190   11.1550 hc        1 PI4      0.070200
     66 H292        3.7330    1.5450   11.4770 hc        1 PI4      0.070200
     67 H301        2.9730    3.8830   11.7040 hc        1 PI4      0.082200
     68 H302        3.5250    4.2660   10.0310 hc        1 PI4      0.082200
     69 H311        1.0420    2.8510   10.9640 hc        1 PI4      0.080700
     70 H312        1.3760    3.7140    9.4180 hc        1 PI4      0.080700
     71 H321        1.9230    0.7850   10.2270 h1        1 PI4      0.069700
     72 H322        1.0260    1.4370    8.7840 h1        1 PI4      0.069700
     73 H361        7.8260   -0.8050   12.4850 hc        1 PI4      0.083256
     74 H362        9.0980    0.4100   12.0710 hc        1 PI4      0.083256
     75 H363        7.5230    0.9740   12.7580 hc        1 PI4      0.083256
     76 H371        7.3590    1.9010    9.0910 hc        1 PI4      0.083256
     77 H372        8.8340    1.9530   10.1400 hc        1 PI4      0.083256
     78 H373        7.2560    2.5350   10.8010 hc        1 PI4      0.083256
     79 H381        9.2830   -0.4120    9.7390 hc        1 PI4      0.083256
     80 H382        8.0810   -1.7010   10.1480 hc        1 PI4      0.083256
     81 H383        7.8090   -0.6250    8.7020 hc        1 PI4      0.083256
     82 H39         5.5540    0.5330   11.4650 hn        1 PI4      0.466300
     83 H52         2.4050    1.9090    0.8190 hn        1 PI4      0.480300
     84 H123        0.9180   -3.4010   -1.7530 hn        1 PI4      0.506800
     85 H132        0.8710    0.8990    3.6870 hn        1 PI4      0.494300
     86 H392        5.8650   -0.9630   10.7950 hn        1 PI4      0.466300
@<TRIPOS>BOND
     1    1    4 1   
     2    1   23 1   
     3    1   40 1   
     4    1   41 1   
     5    2    3 2   
     6    2    4 1   
     7    2    5 1   
     8    4   42 1   
     9    4   43 1   
    10    5    6 1   
    11    5   44 1   
    12    5   83 1   
    13    6    7 1   
    14    6    9 1   
    15    6   45 1   
    16    7    8 2   
    17    7   13 1   
    18    9   10 1   
    19    9   46 1   
    20    9   47 1   
    21   10   11 2   
    22   10   12 1   
    23   12   48 1   
    24   12   49 1   
    25   12   84 1   
    26   13   14 1   
    27   13   50 1   
    28   13   85 1   
    29   14   15 1   
    30   14   24 1   
    31   14   51 1   
    32   15   16 1   
    33   15   52 1   
    34   15   53 1   
    35   16   17 ar  
    36   16   19 ar  
    37   17   18 ar  
    38   17   54 1   
    39   18   21 ar  
    40   18   55 1   
    41   19   20 ar  
    42   19   56 1   
    43   20   21 ar  
    44   20   57 1   
    45   21   22 1   
    46   22   23 1   
    47   23   58 1   
    48   23   59 1   
    49   24   25 1   
    50   24   26 1   
    51   24   60 1   
    52   25   61 1   
    53   26   27 1   
    54   26   62 1   
    55   26   63 1   
    56   27   28 1   
    57   27   32 1   
    58   28   29 1   
    59   28   33 1   
    60   28   64 1   
    61   29   30 1   
    62   29   65 1   
    63   29   66 1   
    64   30   31 1   
    65   30   67 1   
    66   30   68 1   
    67   31   32 1   
    68   31   69 1   
    69   31   70 1   
    70   32   71 1   
    71   32   72 1   
    72   33   34 2   
    73   33   39 1   
    74   35   36 1   
    75   35   37 1   
    76   35   38 1   
    77   35   39 1   
    78   36   73 1   
    79   36   74 1   
    80   36   75 1   
    81   37   76 1   
    82   37   77 1   
    83   37   78 1   
    84   38   79 1   
    85   38   80 1   
    86   38   81 1   
    87   39   82 1   
    88   39   86 1   
@<TRIPOS>SUBSTRUCTURE
     1 PI4         1 TEMP              0 ****  ****    0 ROOT
