@<TRIPOS>MOLECULE
PI4
   86    88     1     0     0
SMALL
bcc


@<TRIPOS>ATOM
      1 C1         -1.2620    2.6770   -1.3850 c3        1 PI4     -0.127400
      2 C2          0.9210    1.6540   -0.7310 c         1 PI4      0.598100
      3 O3          0.6860    0.4670   -0.7080 o         1 PI4     -0.395100
      4 C4          0.2520    2.8150   -1.4040 c3        1 PI4     -0.138400
      5 N5          2.2150    2.0610    0.0890 n4        1 PI4     -0.740800
      6 C6          3.0000    0.9350    0.6770 c3        1 PI4      0.078500
      7 C7          3.7450    1.4370    1.9500 c         1 PI4      0.491100
      8 O8          4.6230    2.2850    1.8570 o         1 PI4     -0.359100
      9 C9          4.1100    0.3510   -0.2340 c3        1 PI4     -0.188400
     10 C10         3.6810    0.0090   -1.6370 c         1 PI4      0.555100
     11 O11         2.7940    0.5670   -2.2670 o         1 PI4     -0.401100
     12 N12         4.4380   -1.0550   -2.3680 n4        1 PI4     -0.743400
     13 N13         3.3930    0.8840    3.2760 n4        1 PI4     -0.659800
     14 C14         3.4560    1.9140    4.4270 c3        1 PI4      0.137500
     15 C15         2.0420    2.1970    4.9440 c3        1 PI4     -0.062100
     16 C16         1.0240    2.2770    3.8640 ca        1 PI4     -0.222300
     17 C17         1.0250    3.3330    2.9530 ca        1 PI4     -0.101500
     18 C18         0.0700    3.3990    1.9330 ca        1 PI4     -0.222000
     19 C19        -0.0210    1.3320    3.8260 ca        1 PI4     -0.101500
     20 C20        -0.9960    1.3970    2.8470 ca        1 PI4     -0.222000
     21 C21        -0.9400    2.4260    1.8730 ca        1 PI4      0.172100
     22 O22        -1.9140    2.3320    0.9230 os        1 PI4     -0.290900
     23 C23        -1.9490    3.2630   -0.1640 c3        1 PI4      0.103400
     24 C24         4.3910    1.3680    5.5550 c3        1 PI4      0.132100
     25 O25         3.8960    0.0880    5.8760 oh        1 PI4     -0.636800
     26 C26         4.5450    2.4070    6.7050 c3        1 PI4      0.164800
     27 N27         4.1440    1.9230    8.0080 n3        1 PI4     -0.771600
     28 C28         5.1780    1.9100    9.0390 c3        1 PI4      0.147500
     29 C29         4.8700    2.8080   10.2500 c3        1 PI4     -0.113400
     30 C30         4.2000    4.0980    9.8200 c3        1 PI4     -0.082400
     31 C31         2.8960    3.8310    9.0960 c3        1 PI4     -0.118400
     32 C32         2.8640    2.4280    8.4940 c3        1 PI4      0.172800
     33 C33         5.4310    0.4400    9.4680 c         1 PI4      0.532100
     34 O34         5.1940   -0.5390    8.7700 o         1 PI4     -0.444100
     35 C35         5.3530   -0.7090   11.7710 c3        1 PI4      0.171200
     36 C36         6.0620   -0.6090   13.1250 c3        1 PI4     -0.136767
     37 C37         5.3910   -2.1570   11.2860 c3        1 PI4     -0.136767
     38 C38         3.9110   -0.2320   11.9130 c3        1 PI4     -0.136767
     39 N39         6.1190    0.1970   10.7750 n4        1 PI4     -0.685800
     40 H11        -1.6540    3.2330   -2.2880 hc        1 PI4      0.124200
     41 H12        -1.5640    1.6010   -1.5060 hc        1 PI4      0.124200
     42 H41         0.5540    3.8020   -0.9600 hc        1 PI4      0.125700
     43 H42         0.6100    2.7890   -2.4790 hc        1 PI4      0.125700
     44 HN5         1.8620    2.6780    0.8530 hn        1 PI4      0.479800
     45 H6          2.2570    0.1110    0.9260 hx        1 PI4      0.161700
     46 H91         4.9600    1.0970   -0.3260 hc        1 PI4      0.147700
     47 H92         4.5170   -0.5600    0.2930 hc        1 PI4      0.147700
     48 H121        4.2690   -1.9820   -1.9480 hn        1 PI4      0.506467
     49 H122        5.4520   -0.8650   -2.3590 hn        1 PI4      0.506467
     50 H13         2.4380    0.4890    3.2650 hn        1 PI4      0.493300
     51 H14         3.9220    2.8540    4.0080 hx        1 PI4      0.117700
     52 H151        1.7610    1.4020    5.6920 hc        1 PI4      0.116200
     53 H152        2.0780    3.1800    5.4960 hc        1 PI4      0.116200
     54 H17         1.7480    4.1590    3.0650 ha        1 PI4      0.163500
     55 H18         0.0360    4.2940    1.2920 ha        1 PI4      0.187000
     56 H19        -0.0900    0.5530    4.6060 ha        1 PI4      0.163500
     57 H20        -1.8450    0.6880    2.8290 ha        1 PI4      0.187000
     58 H231       -1.5600    4.2720    0.1180 h1        1 PI4      0.112700
     59 H232       -3.0610    3.3440   -0.3710 h1        1 PI4      0.112700
     60 H24         5.4210    1.2240    5.1050 h1        1 PI4      0.059700
     61 H25         4.0240   -0.0940    6.8230 ho        1 PI4      0.488000
     62 H261        3.9610    3.3340    6.4330 h1        1 PI4      0.074200
     63 H262        5.6350    2.7050    6.6990 h1        1 PI4      0.074200
     64 H28         6.1770    2.2360    8.6070 h1        1 PI4      0.098700
     65 H291        5.8290    3.0620   10.7750 hc        1 PI4      0.072700
     66 H292        4.1940    2.2720   10.9690 hc        1 PI4      0.072700
     67 H301        4.8980    4.6780    9.1600 hc        1 PI4      0.081700
     68 H302        4.0100    4.7310   10.7290 hc        1 PI4      0.081700
     69 H311        2.0300    3.9260    9.8040 hc        1 PI4      0.078200
     70 H312        2.7490    4.6020    8.2960 hc        1 PI4      0.078200
     71 H321        2.5130    1.6950    9.2770 h1        1 PI4      0.064700
     72 H322        2.1270    2.3950    7.6440 h1        1 PI4      0.064700
     73 H361        5.5090   -1.2570   13.8550 hc        1 PI4      0.084367
     74 H362        7.1140   -0.9820   13.0680 hc        1 PI4      0.084367
     75 H363        6.0550    0.4340   13.5240 hc        1 PI4      0.084367
     76 H371        4.8770   -2.7950   12.0500 hc        1 PI4      0.084367
     77 H372        6.4400   -2.5280   11.1830 hc        1 PI4      0.084367
     78 H373        4.8560   -2.2780   10.3130 hc        1 PI4      0.084367
     79 H381        3.3600   -0.9720   12.5500 hc        1 PI4      0.084367
     80 H382        3.3950   -0.1770   10.9240 hc        1 PI4      0.084367
     81 H383        3.8580    0.7600   12.4250 hc        1 PI4      0.084367
     82 H39         6.3030    1.0880   11.2490 hn        1 PI4      0.464300
     83 H52         2.8120    2.6230   -0.5270 hn        1 PI4      0.479800
     84 H123        4.1220   -1.0900   -3.3590 hn        1 PI4      0.506467
     85 H132        4.0520    0.1200    3.5160 hn        1 PI4      0.493300
     86 H392        7.0170   -0.2720   10.5920 hn        1 PI4      0.464300
@<TRIPOS>BOND
     1    1    4 1   
     2    1   23 1   
     3    1   40 1   
     4    1   41 1   
     5    2    3 2   
     6    2    4 1   
     7    2    5 1   
     8    4   42 1   
     9    4   43 1   
    10    5    6 1   
    11    5   44 1   
    12    5   83 1   
    13    6    7 1   
    14    6    9 1   
    15    6   45 1   
    16    7    8 2   
    17    7   13 1   
    18    9   10 1   
    19    9   46 1   
    20    9   47 1   
    21   10   11 2   
    22   10   12 1   
    23   12   48 1   
    24   12   49 1   
    25   12   84 1   
    26   13   14 1   
    27   13   50 1   
    28   13   85 1   
    29   14   15 1   
    30   14   24 1   
    31   14   51 1   
    32   15   16 1   
    33   15   52 1   
    34   15   53 1   
    35   16   17 ar  
    36   16   19 ar  
    37   17   18 ar  
    38   17   54 1   
    39   18   21 ar  
    40   18   55 1   
    41   19   20 ar  
    42   19   56 1   
    43   20   21 ar  
    44   20   57 1   
    45   21   22 1   
    46   22   23 1   
    47   23   58 1   
    48   23   59 1   
    49   24   25 1   
    50   24   26 1   
    51   24   60 1   
    52   25   61 1   
    53   26   27 1   
    54   26   62 1   
    55   26   63 1   
    56   27   28 1   
    57   27   32 1   
    58   28   29 1   
    59   28   33 1   
    60   28   64 1   
    61   29   30 1   
    62   29   65 1   
    63   29   66 1   
    64   30   31 1   
    65   30   67 1   
    66   30   68 1   
    67   31   32 1   
    68   31   69 1   
    69   31   70 1   
    70   32   71 1   
    71   32   72 1   
    72   33   34 2   
    73   33   39 1   
    74   35   36 1   
    75   35   37 1   
    76   35   38 1   
    77   35   39 1   
    78   36   73 1   
    79   36   74 1   
    80   36   75 1   
    81   37   76 1   
    82   37   77 1   
    83   37   78 1   
    84   38   79 1   
    85   38   80 1   
    86   38   81 1   
    87   39   82 1   
    88   39   86 1   
@<TRIPOS>SUBSTRUCTURE
     1 PI4         1 TEMP              0 ****  ****    0 ROOT
