@<TRIPOS>MOLECULE
PI4
   86    88     1     0     0
SMALL
bcc


@<TRIPOS>ATOM
      1 C1          0.7080    3.6650   -2.1680 c3        1 PI4     -0.127400
      2 C2          1.3160    1.6420   -0.8350 c         1 PI4      0.600100
      3 O3          0.2810    1.0170   -0.7690 o         1 PI4     -0.397100
      4 C4          1.8130    2.6980   -1.7760 c3        1 PI4     -0.138400
      5 N5          2.3710    1.2400    0.2760 ny        1 PI4     -0.739800
      6 C6          1.9730    0.1290    1.1910 c3        1 PI4      0.079500
      7 C7          2.7080    0.3040    2.5550 c         1 PI4      0.494100
      8 O8          3.9310    0.2950    2.6060 o         1 PI4     -0.361100
      9 C9          2.3440   -1.2970    0.7120 c3        1 PI4     -0.187400
     10 C10         1.9550   -1.6220   -0.7080 c         1 PI4      0.555100
     11 O11         1.9080   -0.8230   -1.6330 o         1 PI4     -0.399100
     12 N12         1.6670   -3.0480   -1.0570 nz        1 PI4     -0.743400
     13 N13         1.9190    0.4750    3.7940 ny        1 PI4     -0.660800
     14 C14         2.5370    1.4560    4.8180 c3        1 PI4      0.150500
     15 C15         1.7020    2.7400    4.8640 c3        1 PI4     -0.064100
     16 C16         1.2380    3.1980    3.5300 ca        1 PI4     -0.223300
     17 C17         2.1410    3.6600    2.5710 ca        1 PI4     -0.100500
     18 C18         1.6950    4.0980    1.3210 ca        1 PI4     -0.222500
     19 C19        -0.1450    3.2850    3.2740 ca        1 PI4     -0.100500
     20 C20        -0.6120    3.7480    2.0570 ca        1 PI4     -0.222500
     21 C21         0.3160    4.1380    1.0570 ca        1 PI4      0.173100
     22 O22        -0.2720    4.5050   -0.1180 os        1 PI4     -0.289900
     23 C23         0.5360    4.8590   -1.2450 c3        1 PI4      0.103400
     24 C24         2.6420    0.7660    6.2150 c3        1 PI4      0.123100
     25 O25         1.4160    0.0780    6.3940 oh        1 PI4     -0.648800
     26 C26         2.9220    1.8160    7.3250 c3        1 PI4      0.158800
     27 N27         3.0080    1.2030    8.6400 n3        1 PI4     -0.763600
     28 C28         4.1850    1.5620    9.4280 c3        1 PI4      0.149500
     29 C29         3.8540    2.0670   10.8420 c3        1 PI4     -0.109400
     30 C30         2.7640    3.1200   10.7810 c3        1 PI4     -0.083400
     31 C31         1.5000    2.5640   10.1580 c3        1 PI4     -0.116400
     32 C32         1.7620    1.2630    9.4030 c3        1 PI4      0.161800
     33 C33         5.1600    0.3580    9.4250 c         1 PI4      0.538100
     34 O34         5.4200   -0.3010    8.4240 o         1 PI4     -0.454100
     35 C35         7.3510    0.3740   10.7470 c3        1 PI4      0.167200
     36 C36         7.8240    0.2000   12.1930 c3        1 PI4     -0.135100
     37 C37         7.5080    1.8320   10.3290 c3        1 PI4     -0.135100
     38 C38         8.1720   -0.5310    9.8300 c3        1 PI4     -0.135100
     39 N39         5.8620   -0.0410   10.6830 ny        1 PI4     -0.684800
     40 H11        -0.2740    3.1260   -2.2710 hc        1 PI4      0.124200
     41 H12         0.9710    4.0680   -3.1900 hc        1 PI4      0.124200
     42 H41         2.1590    2.1410   -2.7000 hc        1 PI4      0.126200
     43 H42         2.6900    3.2650   -1.3610 hc        1 PI4      0.126200
     44 HN5         2.5160    2.1110    0.8320 hn        1 PI4      0.480300
     45 H6          0.8440    0.1940    1.3130 hx        1 PI4      0.161700
     46 H91         1.8650   -2.0190    1.4330 hc        1 PI4      0.146200
     47 H92         3.4670   -1.4430    0.7800 hc        1 PI4      0.146200
     48 H121        1.5480   -3.1380   -2.0870 hn        1 PI4      0.506800
     49 H122        2.4390   -3.6670   -0.7660 hn        1 PI4      0.506800
     50 H13         0.9700    0.8200    3.5770 hn        1 PI4      0.494300
     51 H14         3.5860    1.6830    4.4670 hx        1 PI4      0.118700
     52 H151        0.8190    2.5830    5.5470 hc        1 PI4      0.117700
     53 H152        2.3520    3.5370    5.3290 hc        1 PI4      0.117700
     54 H17         3.2140    3.7390    2.8150 ha        1 PI4      0.163500
     55 H18         2.4180    4.5510    0.6240 ha        1 PI4      0.187500
     56 H19        -0.8710    3.0220    4.0640 ha        1 PI4      0.163500
     57 H20        -1.6930    3.8620    1.8580 ha        1 PI4      0.187500
     58 H231        1.5050    5.3320   -0.9520 h1        1 PI4      0.113200
     59 H232       -0.1080    5.6360   -1.7630 h1        1 PI4      0.113200
     60 H24         3.4900    0.0190    6.1910 h1        1 PI4      0.080700
     61 H25         1.4250   -0.3480    7.2660 ho        1 PI4      0.478000
     62 H261        2.0960    2.5850    7.3130 h1        1 PI4      0.071200
     63 H262        3.8850    2.3290    7.0450 h1        1 PI4      0.071200
     64 H28         4.7920    2.3780    8.9180 h1        1 PI4      0.097700
     65 H291        4.7760    2.5200   11.2940 hc        1 PI4      0.070200
     66 H292        3.4980    1.2290   11.4980 hc        1 PI4      0.070200
     67 H301        3.1300    4.0050   10.1970 hc        1 PI4      0.082200
     68 H302        2.5510    3.4850   11.8220 hc        1 PI4      0.082200
     69 H311        1.0530    3.3280    9.4700 hc        1 PI4      0.080700
     70 H312        0.7330    2.3540   10.9520 hc        1 PI4      0.080700
     71 H321        1.7980    0.4070   10.1370 h1        1 PI4      0.069700
     72 H322        0.9040    1.0710    8.6980 h1        1 PI4      0.069700
     73 H361        7.2740    0.8740   12.8930 hc        1 PI4      0.083256
     74 H362        8.9110    0.4710   12.2390 hc        1 PI4      0.083256
     75 H363        7.7240   -0.8590   12.5360 hc        1 PI4      0.083256
     76 H371        8.5960    2.0980   10.3860 hc        1 PI4      0.083256
     77 H372        6.9550    2.5200   11.0150 hc        1 PI4      0.083256
     78 H373        7.1670    1.9950    9.2780 hc        1 PI4      0.083256
     79 H381        8.1300   -1.5970   10.1650 hc        1 PI4      0.083256
     80 H382        9.2410   -0.2000    9.8750 hc        1 PI4      0.083256
     81 H383        7.8260   -0.4630    8.7700 hc        1 PI4      0.083256
     82 H39         5.8410   -1.0670   10.7620 hn        1 PI4      0.466300
     83 H52         3.2510    1.0080   -0.1970 hn        1 PI4      0.480300
     84 H123        0.7950   -3.3680   -0.6080 hn        1 PI4      0.506800
     85 H132        1.8250   -0.4410    4.2740 hn        1 PI4      0.494300
     86 H392        5.3920    0.3600   11.5020 hn        1 PI4      0.466300
@<TRIPOS>BOND
     1    1    4 1   
     2    1   23 1   
     3    1   40 1   
     4    1   41 1   
     5    2    3 2   
     6    2    4 1   
     7    2    5 1   
     8    4   42 1   
     9    4   43 1   
    10    5    6 1   
    11    5   44 1   
    12    5   83 1   
    13    6    7 1   
    14    6    9 1   
    15    6   45 1   
    16    7    8 2   
    17    7   13 1   
    18    9   10 1   
    19    9   46 1   
    20    9   47 1   
    21   10   11 2   
    22   10   12 1   
    23   12   48 1   
    24   12   49 1   
    25   12   84 1   
    26   13   14 1   
    27   13   50 1   
    28   13   85 1   
    29   14   15 1   
    30   14   24 1   
    31   14   51 1   
    32   15   16 1   
    33   15   52 1   
    34   15   53 1   
    35   16   17 ar  
    36   16   19 ar  
    37   17   18 ar  
    38   17   54 1   
    39   18   21 ar  
    40   18   55 1   
    41   19   20 ar  
    42   19   56 1   
    43   20   21 ar  
    44   20   57 1   
    45   21   22 1   
    46   22   23 1   
    47   23   58 1   
    48   23   59 1   
    49   24   25 1   
    50   24   26 1   
    51   24   60 1   
    52   25   61 1   
    53   26   27 1   
    54   26   62 1   
    55   26   63 1   
    56   27   28 1   
    57   27   32 1   
    58   28   29 1   
    59   28   33 1   
    60   28   64 1   
    61   29   30 1   
    62   29   65 1   
    63   29   66 1   
    64   30   31 1   
    65   30   67 1   
    66   30   68 1   
    67   31   32 1   
    68   31   69 1   
    69   31   70 1   
    70   32   71 1   
    71   32   72 1   
    72   33   34 2   
    73   33   39 1   
    74   35   36 1   
    75   35   37 1   
    76   35   38 1   
    77   35   39 1   
    78   36   73 1   
    79   36   74 1   
    80   36   75 1   
    81   37   76 1   
    82   37   77 1   
    83   37   78 1   
    84   38   79 1   
    85   38   80 1   
    86   38   81 1   
    87   39   82 1   
    88   39   86 1   
@<TRIPOS>SUBSTRUCTURE
     1 PI4         1 TEMP              0 ****  ****    0 ROOT
