@<TRIPOS>MOLECULE
PI4
   82    84     1     0     0
SMALL
bcc


@<TRIPOS>ATOM
      1 C1          0.8000    0.7430    5.7950 c3        1 PI4     -0.114400
      2 C2          1.3480    0.3670    3.3560 c         1 PI4      0.658100
      3 O3          0.8030    1.4010    2.9170 o         1 PI4     -0.619100
      4 C4          1.8220    0.2460    4.7940 c3        1 PI4     -0.141400
      5 N5          1.5550   -0.7170    2.5170 n         1 PI4     -0.558900
      6 C6          1.5190   -0.5700    1.0830 c3        1 PI4      0.047700
      7 C7          0.1310   -0.9520    0.4970 c         1 PI4      0.647100
      8 O8         -0.0230   -2.0350   -0.1060 o         1 PI4     -0.632100
      9 C9          2.5610   -1.4470    0.3700 c3        1 PI4     -0.169400
     10 C10         3.9470   -1.2200    0.9400 c         1 PI4      0.657100
     11 O11         4.2710   -1.6910    2.0530 o         1 PI4     -0.634100
     12 N12         4.8520   -0.4920    0.2140 n         1 PI4     -0.671000
     13 N13        -0.8770   -0.0260    0.6170 n         1 PI4     -0.537900
     14 C14        -2.2260   -0.3370    0.2050 c3        1 PI4      0.071700
     15 C15        -3.3030    0.2330    1.1530 c3        1 PI4     -0.047100
     16 C16        -2.9400    0.1170    2.5880 ca        1 PI4     -0.098300
     17 C17        -2.6200   -1.1280    3.1430 ca        1 PI4     -0.109500
     18 C18        -2.1300   -1.2150    4.4420 ca        1 PI4     -0.141500
     19 C19        -2.8730    1.2680    3.3830 ca        1 PI4     -0.109500
     20 C20        -2.3890    1.1980    4.6860 ca        1 PI4     -0.141500
     21 C21        -1.9720   -0.0410    5.1900 ca        1 PI4      0.087100
     22 O22        -1.4120   -0.0830    6.4630 os        1 PI4     -0.343900
     23 C23        -0.0080   -0.3770    6.4350 c3        1 PI4      0.131400
     24 C24        -2.5840    0.1710   -1.2280 c3        1 PI4      0.129100
     25 O25        -3.9500   -0.1300   -1.4620 oh        1 PI4     -0.595800
     26 C26        -1.6690   -0.4680   -2.2900 c3        1 PI4      0.141800
     27 N27        -1.8470    0.0970   -3.6240 n3        1 PI4     -0.708600
     28 C28        -0.6600   -0.0900   -4.4620 c3        1 PI4      0.127500
     29 C29        -0.8380    0.4130   -5.9050 c3        1 PI4     -0.078400
     30 C30        -2.0730   -0.1760   -6.5440 c3        1 PI4     -0.078400
     31 C31        -3.2800    0.1280   -5.6860 c3        1 PI4     -0.079400
     32 C32        -3.0720   -0.3710   -4.2610 c3        1 PI4      0.160800
     33 C33         0.5510    0.7090   -3.9120 c         1 PI4      0.655100
     34 O34         0.4830    1.9320   -3.7000 o         1 PI4     -0.583100
     35 C35         3.0140    0.6150   -3.4740 c3        1 PI4      0.119400
     36 C36         4.0970   -0.4700   -3.3240 c3        1 PI4     -0.112100
     37 C37         3.0170    1.4720   -2.1970 c3        1 PI4     -0.112100
     38 C38         3.4300    1.5250   -4.6440 c3        1 PI4     -0.112100
     39 N39         1.7140   -0.0120   -3.6970 n         1 PI4     -0.572900
     40 H11         0.1050    1.4730    5.2950 hc        1 PI4      0.072200
     41 H12         1.3350    1.3060    6.6040 hc        1 PI4      0.072200
     42 H41         2.7450    0.8850    4.8560 hc        1 PI4      0.070700
     43 H42         2.1300   -0.8040    5.0410 hc        1 PI4      0.070700
     44 HN5         2.0810   -1.4930    2.8600 hn        1 PI4      0.334500
     45 H6          1.7160    0.5170    0.8190 h1        1 PI4      0.086700
     46 H91         2.3040   -2.5330    0.5100 hc        1 PI4      0.095200
     47 H92         2.5030   -1.2310   -0.7290 hc        1 PI4      0.095200
     48 H121        5.7610   -0.3410    0.5760 hn        1 PI4      0.317000
     49 H122        4.6110   -0.0940   -0.6590 hn        1 PI4      0.317000
     50 H13        -0.7420    0.7600    1.2170 hn        1 PI4      0.344500
     51 H14        -2.3300   -1.4670    0.1900 h1        1 PI4      0.067700
     52 H151       -3.4920    1.3080    0.8870 hc        1 PI4      0.067200
     53 H152       -4.2560   -0.3270    0.9490 hc        1 PI4      0.067200
     54 H17        -2.7280   -2.0400    2.5350 ha        1 PI4      0.137000
     55 H18        -1.8480   -2.1850    4.8740 ha        1 PI4      0.144500
     56 H19        -3.1740    2.2420    2.9670 ha        1 PI4      0.137000
     57 H20        -2.3070    2.1000    5.3100 ha        1 PI4      0.144500
     58 H231        0.2410   -0.4870    7.5240 h1        1 PI4      0.053200
     59 H232        0.1540   -1.3560    5.9120 h1        1 PI4      0.053200
     60 H24        -2.5310    1.2940   -1.2780 h1        1 PI4      0.102700
     61 H25        -4.0320   -1.0910   -1.5000 ho        1 PI4      0.395000
     62 H261       -1.8420   -1.5860   -2.2780 h1        1 PI4      0.048200
     63 H262       -0.6030   -0.2920   -1.9720 h1        1 PI4      0.048200
     64 H28        -0.4020   -1.1940   -4.5150 h1        1 PI4      0.023700
     65 H291       -0.9120    1.5340   -5.8960 hc        1 PI4      0.059200
     66 H292        0.0750    0.1300   -6.4890 hc        1 PI4      0.059200
     67 H301       -2.2100    0.2550   -7.5690 hc        1 PI4      0.041700
     68 H302       -1.9550   -1.2850   -6.6580 hc        1 PI4      0.041700
     69 H311       -3.4680    1.2340   -5.6770 hc        1 PI4      0.052200
     70 H312       -4.1910   -0.3710   -6.1050 hc        1 PI4      0.052200
     71 H321       -3.9270    0.0060   -3.6290 h1        1 PI4      0.042700
     72 H322       -3.1180   -1.5010   -4.2700 h1        1 PI4      0.042700
     73 H361        5.0710    0.0210   -3.0870 hc        1 PI4      0.045478
     74 H362        3.8440   -1.1820   -2.5020 hc        1 PI4      0.045478
     75 H363        4.2160   -1.0470   -4.2720 hc        1 PI4      0.045478
     76 H371        2.6960    0.8740   -1.3120 hc        1 PI4      0.045478
     77 H372        4.0480    1.8620   -2.0190 hc        1 PI4      0.045478
     78 H373        2.3170    2.3370   -2.3130 hc        1 PI4      0.045478
     79 H381        3.5100    0.9410   -5.5910 hc        1 PI4      0.045478
     80 H382        2.6810    2.3420   -4.7810 hc        1 PI4      0.045478
     81 H383        4.4230    1.9810   -4.4200 hc        1 PI4      0.045478
     82 H39         1.7420   -0.9570   -4.0000 hn        1 PI4      0.304500
@<TRIPOS>BOND
     1    1    4 1   
     2    1   23 1   
     3    1   40 1   
     4    1   41 1   
     5    2    3 2   
     6    2    4 1   
     7    2    5 1   
     8    4   42 1   
     9    4   43 1   
    10    5    6 1   
    11    5   44 1   
    12    6    7 1   
    13    6    9 1   
    14    6   45 1   
    15    7    8 2   
    16    7   13 1   
    17    9   10 1   
    18    9   46 1   
    19    9   47 1   
    20   10   11 2   
    21   10   12 1   
    22   12   48 1   
    23   12   49 1   
    24   13   14 1   
    25   13   50 1   
    26   14   15 1   
    27   14   24 1   
    28   14   51 1   
    29   15   16 1   
    30   15   52 1   
    31   15   53 1   
    32   16   17 ar  
    33   16   19 ar  
    34   17   18 ar  
    35   17   54 1   
    36   18   21 ar  
    37   18   55 1   
    38   19   20 ar  
    39   19   56 1   
    40   20   21 ar  
    41   20   57 1   
    42   21   22 1   
    43   22   23 1   
    44   23   58 1   
    45   23   59 1   
    46   24   25 1   
    47   24   26 1   
    48   24   60 1   
    49   25   61 1   
    50   26   27 1   
    51   26   62 1   
    52   26   63 1   
    53   27   28 1   
    54   27   32 1   
    55   28   29 1   
    56   28   33 1   
    57   28   64 1   
    58   29   30 1   
    59   29   65 1   
    60   29   66 1   
    61   30   31 1   
    62   30   67 1   
    63   30   68 1   
    64   31   32 1   
    65   31   69 1   
    66   31   70 1   
    67   32   71 1   
    68   32   72 1   
    69   33   34 2   
    70   33   39 1   
    71   35   36 1   
    72   35   37 1   
    73   35   38 1   
    74   35   39 1   
    75   36   73 1   
    76   36   74 1   
    77   36   75 1   
    78   37   76 1   
    79   37   77 1   
    80   37   78 1   
    81   38   79 1   
    82   38   80 1   
    83   38   81 1   
    84   39   82 1   
@<TRIPOS>SUBSTRUCTURE
     1 PI4         1 TEMP              0 ****  ****    0 ROOT
