@<TRIPOS>MOLECULE
PI6
   91    88     1     0     0
SMALL
bcc


@<TRIPOS>ATOM
      1 O1         -1.5730    2.9300    4.6780 o         1 PI6     -0.403000
      2 C          -0.4110    2.5560    4.6260 c1        1 PI6      0.397000
      3 O2          0.0540    1.5160    5.5140 o         1 PI6     -0.287000
      4 CT         -0.9670    1.0050    6.4090 c3        1 PI6      0.115000
      5 C1         -2.2210    0.6750    5.6160 c3        1 PI6     -0.232000
      6 C2         -0.4530   -0.2610    7.1000 c3        1 PI6     -0.232000
      7 C3         -1.2950    2.0560    7.4580 c3        1 PI6     -0.232000
      8 N           0.5200    3.1750    3.6670 n3        1 PI6     -0.335000
      9 CA          0.1860    3.2230    2.2710 c3        1 PI6      0.003000
     10 C4          0.8050    2.0400    1.5630 c3        1 PI6     -0.023000
     11 OXT         2.1650    2.2890    1.3380 oh        1 PI6     -0.329000
     12 CB          0.7200    4.5120    1.6650 c3        1 PI6     -0.129000
     13 CG         -0.1680    5.6860    2.0940 c2        1 PI6     -0.072000
     14 CD1         0.3610    6.6970    2.8960 c2        1 PI6     -0.117000
     15 CD2        -1.4380    5.8260    1.5520 c1        1 PI6     -0.123000
     16 CE1        -0.3800    7.8390    3.1500 c1        1 PI6     -0.128000
     17 CE2        -2.1780    6.9680    1.8060 c1        1 PI6     -0.125000
     18 CZ         -1.6490    7.9770    2.6060 c1        1 PI6     -0.125000
     19 CM          0.1000    1.8180    0.2280 c3        1 PI6     -0.100000
     20 N1          0.6850    0.6470   -0.4470 n3        1 PI6     -0.311000
     21 CA1        -0.2370    0.1390   -1.4030 c3        1 PI6     -0.038000
     22 C5          0.0730   -1.3210   -1.6830 c2        1 PI6      0.317000
     23 O           0.6550   -1.6310   -2.6990 o         1 PI6     -0.389000
     24 CB1        -0.1250    0.9450   -2.7000 c3        1 PI6     -0.146000
     25 CG1         0.7950    0.1580   -3.7510 c2        1 PI6     -0.101000
     26 CD11        0.2180   -0.3870   -4.9010 c2        1 PI6     -0.108000
     27 CD21        2.3710    0.2250   -3.6160 c1        1 PI6     -0.121000
     28 CE11        0.9550   -1.2400   -5.7090 c1        1 PI6     -0.154000
     29 CE21        3.0120   -0.7590   -4.6060 c1        1 PI6     -0.149000
     30 CZ1         2.2190   -1.6220   -5.3320 c1        1 PI6      0.047000
     31 N2         -0.4440   -2.3870   -0.7560 n         1 PI6     -0.366000
     32 CA2        -0.1290   -3.7060   -1.2860 c3        1 PI6      0.025000
     33 C6          1.2390   -3.6830   -1.9340 c2        1 PI6      0.276000
     34 O3          1.4720   -2.9010   -2.8240 o         1 PI6     -0.378000
     35 CB2        -1.1560   -4.0930   -2.3020 c3        1 PI6     -0.102000
     36 CG11       -2.5090   -4.2320   -1.6290 c3        1 PI6     -0.147000
     37 CG2        -0.7670   -5.4210   -2.9340 c3        1 PI6     -0.221000
     38 CD12       -3.5920   -4.3740   -2.6920 c3        1 PI6     -0.209000
     39 OH          2.6240   -2.7330   -6.1090 os        1 PI6     -0.228000
     40 N3          1.7800   -5.0490   -1.9940 n         1 PI6     -0.376000
     41 CA3         2.5810   -5.2280   -3.2410 c3        1 PI6     -0.026000
     42 C7          1.9830   -4.3500   -4.3800 c3        1 PI6     -0.209000
     43 C8          3.1400   -3.7680   -5.2430 c3        1 PI6     -0.022000
     44 H11        -2.7630    1.4790    5.5150 hc        1 PI6      0.091778
     45 H12        -1.9710    0.3420    4.7410 hc        1 PI6      0.091778
     46 H13        -2.7360   -0.0080    6.0900 hc        1 PI6      0.091778
     47 H21        -0.1900   -0.9180    6.4230 hc        1 PI6      0.091778
     48 H22        -1.1650   -0.6380    7.6630 hc        1 PI6      0.091778
     49 H23         0.3180   -0.0380    7.6560 hc        1 PI6      0.091778
     50 H31        -1.7440    1.6300    8.2180 hc        1 PI6      0.091778
     51 H32        -0.4690    2.4800    7.7640 hc        1 PI6      0.091778
     52 H33        -1.8860    2.7350    7.0680 hc        1 PI6      0.091778
     53 H           1.3260    3.4990    3.9560 hn        1 PI6      0.236000
     54 HA         -0.7900    3.1920    2.1660 h1        1 PI6      0.142000
     55 HC          0.7090    1.2440    2.1170 h1        1 PI6      0.139000
     56 HOR         2.3070    3.1620    1.3300 ho        1 PI6      0.199000
     57 HB2         0.7150    4.4390    0.6840 hc        1 PI6      0.091000
     58 HB3         1.6360    4.6640    1.9760 hc        1 PI6      0.091000
     59 HD1         1.2560    6.6000    3.2790 ha        1 PI6      0.130000
     60 HD2        -1.8070    5.1220    0.9930 ha        1 PI6      0.129000
     61 HE1        -0.0070    8.5500    3.7140 ha        1 PI6      0.132000
     62 HE2        -3.0720    7.0660    1.4230 ha        1 PI6      0.133500
     63 HZ         -2.1760    8.7900    2.7870 ha        1 PI6      0.133500
     64 HM2        -0.8560    1.6620    0.3840 h1        1 PI6      0.087000
     65 HM3         0.2140    2.6130   -0.3390 h1        1 PI6      0.087000
     66 H1          1.4490    0.8910   -0.8650 hn        1 PI6      0.175000
     67 HA1        -1.1510    0.2160   -1.0490 h1        1 PI6      0.126000
     68 HB21        0.2730    1.8130   -2.5080 hc        1 PI6      0.104500
     69 HB31       -1.0130    1.0720   -3.0790 hc        1 PI6      0.104500
     70 HD11       -0.6770   -0.1130   -5.1730 ha        1 PI6      0.158000
     71 HD21        2.8610    0.8360   -3.0310 ha        1 PI6      0.143000
     72 HE11        0.5880   -1.5430   -6.5560 ha        1 PI6      0.149000
     73 HE21        3.9800   -0.7820   -4.7120 ha        1 PI6      0.146000
     74 H2         -0.4480   -2.2460    0.1500 hn        1 PI6      0.246000
     75 HA2        -0.1330   -4.3590   -0.5560 h1        1 PI6      0.120000
     76 HB         -1.2060   -3.4110   -2.9880 hc        1 PI6      0.118000
     77 HG12       -2.6860   -3.4360   -1.0860 hc        1 PI6      0.082000
     78 HG13       -2.5080   -5.0250   -1.0560 hc        1 PI6      0.082000
     79 HG21       -0.3520   -5.9970   -2.2570 hc        1 PI6      0.083333
     80 HG22       -1.5670   -5.8610   -3.2900 hc        1 PI6      0.083333
     81 HG23       -0.1310   -5.2620   -3.6620 hc        1 PI6      0.083333
     82 HD12       -3.2100   -4.7840   -3.4920 hc        1 PI6      0.075000
     83 HD13       -3.9480   -3.4880   -2.9170 hc        1 PI6      0.075000
     84 HD14       -4.3140   -4.9390   -2.3490 hc        1 PI6      0.075000
     85 H3          2.0310   -5.4760   -1.2240 hn        1 PI6      0.238000
     86 HA21        2.5580   -6.1730   -3.5110 h1        1 PI6      0.093500
     87 HA3         3.5100   -4.9580   -3.0740 h1        1 PI6      0.093500
     88 H14         3.5350   -4.4850   -5.7880 h1        1 PI6      0.097000
     89 H24         3.8250   -3.3900   -4.6560 h1        1 PI6      0.097000
     90 H89         1.4690   -3.6210   -3.9930 hc        1 PI6      0.104500
     91 H99         1.3900   -4.9070   -4.9530 hc        1 PI6      0.104500
@<TRIPOS>BOND
     1    1    2 1   
     2    2    8 1   
     3    3    4 1   
     4    4    5 1   
     5    4    6 1   
     6    4    7 1   
     7    5   44 1   
     8    5   45 1   
     9    5   46 1   
    10    6   47 1   
    11    6   48 1   
    12    6   49 1   
    13    7   50 1   
    14    7   51 1   
    15    7   52 1   
    16    8    9 1   
    17    8   53 1   
    18    9   10 1   
    19    9   12 1   
    20    9   54 1   
    21   10   11 1   
    22   10   19 1   
    23   10   55 1   
    24   11   56 1   
    25   12   13 1   
    26   12   57 1   
    27   12   58 1   
    28   13   14 1   
    29   13   15 1   
    30   14   16 1   
    31   14   59 1   
    32   15   60 1   
    33   16   61 1   
    34   17   18 1   
    35   17   62 1   
    36   18   63 1   
    37   19   20 1   
    38   19   64 1   
    39   19   65 1   
    40   20   21 1   
    41   20   66 1   
    42   21   22 1   
    43   21   24 1   
    44   21   67 1   
    45   22   23 1   
    46   22   31 1   
    47   24   25 1   
    48   24   68 1   
    49   24   69 1   
    50   25   26 1   
    51   25   27 1   
    52   26   28 1   
    53   26   70 1   
    54   27   71 1   
    55   28   72 1   
    56   29   30 1   
    57   29   73 1   
    58   30   39 1   
    59   31   32 1   
    60   31   74 1   
    61   32   33 1   
    62   32   35 1   
    63   32   75 1   
    64   33   34 1   
    65   33   40 1   
    66   35   36 1   
    67   35   37 1   
    68   35   76 1   
    69   36   38 1   
    70   36   77 1   
    71   36   78 1   
    72   37   79 1   
    73   37   80 1   
    74   37   81 1   
    75   38   82 1   
    76   38   83 1   
    77   38   84 1   
    78   39   43 1   
    79   40   41 1   
    80   40   85 1   
    81   41   42 1   
    82   41   86 1   
    83   41   87 1   
    84   42   43 1   
    85   42   90 1   
    86   42   91 1   
    87   43   88 1   
    88   43   89 1   
@<TRIPOS>SUBSTRUCTURE
     1 PI6         1 TEMP              0 ****  ****    0 ROOT
