@<TRIPOS>MOLECULE
PI6
   91    93     1     0     0
SMALL
bcc


@<TRIPOS>ATOM
      1 O1          3.6380   -1.6480    1.4740 o         1 PI6     -0.599000
      2 C           3.7610   -1.2860    0.2910 c         1 PI6      0.745100
      3 O2          4.1260   -2.1690   -0.6950 os        1 PI6     -0.447900
      4 CT          4.5800   -3.4980   -0.3220 c3        1 PI6      0.186800
      5 C1          3.4610   -4.2770    0.3500 c3        1 PI6     -0.114433
      6 C2          4.9290   -4.1220   -1.6720 c3        1 PI6     -0.114433
      7 C3          5.8130   -3.4140    0.5600 c3        1 PI6     -0.114433
      8 N           3.5900   -0.0060   -0.2080 n         1 PI6     -0.530900
      9 CA          2.9660    1.0080    0.6110 c3        1 PI6      0.085700
     10 C4          1.4150    0.9910    0.5010 c3        1 PI6      0.055100
     11 OXT         0.9530    1.5860   -0.6970 oh        1 PI6     -0.608800
     12 CB          3.5170    2.4060    0.2710 c3        1 PI6     -0.045100
     13 CG          4.9340    2.5690    0.6910 ca        1 PI6     -0.080300
     14 CD1         5.9530    2.6510   -0.2650 ca        1 PI6     -0.120500
     15 CD2         5.2590    2.6600    2.0500 ca        1 PI6     -0.120500
     16 CE1         7.2780    2.8220    0.1340 ca        1 PI6     -0.125500
     17 CE2         6.5840    2.8300    2.4460 ca        1 PI6     -0.125500
     18 CZ          7.5960    2.9120    1.4890 ca        1 PI6     -0.126000
     19 CM          0.7880    1.6390    1.7520 c3        1 PI6      0.144800
     20 N1         -0.5920    2.0310    1.6610 n3        1 PI6     -0.847200
     21 CA1        -1.6120    1.0910    2.0600 c3        1 PI6      0.134500
     22 C5         -2.0720   -0.0010    1.0540 c         1 PI6      0.636100
     23 O          -2.7790   -0.9420    1.4790 o         1 PI6     -0.629100
     24 CB1        -2.8580    1.8350    2.5970 c3        1 PI6     -0.024100
     25 CG1        -3.9550    1.9960    1.6090 ca        1 PI6     -0.099300
     26 CD11       -5.2460    1.5760    1.9570 ca        1 PI6     -0.112500
     27 CD21       -3.7250    2.5190    0.3300 ca        1 PI6     -0.112500
     28 CE11       -6.2600    1.5430    1.0060 ca        1 PI6     -0.141500
     29 CE21       -4.7220    2.4740   -0.6400 ca        1 PI6     -0.141500
     30 CZ1        -5.9680    1.9260   -0.3110 ca        1 PI6      0.100100
     31 N2         -1.6830    0.0680   -0.2640 n         1 PI6     -0.561900
     32 CA2        -1.8850   -0.9470   -1.2670 c3        1 PI6      0.052700
     33 C6         -3.3140   -0.9460   -1.8690 c         1 PI6      0.645100
     34 O3         -3.4550   -0.6390   -3.0730 o         1 PI6     -0.631100
     35 CB2        -1.5010   -2.3890   -0.8580 c3        1 PI6     -0.081700
     36 CG11       -0.0200   -2.4800   -0.5010 c3        1 PI6     -0.078400
     37 CG2        -1.8050   -3.3370   -2.0030 c3        1 PI6     -0.096100
     38 CD12        0.2190   -2.5650    0.9850 c3        1 PI6     -0.106100
     39 OH         -6.9400    1.7560   -1.2910 os        1 PI6     -0.349900
     40 N3         -4.3730   -1.3330   -1.0890 n         1 PI6     -0.561900
     41 CA3        -5.6520   -1.6620   -1.6580 c3        1 PI6      0.094000
     42 C7         -6.7960   -0.6880   -1.3810 c3        1 PI6     -0.133400
     43 C8         -6.6600    0.6250   -2.1340 c3        1 PI6      0.128400
     44 H11         2.5090   -4.1470   -0.2190 hc        1 PI6      0.052589
     45 H12         3.7270   -5.3610    0.3760 hc        1 PI6      0.052589
     46 H13         3.3040   -3.9140    1.3950 hc        1 PI6      0.052589
     47 H21         5.7000   -3.5070   -2.1930 hc        1 PI6      0.052589
     48 H22         5.3280   -5.1500   -1.5050 hc        1 PI6      0.052589
     49 H23         4.0200   -4.1790   -2.3170 hc        1 PI6      0.052589
     50 H31         5.5570   -2.9540    1.5450 hc        1 PI6      0.052589
     51 H32         6.2150   -4.4410    0.7330 hc        1 PI6      0.052589
     52 H33         6.5980   -2.7940    0.0650 hc        1 PI6      0.052589
     53 H           3.5440    0.1060   -1.1950 hn        1 PI6      0.324500
     54 HA          3.2230    0.7730    1.6900 h1        1 PI6      0.098700
     55 HC          1.0540   -0.0800    0.4230 h1        1 PI6      0.098700
     56 HOR         1.2000    2.5200   -0.6800 ho        1 PI6      0.405000
     57 HB2         3.4150    2.6010   -0.8310 hc        1 PI6      0.054700
     58 HB3         2.8880    3.1680    0.8060 hc        1 PI6      0.054700
     59 HD1         5.7090    2.5780   -1.3350 ha        1 PI6      0.129500
     60 HD2         4.4630    2.5950    2.8070 ha        1 PI6      0.129500
     61 HE1         8.0730    2.8850   -0.6230 ha        1 PI6      0.133500
     62 HE2         6.8310    2.8980    3.5160 ha        1 PI6      0.133500
     63 HZ          8.6410    3.0450    1.8020 ha        1 PI6      0.133000
     64 HM2         0.9320    0.9270    2.6130 h1        1 PI6      0.064200
     65 HM3         1.3570    2.5840    1.9940 h1        1 PI6      0.064200
     66 H1         -0.7980    2.4890    0.7960 hn        1 PI6      0.379800
     67 HA1        -1.1940    0.4890    2.9280 h1        1 PI6      0.085700
     68 HB21       -3.2330    1.2350    3.4710 hc        1 PI6      0.069200
     69 HB31       -2.5580    2.8440    2.9920 hc        1 PI6      0.069200
     70 HD11       -5.4510    1.2300    2.9820 ha        1 PI6      0.129500
     71 HD21       -2.7440    2.9430    0.0730 ha        1 PI6      0.129500
     72 HE11       -7.2700    1.1960    1.2660 ha        1 PI6      0.147000
     73 HE21       -4.5330    2.8300   -1.6630 ha        1 PI6      0.147000
     74 H2         -1.1270    0.8350   -0.5690 hn        1 PI6      0.328500
     75 HA2        -1.2160   -0.6620   -2.1420 h1        1 PI6      0.086700
     76 HB         -2.1180   -2.6860    0.0380 hc        1 PI6      0.084700
     77 HG12        0.4260   -3.3920   -0.9840 hc        1 PI6      0.039200
     78 HG13        0.5310   -1.6000   -0.9270 hc        1 PI6      0.039200
     79 HG21       -1.2310   -3.0470   -2.9160 hc        1 PI6      0.041367
     80 HG22       -1.5180   -4.3780   -1.7170 hc        1 PI6      0.041367
     81 HG23       -2.8920   -3.3360   -2.2570 hc        1 PI6      0.041367
     82 HD12       -0.2730   -1.7170    1.5210 hc        1 PI6      0.040700
     83 HD13       -0.1980   -3.5160    1.3960 hc        1 PI6      0.040700
     84 HD14        1.3180   -2.5370    1.2020 hc        1 PI6      0.040700
     85 H3         -4.2450   -1.4390   -0.1060 hn        1 PI6      0.343500
     86 HA21       -5.5310   -1.7610   -2.7770 h1        1 PI6      0.054700
     87 HA3        -5.9570   -2.6690   -1.2470 h1        1 PI6      0.054700
     88 H14        -7.4400    0.7200   -2.9360 h1        1 PI6      0.065200
     89 H24        -5.6370    0.7340   -2.5840 h1        1 PI6      0.065200
     90 H89        -7.7470   -1.1950   -1.6920 hc        1 PI6      0.057200
     91 H99        -6.8750   -0.4900   -0.2800 hc        1 PI6      0.057200
@<TRIPOS>BOND
     1    1    2 2   
     2    2    3 1   
     3    2    8 1   
     4    3    4 1   
     5    4    5 1   
     6    4    6 1   
     7    4    7 1   
     8    5   44 1   
     9    5   45 1   
    10    5   46 1   
    11    6   47 1   
    12    6   48 1   
    13    6   49 1   
    14    7   50 1   
    15    7   51 1   
    16    7   52 1   
    17    8    9 1   
    18    8   53 1   
    19    9   10 1   
    20    9   12 1   
    21    9   54 1   
    22   10   11 1   
    23   10   19 1   
    24   10   55 1   
    25   11   56 1   
    26   12   13 1   
    27   12   57 1   
    28   12   58 1   
    29   13   14 ar  
    30   13   15 ar  
    31   14   16 ar  
    32   14   59 1   
    33   15   17 ar  
    34   15   60 1   
    35   16   18 ar  
    36   16   61 1   
    37   17   18 ar  
    38   17   62 1   
    39   18   63 1   
    40   19   20 1   
    41   19   64 1   
    42   19   65 1   
    43   20   21 1   
    44   20   66 1   
    45   21   22 1   
    46   21   24 1   
    47   21   67 1   
    48   22   23 2   
    49   22   31 1   
    50   24   25 1   
    51   24   68 1   
    52   24   69 1   
    53   25   26 ar  
    54   25   27 ar  
    55   26   28 ar  
    56   26   70 1   
    57   27   29 ar  
    58   27   71 1   
    59   28   30 ar  
    60   28   72 1   
    61   29   30 ar  
    62   29   73 1   
    63   30   39 1   
    64   31   32 1   
    65   31   74 1   
    66   32   33 1   
    67   32   35 1   
    68   32   75 1   
    69   33   34 2   
    70   33   40 1   
    71   35   36 1   
    72   35   37 1   
    73   35   76 1   
    74   36   38 1   
    75   36   77 1   
    76   36   78 1   
    77   37   79 1   
    78   37   80 1   
    79   37   81 1   
    80   38   82 1   
    81   38   83 1   
    82   38   84 1   
    83   39   43 1   
    84   40   41 1   
    85   40   85 1   
    86   41   42 1   
    87   41   86 1   
    88   41   87 1   
    89   42   43 1   
    90   42   90 1   
    91   42   91 1   
    92   43   88 1   
    93   43   89 1   
@<TRIPOS>SUBSTRUCTURE
     1 PI6         1 TEMP              0 ****  ****    0 ROOT
