@<TRIPOS>MOLECULE
PI9
   91    93     1     0     0
SMALL
bcc


@<TRIPOS>ATOM
      1 C4         -3.3400    0.6990    6.3720 c3        1 PI9     -0.075400
      2 C5         -3.5790    0.5690    4.8810 c3        1 PI9     -0.146400
      3 C6         -2.6470   -0.4300    4.2150 c         1 PI9      0.660100
      4 O1         -1.9500   -1.2380    4.8590 o         1 PI9     -0.610100
      5 C3         -2.3310    1.7700    6.7370 c3        1 PI9     -0.073400
      6 C2         -0.9100    1.2590    6.6590 c3        1 PI9     -0.119400
      7 N1         -2.6540   -0.4470    2.8290 n         1 PI9     -0.561900
      8 C7         -1.7460   -1.2530    2.0600 c3        1 PI9      0.041700
      9 C8         -2.4390   -2.2040    1.0540 c3        1 PI9     -0.067700
     10 C10        -3.0400   -3.3880    1.7810 c3        1 PI9     -0.096600
     11 C9         -3.4850   -1.5030    0.2150 c3        1 PI9     -0.096600
     12 C11        -0.7770   -0.3520    1.2460 c         1 PI9      0.632100
     13 O2         -1.1920    0.6610    0.6460 o         1 PI9     -0.625100
     14 N2          0.5380   -0.7600    1.1590 n         1 PI9     -0.546900
     15 C12         1.5600    0.0940    0.5930 c3        1 PI9      0.061700
     16 C13         2.8160    0.1810    1.4830 c3        1 PI9     -0.052100
     17 C14         2.4890    0.6580    2.8520 ca        1 PI9     -0.104300
     18 C15         2.0520    1.9740    3.0520 ca        1 PI9     -0.112000
     19 C16         1.6810    2.4120    4.3200 ca        1 PI9     -0.146500
     20 C19         2.5950   -0.2060    3.9480 ca        1 PI9     -0.112000
     21 C18         2.2250    0.2150    5.2230 ca        1 PI9     -0.146500
     22 C17         1.7500    1.5220    5.4000 ca        1 PI9      0.102100
     23 O3          1.4370    1.9210    6.6930 os        1 PI9     -0.341900
     24 C1          0.0900    2.3820    6.8560 c3        1 PI9      0.133400
     25 C20         2.0090   -0.3650   -0.8270 c3        1 PI9      0.119100
     26 O4          3.0080    0.5130   -1.3000 oh        1 PI9     -0.602800
     27 C21         0.7770   -0.4470   -1.7570 c3        1 PI9      0.194800
     28 N3          1.0480   -0.4870   -3.1670 n3        1 PI9     -0.800500
     29 C22         1.2450   -1.7780   -3.7720 c3        1 PI9      0.227800
     30 C23         2.4390   -2.5760   -3.2450 c3        1 PI9     -0.093400
     31 C24         2.7710   -3.7420   -4.1640 c3        1 PI9     -0.067700
     32 C26         4.0930   -4.3580   -3.7520 c3        1 PI9     -0.091100
     33 C25         1.6790   -4.7920   -4.1510 c3        1 PI9     -0.091100
     34 S           1.0880    0.8920   -4.0440 sy        1 PI9      1.520200
     35 O6          1.4880    1.9580   -3.1960 o         1 PI9     -0.662800
     36 O5          1.8460    0.7010   -5.2220 o         1 PI9     -0.662800
     37 C27        -0.5110    1.1320   -4.4750 ca        1 PI9     -0.452500
     38 C32        -1.4050    1.7910   -3.6180 ca        1 PI9      0.033500
     39 C28        -0.9900    0.7130   -5.7250 ca        1 PI9      0.033500
     40 C31        -2.7210    2.0230   -3.9770 ca        1 PI9     -0.236000
     41 C29        -2.2990    0.9300   -6.1140 ca        1 PI9     -0.236000
     42 C30        -3.2050    1.5870   -5.2390 ca        1 PI9      0.233600
     43 N4         -4.5320    1.7480   -5.5820 nh        1 PI9     -0.848200
     44 H41        -3.0070   -0.2900    6.7870 hc        1 PI9      0.059700
     45 H42        -4.3210    0.9560    6.8550 hc        1 PI9      0.059700
     46 H51        -4.6290    0.2060    4.7070 hc        1 PI9      0.065200
     47 H52        -3.4790    1.5710    4.3860 hc        1 PI9      0.065200
     48 H31        -2.5370    2.1190    7.7840 hc        1 PI9      0.038200
     49 H32        -2.4550    2.6600    6.0650 hc        1 PI9      0.038200
     50 H21        -0.7350    0.7700    5.6630 hc        1 PI9      0.063200
     51 H22        -0.7440    0.4690    7.4380 hc        1 PI9      0.063200
     52 HN11       -3.1360    0.2640    2.3290 hn        1 PI9      0.323500
     53 H71        -1.1580   -1.8950    2.7880 h1        1 PI9      0.098700
     54 H81        -1.6270   -2.5810    0.3680 hc        1 PI9      0.053700
     55 H101       -3.5120   -4.0840    1.0460 hc        1 PI9      0.042200
     56 H102       -2.2530   -3.9450    2.3440 hc        1 PI9      0.042200
     57 H103       -3.8220   -3.0540    2.5040 hc        1 PI9      0.042200
     58 H91        -4.4020   -1.2900    0.8150 hc        1 PI9      0.042200
     59 H92        -3.0840   -0.5380   -0.1830 hc        1 PI9      0.042200
     60 H93        -3.7780   -2.1520   -0.6450 hc        1 PI9      0.042200
     61 HN21        0.8540   -1.4690    1.7800 hn        1 PI9      0.312500
     62 H121        1.1320    1.1390    0.4870 h1        1 PI9      0.083700
     63 H131        3.3200   -0.8210    1.5240 hc        1 PI9      0.069200
     64 H132        3.5290    0.8920    0.9830 hc        1 PI9      0.069200
     65 H151        1.9950    2.6650    2.1970 ha        1 PI9      0.134500
     66 H161        1.3350    3.4440    4.4740 ha        1 PI9      0.145000
     67 H191        2.9660   -1.2320    3.8040 ha        1 PI9      0.134500
     68 H181        2.2970   -0.4600    6.0870 ha        1 PI9      0.145000
     69 H11         0.0820    2.7580    7.9150 h1        1 PI9      0.050200
     70 H12        -0.1120    3.2300    6.1520 h1        1 PI9      0.050200
     71 H20         2.5250   -1.3640   -0.7730 h1        1 PI9      0.074700
     72 HO4         2.5980    1.3740   -1.4770 ho        1 PI9      0.433000
     73 H211        0.1220    0.4520   -1.5470 h1        1 PI9      0.062200
     74 H212        0.1950   -1.3680   -1.4660 h1        1 PI9      0.062200
     75 H221        1.3830   -1.6210   -4.8830 h1        1 PI9      0.048700
     76 H222        0.3120   -2.3980   -3.6240 h1        1 PI9      0.048700
     77 H231        2.2060   -2.9640   -2.2180 hc        1 PI9      0.051700
     78 H232        3.3370   -1.9090   -3.1570 hc        1 PI9      0.051700
     79 H241        2.8760   -3.3500   -5.2150 hc        1 PI9      0.053700
     80 H261        4.3520   -5.2060   -4.4300 hc        1 PI9      0.034200
     81 H262        4.9100   -3.5980   -3.8050 hc        1 PI9      0.034200
     82 H263        4.0370   -4.7450   -2.7070 hc        1 PI9      0.034200
     83 H251        1.5070   -5.1680   -3.1140 hc        1 PI9      0.034200
     84 H252        0.7220   -4.3680   -4.5380 hc        1 PI9      0.034200
     85 H253        1.9680   -5.6570   -4.7960 hc        1 PI9      0.034200
     86 H321       -1.0430    2.1480   -2.6360 ha        1 PI9      0.152500
     87 H281       -0.2930    0.2130   -6.4220 ha        1 PI9      0.152500
     88 H311       -3.3920    2.5440   -3.2770 ha        1 PI9      0.139000
     89 H291       -2.6370    0.5900   -7.1040 ha        1 PI9      0.139000
     90 HN41       -4.7740    1.6430   -6.5380 hn        1 PI9      0.417800
     91 HN42       -5.0660    2.3970   -5.0580 hn        1 PI9      0.417800
@<TRIPOS>BOND
     1    1    2 1   
     2    1    5 1   
     3    1   44 1   
     4    1   45 1   
     5    2    3 1   
     6    2   46 1   
     7    2   47 1   
     8    3    4 2   
     9    3    7 1   
    10    5    6 1   
    11    5   48 1   
    12    5   49 1   
    13    6   24 1   
    14    6   50 1   
    15    6   51 1   
    16    7    8 1   
    17    7   52 1   
    18    8    9 1   
    19    8   12 1   
    20    8   53 1   
    21    9   10 1   
    22    9   11 1   
    23    9   54 1   
    24   10   55 1   
    25   10   56 1   
    26   10   57 1   
    27   11   58 1   
    28   11   59 1   
    29   11   60 1   
    30   12   13 2   
    31   12   14 1   
    32   14   15 1   
    33   14   61 1   
    34   15   16 1   
    35   15   25 1   
    36   15   62 1   
    37   16   17 1   
    38   16   63 1   
    39   16   64 1   
    40   17   18 ar  
    41   17   20 ar  
    42   18   19 ar  
    43   18   65 1   
    44   19   22 ar  
    45   19   66 1   
    46   20   21 ar  
    47   20   67 1   
    48   21   22 ar  
    49   21   68 1   
    50   22   23 1   
    51   23   24 1   
    52   24   69 1   
    53   24   70 1   
    54   25   26 1   
    55   25   27 1   
    56   25   71 1   
    57   26   72 1   
    58   27   28 1   
    59   27   73 1   
    60   27   74 1   
    61   28   29 1   
    62   28   34 1   
    63   29   30 1   
    64   29   75 1   
    65   29   76 1   
    66   30   31 1   
    67   30   77 1   
    68   30   78 1   
    69   31   32 1   
    70   31   33 1   
    71   31   79 1   
    72   32   80 1   
    73   32   81 1   
    74   32   82 1   
    75   33   83 1   
    76   33   84 1   
    77   33   85 1   
    78   34   35 2   
    79   34   36 2   
    80   34   37 1   
    81   37   38 ar  
    82   37   39 ar  
    83   38   40 ar  
    84   38   86 1   
    85   39   41 ar  
    86   39   87 1   
    87   40   42 ar  
    88   40   88 1   
    89   41   42 ar  
    90   41   89 1   
    91   42   43 1   
    92   43   90 1   
    93   43   91 1   
@<TRIPOS>SUBSTRUCTURE
     1 PI9         1 TEMP              0 ****  ****    0 ROOT
