@<TRIPOS>MOLECULE
PI9
   95    96     1     0     0
SMALL
bcc


@<TRIPOS>ATOM
      1 C4         -1.5060    0.9930   -0.8570 c3        1 PI9     -0.090400
      2 C5         -0.2820    0.1580   -0.5110 c3        1 PI9     -0.143400
      3 C6          0.1210    0.3350    0.9230 c         1 PI9      0.584100
      4 O1         -0.5230    0.3170    1.9490 o         1 PI9     -0.384100
      5 C3         -1.2130    2.4680   -1.0380 c3        1 PI9     -0.101400
      6 C2         -1.1500    3.1900    0.2860 c3        1 PI9     -0.110400
      7 N1          1.6570    0.5910    1.1270 n4        1 PI9     -0.712800
      8 C7          2.1850    0.1780    2.4590 c3        1 PI9      0.061500
      9 C8          2.3620   -1.3610    2.6210 c3        1 PI9     -0.065700
     10 C10         1.0210   -2.0370    2.8100 c3        1 PI9     -0.131100
     11 C9          3.1270   -1.9880    1.4770 c3        1 PI9     -0.131100
     12 C11         3.5710    0.8100    2.6920 c         1 PI9      0.522100
     13 O2          4.4310    0.9260    1.8320 o         1 PI9     -0.392100
     14 N2          3.9060    1.2350    4.0970 n4        1 PI9     -0.661800
     15 C12         4.9110    2.3700    4.1710 c3        1 PI9      0.091500
     16 C13         4.1950    3.7090    4.4060 c3        1 PI9     -0.049100
     17 C14         2.9660    3.9210    3.6010 ca        1 PI9     -0.225300
     18 C15         2.9350    3.6950    2.2230 ca        1 PI9     -0.106500
     19 C16         1.8140    4.0320    1.4660 ca        1 PI9     -0.193000
     20 C19         1.8590    4.5360    4.2200 ca        1 PI9     -0.106500
     21 C18         0.7540    4.9170    3.4810 ca        1 PI9     -0.193000
     22 C17         0.7290    4.6760    2.0850 ca        1 PI9      0.193100
     23 O3         -0.3760    5.1580    1.4440 os        1 PI9     -0.281900
     24 C1         -0.6930    4.6300    0.1480 c3        1 PI9      0.116400
     25 C20         5.9760    2.1560    5.2960 c3        1 PI9      0.133100
     26 O4          6.6360    3.3920    5.5020 oh        1 PI9     -0.627800
     27 C21         7.0720    1.1590    4.8520 c3        1 PI9      0.123800
     28 N3          8.2850    1.1490    5.6790 n3        1 PI9     -0.899200
     29 C22         8.2010    0.3190    6.8900 c3        1 PI9      0.107800
     30 C23         7.1770    0.7540    7.9320 c3        1 PI9     -0.094400
     31 C24         7.4960    0.1470    9.2950 c3        1 PI9     -0.060700
     32 C26         6.5660    0.7330   10.3390 c3        1 PI9     -0.103600
     33 C25         7.3820   -1.3620    9.2750 c3        1 PI9     -0.103600
     34 S           9.1840    3.3880    6.0410 s4        1 PI9      1.668300
     35 O6          9.0780    3.6270    4.7150 o         1 PI9     -0.393900
     36 O5          8.3380    3.7170    7.0430 o         1 PI9     -0.393900
     37 C27        10.6920    3.0770    6.5330 ca        1 PI9     -0.518500
     38 C32        11.7590    2.9970    5.6120 ca        1 PI9      0.043500
     39 C28        11.0130    3.0060    7.9060 ca        1 PI9      0.043500
     40 C31        13.0840    2.8910    6.0290 ca        1 PI9     -0.117500
     41 C29        12.3290    2.9000    8.3490 ca        1 PI9     -0.117500
     42 C30        13.3720    2.8580    7.4060 ca        1 PI9      0.084600
     43 N4         14.7650    2.7990    7.8590 n4        1 PI9     -0.730000
     44 H41        -2.3040    0.8470   -0.0810 hc        1 PI9      0.106700
     45 H42        -1.9070    0.5810   -1.8280 hc        1 PI9      0.106700
     46 H51        -0.5430   -0.9380   -0.6220 hc        1 PI9      0.118700
     47 H52         0.5500    0.3920   -1.2280 hc        1 PI9      0.118700
     48 H31        -0.2610    2.6100   -1.6130 hc        1 PI9      0.079200
     49 H32        -2.0370    2.9190   -1.6610 hc        1 PI9      0.079200
     50 H21        -0.4330    2.6600    0.9750 hc        1 PI9      0.036700
     51 H22        -2.1570    3.1690    0.7840 hc        1 PI9      0.036700
     52 HN11        2.1700    0.0900    0.3900 hn        1 PI9      0.471800
     53 H71         1.4340    0.5370    3.2320 hx        1 PI9      0.154700
     54 H81         2.9540   -1.4930    3.5730 hc        1 PI9      0.063700
     55 H101        0.4040   -1.5210    3.5860 hc        1 PI9      0.078367
     56 H102        0.4420   -2.0660    1.8540 hc        1 PI9      0.078367
     57 H103        1.1850   -3.0970    3.1390 hc        1 PI9      0.078367
     58 H91         3.4610   -3.0170    1.7780 hc        1 PI9      0.078367
     59 H92         4.0330   -1.3930    1.2080 hc        1 PI9      0.078367
     60 H93         2.4880   -2.1150    0.5680 hc        1 PI9      0.078367
     61 HN21        3.0380    1.5520    4.5590 hn        1 PI9      0.473800
     62 H121        5.4520    2.4140    3.1750 hx        1 PI9      0.141700
     63 H131        3.9560    3.8130    5.5000 hc        1 PI9      0.099200
     64 H132        4.9410    4.5170    4.1440 hc        1 PI9      0.099200
     65 H151        3.8320    3.3180    1.7050 ha        1 PI9      0.142500
     66 H161        1.8320    3.9040    0.3720 ha        1 PI9      0.178000
     67 H191        1.8800    4.7500    5.3020 ha        1 PI9      0.142500
     68 H181       -0.1010    5.4370    3.9500 ha        1 PI9      0.178000
     69 H11         0.1730    4.7440   -0.5510 h1        1 PI9      0.095700
     70 H12        -1.5350    5.3050   -0.1820 h1        1 PI9      0.095700
     71 H20         5.4780    1.8140    6.2470 h1        1 PI9      0.081700
     72 HO4         6.1410    3.9090    6.1600 ho        1 PI9      0.471000
     73 H211        6.6070    0.1320    4.8230 h1        1 PI9      0.080200
     74 H212        7.3880    1.4440    3.8040 h1        1 PI9      0.080200
     75 H221        9.2300    0.3370    7.3560 h1        1 PI9      0.076700
     76 H222        7.9870   -0.7570    6.6130 h1        1 PI9      0.076700
     77 H231        6.1550    0.4120    7.6200 hc        1 PI9      0.045200
     78 H232        7.1520    1.8730    8.0270 hc        1 PI9      0.045200
     79 H241        8.5540    0.4230    9.5680 hc        1 PI9      0.039700
     80 H261        5.5050    0.4700   10.1150 hc        1 PI9      0.053700
     81 H262        6.6610    1.8440   10.3790 hc        1 PI9      0.053700
     82 H263        6.8200    0.3210   11.3480 hc        1 PI9      0.053700
     83 H251        6.3590   -1.6790    8.9620 hc        1 PI9      0.053700
     84 H252        8.1280   -1.8110    8.5760 hc        1 PI9      0.053700
     85 H253        7.5730   -1.7720   10.2990 hc        1 PI9      0.053700
     86 H321       11.5530    3.0460    4.5200 ha        1 PI9      0.204500
     87 H281       10.2040    3.0610    8.6670 ha        1 PI9      0.204500
     88 H311       13.8840    2.8460    5.2630 ha        1 PI9      0.208000
     89 H291       12.5250    2.8650    9.4400 ha        1 PI9      0.208000
     90 HN41       15.3490    2.2970    7.1720 hn        1 PI9      0.496800
     91 HN42       15.1350    3.7590    7.9680 hn        1 PI9      0.496800
     92 H122        1.8040    1.6080    1.0020 hn        1 PI9      0.471800
     93 H223        4.2690    0.4160    4.6000 hn        1 PI9      0.473800
     94 H312        9.0090    0.7410    5.0980 hn        1 PI9      0.399800
     95 H43        14.8310    2.3160    8.7680 hn        1 PI9      0.496800
@<TRIPOS>BOND
     1    1    2 1   
     2    1    5 1   
     3    1   44 1   
     4    1   45 1   
     5    2    3 1   
     6    2   46 1   
     7    2   47 1   
     8    3    4 2   
     9    3    7 1   
    10    5    6 1   
    11    5   48 1   
    12    5   49 1   
    13    6   24 1   
    14    6   50 1   
    15    6   51 1   
    16    7    8 1   
    17    7   52 1   
    18    7   92 1   
    19    8    9 1   
    20    8   12 1   
    21    8   53 1   
    22    9   10 1   
    23    9   11 1   
    24    9   54 1   
    25   10   55 1   
    26   10   56 1   
    27   10   57 1   
    28   11   58 1   
    29   11   59 1   
    30   11   60 1   
    31   12   13 2   
    32   12   14 1   
    33   14   15 1   
    34   14   61 1   
    35   14   93 1   
    36   15   16 1   
    37   15   25 1   
    38   15   62 1   
    39   16   17 1   
    40   16   63 1   
    41   16   64 1   
    42   17   18 ar  
    43   17   20 ar  
    44   18   19 ar  
    45   18   65 1   
    46   19   22 ar  
    47   19   66 1   
    48   20   21 ar  
    49   20   67 1   
    50   21   22 ar  
    51   21   68 1   
    52   22   23 1   
    53   23   24 1   
    54   24   69 1   
    55   24   70 1   
    56   25   26 1   
    57   25   27 1   
    58   25   71 1   
    59   26   72 1   
    60   27   28 1   
    61   27   73 1   
    62   27   74 1   
    63   28   29 1   
    64   28   94 1   
    65   29   30 1   
    66   29   75 1   
    67   29   76 1   
    68   30   31 1   
    69   30   77 1   
    70   30   78 1   
    71   31   32 1   
    72   31   33 1   
    73   31   79 1   
    74   32   80 1   
    75   32   81 1   
    76   32   82 1   
    77   33   83 1   
    78   33   84 1   
    79   33   85 1   
    80   34   35 1   
    81   34   36 1   
    82   34   37 1   
    83   37   38 ar  
    84   37   39 ar  
    85   38   40 ar  
    86   38   86 1   
    87   39   41 ar  
    88   39   87 1   
    89   40   42 ar  
    90   40   88 1   
    91   41   42 ar  
    92   41   89 1   
    93   42   43 1   
    94   43   90 1   
    95   43   91 1   
    96   43   95 1   
@<TRIPOS>SUBSTRUCTURE
     1 PI9         1 TEMP              0 ****  ****    0 ROOT
