@<TRIPOS>MOLECULE
PI9
   94    95     1     0     0
SMALL
bcc


@<TRIPOS>ATOM
      1 C4        -92.8860  -10.6590  -26.4310 c3        1 PI9     -0.084400
      2 C5        -92.1380  -11.9040  -26.8850 c3        1 PI9     -0.144400
      3 C6        -91.1970  -12.4140  -25.8350 c         1 PI9      0.567100
      4 O1        -90.9180  -11.9980  -24.7280 o         1 PI9     -0.404100
      5 C3        -92.1750   -9.3580  -26.7440 c3        1 PI9     -0.093400
      6 C2        -91.1180   -9.0190  -25.7200 c3        1 PI9     -0.113400
      7 N1        -90.4570  -13.7170  -26.2320 ny        1 PI9     -0.702800
      8 C7        -89.2430  -14.0290  -25.4130 c3        1 PI9      0.040500
      9 C8        -88.8890  -15.5410  -25.4490 c3        1 PI9     -0.079700
     10 C10       -89.9020  -16.3360  -24.6550 c3        1 PI9     -0.131600
     11 C9        -88.7610  -16.0660  -26.8610 c3        1 PI9     -0.131600
     12 C11       -88.0330  -13.2300  -25.9220 c         1 PI9      0.518100
     13 O2        -87.9070  -12.8780  -27.0880 o         1 PI9     -0.389100
     14 N2        -86.9890  -12.8890  -24.9180 ny        1 PI9     -0.657800
     15 C12       -85.6370  -12.5270  -25.5160 c3        1 PI9      0.114500
     16 C13       -85.1400  -11.1880  -24.9460 c3        1 PI9     -0.050100
     17 C14       -86.2090  -10.1560  -25.0000 ca        1 PI9     -0.202300
     18 C15       -86.6300   -9.6400  -26.2330 ca        1 PI9     -0.109000
     19 C16       -87.6920   -8.7450  -26.2980 ca        1 PI9     -0.161000
     20 C19       -86.7960   -9.6860  -23.8170 ca        1 PI9     -0.109000
     21 C18       -87.8520   -8.7830  -23.8630 ca        1 PI9     -0.161000
     22 C17       -88.3260   -8.3420  -25.1120 ca        1 PI9      0.142100
     23 O3        -89.3810   -7.4520  -25.0850 os        1 PI9     -0.306900
     24 C1        -90.4240   -7.7040  -26.0340 c3        1 PI9      0.126400
     25 C20       -84.5700  -13.6330  -25.2970 c3        1 PI9      0.082100
     26 O4        -83.6300  -13.3670  -26.3230 oh        1 PI9     -0.581800
     27 C21       -85.1440  -15.0640  -25.4530 c3        1 PI9      0.149800
     28 N3        -84.2600  -16.1080  -25.8730 n7        1 PI9     -0.815200
     29 C22       -83.3300  -16.6350  -24.8970 c3        1 PI9      0.144800
     30 C23       -82.0750  -15.8080  -24.6260 c3        1 PI9     -0.112400
     31 C24       -81.1210  -16.5350  -23.6880 c3        1 PI9     -0.064700
     32 C26       -79.7460  -15.9010  -23.7590 c3        1 PI9     -0.095600
     33 C25       -81.6280  -16.5250  -22.2620 c3        1 PI9     -0.095600
     34 S         449.8900   72.5940  147.0270 s4        1 PI9      1.659300
     35 O6        449.6450   71.2910  146.7440 o         1 PI9     -0.414400
     36 O5        449.0060   73.5750  146.7190 o         1 PI9     -0.414400
     37 C27       451.1880   72.9650  147.7060 ca        1 PI9     -0.734500
     38 C32       452.1730   71.9810  148.0630 ca        1 PI9      0.074000
     39 C28       451.5170   74.3240  148.0380 ca        1 PI9      0.074000
     40 C31       453.3450   72.2990  148.6750 ca        1 PI9     -0.232000
     41 C29       452.6810   74.6730  148.6490 ca        1 PI9     -0.232000
     42 C30       453.6590   73.6710  149.0010 ca        1 PI9      0.337600
     43 N4        454.8100   74.0000  149.6030 nv        1 PI9     -0.768200
     44 H41       -93.1100  -10.7190  -25.3330 hc        1 PI9      0.092200
     45 H42       -93.8740  -10.6630  -26.9740 hc        1 PI9      0.092200
     46 H51       -92.8830  -12.7170  -27.1180 hc        1 PI9      0.114200
     47 H52       -91.5580  -11.6820  -27.8250 hc        1 PI9      0.114200
     48 H31       -92.9430   -8.5350  -26.7590 hc        1 PI9      0.073700
     49 H32       -91.7240   -9.3970  -27.7710 hc        1 PI9      0.073700
     50 H21       -91.5770   -8.9560  -24.6980 hc        1 PI9      0.039700
     51 H22       -90.3480   -9.8370  -25.6850 hc        1 PI9      0.039700
     52 HN11      -90.1960  -13.6680  -27.2270 hn        1 PI9      0.480300
     53 H71       -89.4850  -13.7400  -24.3400 hx        1 PI9      0.150700
     54 H81       -87.8850  -15.6380  -24.9370 hc        1 PI9      0.088700
     55 H101      -90.8910  -16.3880  -25.1720 hc        1 PI9      0.075367
     56 H102      -90.0460  -15.9110  -23.6320 hc        1 PI9      0.075367
     57 H103      -89.5320  -17.3900  -24.5420 hc        1 PI9      0.075367
     58 H91       -88.1330  -15.3900  -27.4920 hc        1 PI9      0.075367
     59 H92       -89.7580  -16.2010  -27.3460 hc        1 PI9      0.075367
     60 H93       -88.2660  -17.0720  -26.8380 hc        1 PI9      0.075367
     61 HN21      -86.8760  -13.6720  -24.2630 hn        1 PI9      0.480300
     62 H121      -85.7780  -12.4000  -26.6360 hx        1 PI9      0.145700
     63 H131      -84.2590  -10.8900  -25.5840 hc        1 PI9      0.106200
     64 H132      -84.7630  -11.3200  -23.8980 hc        1 PI9      0.106200
     65 H151      -86.1070   -9.9330  -27.1590 ha        1 PI9      0.150000
     66 H161      -88.0070   -8.3290  -27.2680 ha        1 PI9      0.172000
     67 H191      -86.4020  -10.0060  -22.8380 ha        1 PI9      0.150000
     68 H181      -88.3080   -8.3890  -22.9400 ha        1 PI9      0.172000
     69 H11       -91.1120   -6.8270  -25.8800 h1        1 PI9      0.080200
     70 H12       -90.0210   -7.6910  -27.0790 h1        1 PI9      0.080200
     71 H20       -84.1040  -13.5140  -24.2790 h1        1 PI9      0.075700
     72 HO4       -82.7550  -13.6270  -25.9950 ho        1 PI9      0.450000
     73 H211      -85.5930  -15.3640  -24.4620 h1        1 PI9      0.027200
     74 H212      -85.9640  -15.0230  -26.2310 h1        1 PI9      0.027200
     75 H221      -83.0150  -17.6460  -25.2930 h1        1 PI9      0.073200
     76 H222      -83.8770  -16.8080  -23.9280 h1        1 PI9      0.073200
     77 H231      -82.3530  -14.8190  -24.1740 hc        1 PI9      0.030700
     78 H232      -81.5440  -15.6010  -25.5950 hc        1 PI9      0.030700
     79 H241      -81.0340  -17.6060  -24.0290 hc        1 PI9      0.064700
     80 H261      -79.0440  -16.4330  -23.0710 hc        1 PI9      0.041533
     81 H262      -79.3370  -15.9630  -24.7960 hc        1 PI9      0.041533
     82 H263      -79.7900  -14.8280  -23.4550 hc        1 PI9      0.041533
     83 H251      -82.6170  -17.0370  -22.1860 hc        1 PI9      0.041533
     84 H252      -80.9060  -17.0590  -21.5970 hc        1 PI9      0.041533
     85 H253      -81.7380  -15.4780  -21.8880 hc        1 PI9      0.041533
     86 H321      451.9540   70.9210  147.8230 ha        1 PI9      0.176000
     87 H281      450.7810   75.1120  147.7780 ha        1 PI9      0.176000
     88 H311      454.0690   71.5050  148.9280 ha        1 PI9      0.178000
     89 H291      452.8850   75.7330  148.8820 ha        1 PI9      0.178000
     90 HN41      455.4810   73.3020  149.8430 hn        1 PI9      0.471800
     91 HN42      455.0200   74.9480  149.8250 hn        1 PI9      0.471800
     92 H122      -91.1150  -14.5030  -26.1160 hn        1 PI9      0.480300
     93 H223      -87.3260  -12.0570  -24.3880 hn        1 PI9      0.480300
     94 H312      -83.7940  -15.8630  -26.7290 hn        1 PI9      0.394800
@<TRIPOS>BOND
     1    1    2 1   
     2    1    5 1   
     3    1   44 1   
     4    1   45 1   
     5    2    3 1   
     6    2   46 1   
     7    2   47 1   
     8    3    4 2   
     9    3    7 1   
    10    5    6 1   
    11    5   48 1   
    12    5   49 1   
    13    6   24 1   
    14    6   50 1   
    15    6   51 1   
    16    7    8 1   
    17    7   52 1   
    18    7   92 1   
    19    8    9 1   
    20    8   12 1   
    21    8   53 1   
    22    9   10 1   
    23    9   11 1   
    24    9   54 1   
    25   10   55 1   
    26   10   56 1   
    27   10   57 1   
    28   11   58 1   
    29   11   59 1   
    30   11   60 1   
    31   12   13 2   
    32   12   14 1   
    33   14   15 1   
    34   14   61 1   
    35   14   93 1   
    36   15   16 1   
    37   15   25 1   
    38   15   62 1   
    39   16   17 1   
    40   16   63 1   
    41   16   64 1   
    42   17   18 ar  
    43   17   20 ar  
    44   18   19 ar  
    45   18   65 1   
    46   19   22 ar  
    47   19   66 1   
    48   20   21 ar  
    49   20   67 1   
    50   21   22 ar  
    51   21   68 1   
    52   22   23 1   
    53   23   24 1   
    54   24   69 1   
    55   24   70 1   
    56   25   26 1   
    57   25   27 1   
    58   25   71 1   
    59   26   72 1   
    60   27   28 1   
    61   27   73 1   
    62   27   74 1   
    63   28   29 1   
    64   28   94 1   
    65   29   30 1   
    66   29   75 1   
    67   29   76 1   
    68   30   31 1   
    69   30   77 1   
    70   30   78 1   
    71   31   32 1   
    72   31   33 1   
    73   31   79 1   
    74   32   80 1   
    75   32   81 1   
    76   32   82 1   
    77   33   83 1   
    78   33   84 1   
    79   33   85 1   
    80   34   35 1   
    81   34   36 1   
    82   34   37 1   
    83   37   38 ar  
    84   37   39 ar  
    85   38   40 ar  
    86   38   86 1   
    87   39   41 ar  
    88   39   87 1   
    89   40   42 ar  
    90   40   88 1   
    91   41   42 ar  
    92   41   89 1   
    93   42   43 1   
    94   43   90 1   
    95   43   91 1   
@<TRIPOS>SUBSTRUCTURE
     1 PI9         1 TEMP              0 ****  ****    0 ROOT
