@<TRIPOS>MOLECULE
PI9
   94    95     1     0     0
SMALL
bcc


@<TRIPOS>ATOM
      1 C4         -1.3100    0.5190   -0.1250 c3        1 PI9     -0.088400
      2 C5         -0.1060   -0.2970    0.3210 c3        1 PI9     -0.143400
      3 C6          0.3670    0.1230    1.6830 c         1 PI9      0.575100
      4 O1         -0.2380    0.5340    2.6500 o         1 PI9     -0.384100
      5 C3         -0.9630    1.8940   -0.6530 c3        1 PI9     -0.098400
      6 C2         -0.5640    2.8400    0.4530 c3        1 PI9     -0.111400
      7 N1          1.9080   -0.0370    1.8830 n4        1 PI9     -0.702800
      8 C7          2.4290    0.3720    3.2250 c3        1 PI9      0.050500
      9 C8          2.4950   -0.8070    4.2330 c3        1 PI9     -0.074700
     10 C10         1.1030   -1.2960    4.5720 c3        1 PI9     -0.130600
     11 C9          3.3650   -1.9420    3.7380 c3        1 PI9     -0.130600
     12 C11         3.8370    0.9830    3.0930 c         1 PI9      0.522100
     13 O2          4.5710    0.8080    2.1300 o         1 PI9     -0.400100
     14 N2          4.3210    1.8020    4.2460 n4        1 PI9     -0.656800
     15 C12         5.4510    2.7650    3.9110 c3        1 PI9      0.089500
     16 C13         4.9300    4.2070    3.8490 c3        1 PI9     -0.052100
     17 C14         3.6550    4.3540    3.1030 ca        1 PI9     -0.219300
     18 C15         3.5420    3.9030    1.7840 ca        1 PI9     -0.105000
     19 C16         2.3700    4.1020    1.0600 ca        1 PI9     -0.180000
     20 C19         2.5920    5.0680    3.6790 ca        1 PI9     -0.105000
     21 C18         1.4210    5.2920    2.9700 ca        1 PI9     -0.180000
     22 C17         1.3030    4.7970    1.6520 ca        1 PI9      0.166100
     23 O3          0.1170    5.0880    1.0280 os        1 PI9     -0.292900
     24 C1         -0.2810    4.2410   -0.0570 c3        1 PI9      0.121400
     25 C20         6.6130    2.6780    4.9520 c3        1 PI9      0.135100
     26 O4          7.4640    3.7750    4.7030 oh        1 PI9     -0.576800
     27 C21         7.4750    1.4170    4.7050 c3        1 PI9      0.139800
     28 N3          8.3240    1.0750    5.8400 n3        1 PI9     -0.880200
     29 C22         7.8130   -0.0360    6.6450 c3        1 PI9      0.114800
     30 C23         6.4730    0.2330    7.3260 c3        1 PI9     -0.060400
     31 C24         5.9590   -1.0100    8.0410 c3        1 PI9     -0.075700
     32 C26         4.9310   -0.6170    9.0830 c3        1 PI9     -0.094100
     33 C25         5.3680   -2.0080    7.0700 c3        1 PI9     -0.094100
     34 S           9.1720    2.9540    7.6300 s4        1 PI9      1.704300
     35 O6          8.1390    3.7100    7.1520 o         1 PI9     -0.464900
     36 O5          8.9310    1.9840    8.5510 o         1 PI9     -0.464900
     37 C27        10.5850    3.2910    7.2510 ca        1 PI9     -0.744500
     38 C32        10.9170    4.3300    6.3100 ca        1 PI9      0.063500
     39 C28        11.7140    2.6310    7.8590 ca        1 PI9      0.063500
     40 C31        12.1930    4.7060    6.0400 ca        1 PI9     -0.222500
     41 C29        13.0010    2.9840    7.6110 ca        1 PI9     -0.222500
     42 C30        13.3120    4.0650    6.6990 ca        1 PI9      0.338600
     43 N4         14.5710    4.4510    6.4770 nh        1 PI9     -0.743200
     44 H41        -2.0490    0.6040    0.7170 hc        1 PI9      0.100700
     45 H42        -1.8090   -0.0680   -0.9480 hc        1 PI9      0.100700
     46 H51         0.7070   -0.2230   -0.4500 hc        1 PI9      0.115200
     47 H52        -0.4090   -1.3820    0.4120 hc        1 PI9      0.115200
     48 H31        -0.1460    1.8230   -1.4200 hc        1 PI9      0.080200
     49 H32        -1.8690    2.3050   -1.1810 hc        1 PI9      0.080200
     50 H21        -1.3760    2.8910    1.2290 hc        1 PI9      0.029700
     51 H22         0.3600    2.4530    0.9660 hc        1 PI9      0.029700
     52 HN11        2.3690    0.5130    1.1450 hn        1 PI9      0.471300
     53 H71         1.7110    1.1550    3.6330 hx        1 PI9      0.159700
     54 H81         2.9460   -0.3850    5.1770 hc        1 PI9      0.072700
     55 H101        0.6270   -1.8110    3.7030 hc        1 PI9      0.075533
     56 H102        1.1650   -2.0340    5.4140 hc        1 PI9      0.075533
     57 H103        0.4420   -0.4530    4.8930 hc        1 PI9      0.075533
     58 H91         4.2920   -1.5650    3.2430 hc        1 PI9      0.075533
     59 H92         3.6680   -2.5820    4.6090 hc        1 PI9      0.075533
     60 H93         2.8170   -2.6080    3.0260 hc        1 PI9      0.075533
     61 HN21        3.5300    2.3600    4.6060 hn        1 PI9      0.477800
     62 H121        5.8630    2.4750    2.8970 hx        1 PI9      0.135700
     63 H131        4.8250    4.6130    4.8930 hc        1 PI9      0.103200
     64 H132        5.7360    4.8120    3.3380 hc        1 PI9      0.103200
     65 H151        4.4030    3.4230    1.2910 ha        1 PI9      0.144500
     66 H161        2.3120    3.7770    0.0110 ha        1 PI9      0.173000
     67 H191        2.6910    5.4820    4.6970 ha        1 PI9      0.144500
     68 H181        0.5910    5.8760    3.4020 ha        1 PI9      0.173000
     69 H11        -1.2210    4.7460   -0.4220 h1        1 PI9      0.090700
     70 H12         0.4880    4.2480   -0.8710 h1        1 PI9      0.090700
     71 H20         6.2030    2.7090    5.9990 h1        1 PI9      0.077700
     72 HO4         7.2380    4.4830    5.3270 ho        1 PI9      0.451000
     73 H211        6.7950    0.5610    4.4300 h1        1 PI9      0.059700
     74 H212        8.1240    1.6370    3.8060 h1        1 PI9      0.059700
     75 H221        7.7240   -0.9750    6.0240 h1        1 PI9      0.075200
     76 H222        8.5780   -0.2340    7.4530 h1        1 PI9      0.075200
     77 H231        5.7110    0.5650    6.5700 hc        1 PI9      0.018700
     78 H232        6.5960    1.0650    8.0700 hc        1 PI9      0.018700
     79 H241        6.8260   -1.5010    8.5720 hc        1 PI9      0.086700
     80 H261        4.5520   -1.5260    9.6110 hc        1 PI9      0.040200
     81 H262        4.0640   -0.0970    8.6080 hc        1 PI9      0.040200
     82 H263        5.3820    0.0650    9.8440 hc        1 PI9      0.040200
     83 H251        6.1370   -2.3730    6.3480 hc        1 PI9      0.040200
     84 H252        4.9670   -2.8910    7.6280 hc        1 PI9      0.040200
     85 H253        4.5270   -1.5490    6.4910 hc        1 PI9      0.040200
     86 H321       10.0770    4.8390    5.7960 ha        1 PI9      0.168500
     87 H281       11.5050    1.8080    8.5730 ha        1 PI9      0.168500
     88 H311       12.3900    5.5170    5.3150 ha        1 PI9      0.184500
     89 H291       13.8280    2.4500    8.1150 ha        1 PI9      0.184500
     90 HN41       14.7780    5.2040    5.8540 hn        1 PI9      0.480300
     91 HN42       15.3360    4.0080    6.9420 hn        1 PI9      0.480300
     92 H122        2.1380   -1.0280    1.7270 hn        1 PI9      0.471300
     93 H223        4.6380    1.1560    4.9850 hn        1 PI9      0.477800
     94 H312        9.2250    0.7970    5.4770 hn        1 PI9      0.389800
@<TRIPOS>BOND
     1    1    2 1   
     2    1    5 1   
     3    1   44 1   
     4    1   45 1   
     5    2    3 1   
     6    2   46 1   
     7    2   47 1   
     8    3    4 2   
     9    3    7 1   
    10    5    6 1   
    11    5   48 1   
    12    5   49 1   
    13    6   24 1   
    14    6   50 1   
    15    6   51 1   
    16    7    8 1   
    17    7   52 1   
    18    7   92 1   
    19    8    9 1   
    20    8   12 1   
    21    8   53 1   
    22    9   10 1   
    23    9   11 1   
    24    9   54 1   
    25   10   55 1   
    26   10   56 1   
    27   10   57 1   
    28   11   58 1   
    29   11   59 1   
    30   11   60 1   
    31   12   13 2   
    32   12   14 1   
    33   14   15 1   
    34   14   61 1   
    35   14   93 1   
    36   15   16 1   
    37   15   25 1   
    38   15   62 1   
    39   16   17 1   
    40   16   63 1   
    41   16   64 1   
    42   17   18 ar  
    43   17   20 ar  
    44   18   19 ar  
    45   18   65 1   
    46   19   22 ar  
    47   19   66 1   
    48   20   21 ar  
    49   20   67 1   
    50   21   22 ar  
    51   21   68 1   
    52   22   23 1   
    53   23   24 1   
    54   24   69 1   
    55   24   70 1   
    56   25   26 1   
    57   25   27 1   
    58   25   71 1   
    59   26   72 1   
    60   27   28 1   
    61   27   73 1   
    62   27   74 1   
    63   28   29 1   
    64   28   94 1   
    65   29   30 1   
    66   29   75 1   
    67   29   76 1   
    68   30   31 1   
    69   30   77 1   
    70   30   78 1   
    71   31   32 1   
    72   31   33 1   
    73   31   79 1   
    74   32   80 1   
    75   32   81 1   
    76   32   82 1   
    77   33   83 1   
    78   33   84 1   
    79   33   85 1   
    80   34   35 1   
    81   34   36 1   
    82   34   37 1   
    83   37   38 ar  
    84   37   39 ar  
    85   38   40 ar  
    86   38   86 1   
    87   39   41 ar  
    88   39   87 1   
    89   40   42 ar  
    90   40   88 1   
    91   41   42 ar  
    92   41   89 1   
    93   42   43 1   
    94   43   90 1   
    95   43   91 1   
@<TRIPOS>SUBSTRUCTURE
     1 PI9         1 TEMP              0 ****  ****    0 ROOT
