@<TRIPOS>MOLECULE
PIA
   35    36     1     0     0
SMALL
bcc


@<TRIPOS>ATOM
      1 N1         -1.5230   -3.1500   -1.1060 n3        1 PIA     -0.899800
      2 CA1        -2.1440   -2.1250   -0.2830 c3        1 PIA      0.124200
      3 CB1        -2.2240   -2.4370    1.2150 c3        1 PIA     -0.142100
      4 C1         -1.4110   -0.7960   -0.4230 cc        1 PIA      0.516900
      5 N2         -0.0840   -0.6600   -0.2930 nd        1 PIA     -0.668300
      6 N3         -2.0950    0.4130   -0.7010 n         1 PIA     -0.375300
      7 C2         -1.1250    1.4470   -0.6980 c         1 PIA      0.664700
      8 O2         -1.3150    2.6510   -0.9020 o         1 PIA     -0.606500
      9 CA2         0.2020    0.7260   -0.4480 cd        1 PIA      0.043400
     10 CA3        -3.5160    0.6160   -0.7460 c3        1 PIA     -0.042000
     11 C3         -4.3340   -0.0620    0.3960 c         1 PIA      0.897600
     12 O3         -4.0990    0.2740    1.5870 o         1 PIA     -0.822300
     13 CB2         1.3690    1.3930   -0.3940 ce        1 PIA     -0.073200
     14 CG2         2.6960    0.8530   -0.1770 ca        1 PIA     -0.065800
     15 CD1         3.0390   -0.4720   -0.4790 ca        1 PIA     -0.077000
     16 CD2         3.6860    1.7090    0.3420 ca        1 PIA     -0.077000
     17 CE1         4.3330   -0.9380   -0.2610 ca        1 PIA     -0.194000
     18 CE2         4.9810    1.2600    0.5690 ca        1 PIA     -0.194000
     19 CZ          5.3000   -0.0730    0.2640 ca        1 PIA      0.111100
     20 OH          6.6000   -0.4680    0.5030 oh        1 PIA     -0.509100
     21 O31        -5.1940   -0.9100    0.0320 o         1 PIA     -0.822300
     22 HN11       -0.5690   -3.2950   -0.8360 hn        1 PIA      0.343300
     23 HN12       -2.0240   -4.0090   -0.9800 hn        1 PIA      0.343300
     24 HA1        -3.2090   -1.9940   -0.6650 h1        1 PIA      0.131700
     25 HB11       -1.2090   -2.5210    1.6680 hc        1 PIA      0.056700
     26 HB12       -2.7940   -1.6150    1.7250 hc        1 PIA      0.056700
     27 HB13       -2.7740   -3.3950    1.3730 hc        1 PIA      0.056700
     28 HA31       -3.7040    1.7240   -0.6930 h1        1 PIA      0.052700
     29 HA32       -3.8920    0.2250   -1.7340 h1        1 PIA      0.052700
     30 HB2         1.3200    2.4940   -0.5120 ha        1 PIA      0.139000
     31 HD1         2.2850   -1.1590   -0.8970 ha        1 PIA      0.150000
     32 HD2         3.4270    2.7520    0.5800 ha        1 PIA      0.150000
     33 HE1         4.5910   -1.9800   -0.4980 ha        1 PIA      0.133000
     34 HE2         5.7520    1.9240    0.9800 ha        1 PIA      0.133000
     35 HH          6.6650   -1.4070    0.2800 ho        1 PIA      0.412000
@<TRIPOS>BOND
     1    1    2 1   
     2    1   22 1   
     3    1   23 1   
     4    2    3 1   
     5    2    4 1   
     6    2   24 1   
     7    3   25 1   
     8    3   26 1   
     9    3   27 1   
    10    4    5 2   
    11    4    6 1   
    12    5    9 1   
    13    6    7 1   
    14    6   10 1   
    15    7    8 2   
    16    7    9 1   
    17    9   13 2   
    18   10   11 1   
    19   10   28 1   
    20   10   29 1   
    21   11   12 1   
    22   11   21 1   
    23   13   14 1   
    24   13   30 1   
    25   14   15 ar  
    26   14   16 ar  
    27   15   17 ar  
    28   15   31 1   
    29   16   18 ar  
    30   16   32 1   
    31   17   19 ar  
    32   17   33 1   
    33   18   19 ar  
    34   18   34 1   
    35   19   20 1   
    36   20   35 1   
@<TRIPOS>SUBSTRUCTURE
     1 PIA         1 TEMP              0 ****  ****    0 ROOT
