@<TRIPOS>MOLECULE
PIB
   64    61     1     0     0
SMALL
bcc


@<TRIPOS>ATOM
      1 C1        391.2620 -268.2360  487.0930 c2        1 PIB     -0.196200
      2 C2        392.7130 -268.2780  487.4580 c3        1 PIB      0.160300
      3 C3        393.0490 -269.1710  488.6850 c3        1 PIB      0.175100
      4 C4        392.0870 -270.3840  488.7160 c3        1 PIB      0.117100
      5 C5        390.6470 -269.8540  488.8880 c3        1 PIB      0.132300
      6 C6        390.3230 -268.9490  487.7370 c2        1 PIB      0.031900
      7 O1       -237.4110  167.2710 -298.4260 oh        1 PIB     -0.775400
      8 O2        393.4290 -268.6760  486.2920 oh        1 PIB     -0.654800
      9 O3        394.3500 -269.5930  488.5980 os        1 PIB     -0.559200
     10 O4        392.3330 -271.2930  489.7560 oh        1 PIB     -0.701800
     11 O5        389.6870 -270.9090  488.9420 oh        1 PIB     -0.661800
     12 O6        388.9940 -268.8130  487.3600 oh        1 PIB     -0.547100
     13 P1       -237.4010  166.2680 -299.7100 p5        1 PIB      1.434800
     14 O11      -236.3140  165.2760 -299.5860 o         1 PIB     -0.835500
     15 O12      -237.6800  167.1540 -300.8550 o         1 PIB     -0.835500
     16 O13      -238.8360  165.5130 -299.3340 os        1 PIB     -0.597200
     17 P3        395.2910 -269.2510  490.0380 p5        1 PIB      1.318900
     18 O31       396.6800 -269.6230  489.6250 o         1 PIB     -0.913167
     19 O32       394.5710 -270.1920  490.9780 o         1 PIB     -0.913167
     20 O33       394.9790 -267.7980  490.2480 o         1 PIB     -0.913167
     21 C7       -238.8150  164.1340 -299.1310 c3        1 PIB      0.190600
     22 C8       -239.5660  163.4260 -300.2100 c2        1 PIB     -0.166200
     23 C9       -239.4800  162.1140 -300.4610 c2        1 PIB     -0.051900
     24 C10      -238.3470  160.0680 -300.0280 c         1 PIB      0.636900
     25 C11      -235.4880  162.3590 -298.4600 c3        1 PIB     -0.109900
     26 C12      -234.2760  161.5590 -298.7090 c2        1 PIB     -0.119200
     27 C13      -234.2740  160.2910 -299.1190 c2        1 PIB     -0.279000
     28 C15      -242.8700  166.2160 -296.0020 c3        1 PIB     -0.131400
     29 C16      -242.8650  165.7720 -294.5550 c3        1 PIB     -0.080400
     30 C17      -244.0850  166.2740 -293.8270 c3        1 PIB     -0.091100
     31 O14      -241.2420  166.4050 -297.7350 oh        1 PIB     -0.614100
     32 O15      -238.6110  161.3510 -299.6690 os        1 PIB     -0.356200
     33 O16      -238.9310  159.5370 -300.9710 o         1 PIB     -0.561000
     34 O17      -241.2310  164.4840 -296.6100 o         1 PIB     -0.566000
     35 HC1      -237.8470  168.0920 -298.6240 ho        1 PIB      0.427000
     36 HC2       391.0000 -267.5830  486.2500 ha        1 PIB      0.111000
     37 HC3       393.0490 -267.2270  487.7060 h1        1 PIB      0.046700
     38 HC4       392.8920 -268.5580  489.6240 h1        1 PIB      0.067700
     39 HC5       392.1550 -270.9510  487.7460 h1        1 PIB      0.028700
     40 HC6       390.5630 -269.2810  489.8560 h1        1 PIB      0.058700
     41 HO2       394.2060 -269.1700  486.6040 ho        1 PIB      0.446000
     42 HO4       393.1650 -271.0000  490.2320 ho        1 PIB      0.515000
     43 HO5       390.1690 -271.6880  489.2500 ho        1 PIB      0.433000
     44 HO6       388.5160 -269.5570  487.7500 ho        1 PIB      0.417000
     45 HC71     -240.4900  165.9750 -298.1970 ho        1 PIB      0.499000
     46 HC72     -237.7520  163.7540 -299.0740 h1        1 PIB      0.065700
     47 HC8      -239.3370  163.9210 -298.1490 h1        1 PIB      0.065700
     48 HC91     -240.2340  164.0530 -300.8220 ha        1 PIB      0.145000
     49 HC92     -240.0250  161.5610 -301.2360 h4        1 PIB      0.150000
     50 H111     -237.5800  159.6380 -299.3540 h5        1 PIB      0.075200
     51 H112     -236.4220  161.7970 -298.7130 hc        1 PIB      0.070367
     52 H121     -235.4760  163.3090 -299.0680 hc        1 PIB      0.070367
     53 H122     -233.3260  162.0950 -298.5390 ha        1 PIB      0.109000
     54 H131     -235.5360  162.6550 -297.3820 hc        1 PIB      0.070367
     55 H132     -235.1970  159.7300 -299.3080 ha        1 PIB      0.092500
     56 H133     -233.3490  159.7320 -299.3030 ha        1 PIB      0.092500
     57 H151     -243.8210  165.8960 -296.5050 hc        1 PIB      0.069700
     58 H152     -242.8060  167.3340 -296.0720 hc        1 PIB      0.069700
     59 H161     -245.0170  165.8720 -294.2930 hc        1 PIB      0.029700
     60 H162     -241.9380  166.1540 -294.0520 hc        1 PIB      0.057200
     61 H171     -242.8230  164.6510 -294.5130 hc        1 PIB      0.057200
     62 H172     -244.0560  165.9490 -292.7590 hc        1 PIB      0.029700
     63 H173     -244.1320  167.3890 -293.8560 hc        1 PIB      0.029700
     64 C14      -241.7310  165.6050 -296.7610 c         1 PIB      0.633100
@<TRIPOS>BOND
     1    1    2 1   
     2    1    6 2   
     3    1   36 1   
     4    2    3 1   
     5    2    8 1   
     6    2   37 1   
     7    3    4 1   
     8    3    9 1   
     9    3   38 1   
    10    4    5 1   
    11    4   10 1   
    12    4   39 1   
    13    5    6 1   
    14    5   11 1   
    15    5   40 1   
    16    6   12 1   
    17    7   13 1   
    18    7   35 1   
    19    8   41 1   
    20    9   17 1   
    21   10   42 1   
    22   11   43 1   
    23   12   44 1   
    24   13   14 1   
    25   13   15 1   
    26   13   16 1   
    27   16   21 1   
    28   17   18 1   
    29   17   19 1   
    30   17   20 1   
    31   21   22 1   
    32   21   46 1   
    33   21   47 1   
    34   22   23 2   
    35   22   48 1   
    36   23   32 1   
    37   23   49 1   
    38   24   32 1   
    39   24   33 2   
    40   24   50 1   
    41   25   26 1   
    42   25   51 1   
    43   25   52 1   
    44   25   54 1   
    45   26   27 2   
    46   26   53 1   
    47   27   55 1   
    48   27   56 1   
    49   28   29 1   
    50   28   57 1   
    51   28   58 1   
    52   28   64 1   
    53   29   30 1   
    54   29   60 1   
    55   29   61 1   
    56   30   59 1   
    57   30   62 1   
    58   30   63 1   
    59   31   45 1   
    60   31   64 1   
    61   34   64 2   
@<TRIPOS>SUBSTRUCTURE
     1 PIB         1 TEMP              0 ****  ****    0 ROOT
