@<TRIPOS>MOLECULE
PIB
   64    64     1     0     0
SMALL
bcc


@<TRIPOS>ATOM
      1 C1         -0.1470   -0.6840   -1.9940 c3        1 PIB      0.206100
      2 C2         -0.7070   -0.9030   -3.4210 c3        1 PIB      0.110100
      3 C3         -0.5780    0.3340   -4.3590 c3        1 PIB      0.170100
      4 C4          0.9060    0.7820   -4.3690 c3        1 PIB      0.106100
      5 C5          1.3630    1.0920   -2.9380 c3        1 PIB      0.095100
      6 C6          1.3100   -0.1820   -2.0850 c3        1 PIB      0.126100
      7 O1         -0.1680   -1.8880   -1.2760 os        1 PIB     -0.569200
      8 O2         -0.0430   -2.0190   -4.0030 oh        1 PIB     -0.628800
      9 O3         -0.9470   -0.0540   -5.6270 os        1 PIB     -0.574200
     10 O4          1.1630    1.9300   -5.1430 oh        1 PIB     -0.715800
     11 O5          2.7100    1.5690   -2.9070 oh        1 PIB     -0.664800
     12 O6          1.7880    0.0970   -0.7710 oh        1 PIB     -0.620800
     13 P1         -1.0610   -2.0370    0.0810 p5        1 PIB      1.443800
     14 O11        -1.7520   -3.3380    0.0960 o         1 PIB     -0.839000
     15 O12        -1.6800   -0.7440    0.4610 o         1 PIB     -0.839000
     16 O13         0.1610   -2.2000    1.2150 os        1 PIB     -0.564200
     17 P3         -2.0220    1.0130   -6.4810 p5        1 PIB      1.324900
     18 O31        -2.4640    0.1790   -7.6460 o         1 PIB     -0.919833
     19 O32        -1.0480    2.1290   -6.7990 o         1 PIB     -0.919833
     20 O33        -3.0450    1.3610   -5.4410 o         1 PIB     -0.919833
     21 C7          0.7760   -1.0340    1.6350 c3        1 PIB      0.205400
     22 C8          0.4290   -0.7650    3.1240 c3        1 PIB      0.090100
     23 C9         -0.6430    0.3130    3.2470 c3        1 PIB      0.091400
     24 C10        -1.2080    0.7870    5.5490 c         1 PIB      0.638100
     25 C11        -2.0570    0.3130    6.6940 c3        1 PIB     -0.136400
     26 C12        -2.3700    1.4400    7.6540 c3        1 PIB     -0.079400
     27 C13        -3.1000    0.9350    8.8710 c3        1 PIB     -0.089100
     28 C15         3.3270   -0.0490    5.3730 c3        1 PIB     -0.136400
     29 C16         4.1250   -0.9900    6.2500 c3        1 PIB     -0.079400
     30 C17         5.3590   -0.3170    6.7910 c3        1 PIB     -0.089100
     31 O14         1.6570   -0.2650    3.7120 os        1 PIB     -0.425900
     32 O15        -1.4430    0.0800    4.4210 os        1 PIB     -0.417900
     33 O16        -0.3800    1.7060    5.5680 o         1 PIB     -0.587000
     34 O17         1.3310   -1.4540    5.6040 o         1 PIB     -0.585000
     35 HC1        -0.7820    0.0830   -1.4630 h1        1 PIB      0.067700
     36 HC2        -1.8010   -1.1560   -3.3320 h1        1 PIB      0.047700
     37 HC3        -1.2370    1.1700   -3.9890 h1        1 PIB      0.068700
     38 HC4         1.5330   -0.0610   -4.7820 h1        1 PIB      0.024700
     39 HC5         0.7130    1.8900   -2.4850 h1        1 PIB      0.047700
     40 HC6         1.9470   -0.9880   -2.5410 h1        1 PIB      0.053700
     41 HO2        -0.2070   -1.9450   -4.9570 ho        1 PIB      0.422000
     42 HO4         0.3980    2.0440   -5.7780 ho        1 PIB      0.511000
     43 HO5         2.8390    2.0530   -3.7320 ho        1 PIB      0.420000
     44 HO6         2.6240    0.5620   -0.8860 ho        1 PIB      0.389000
     45 HC71        0.4580   -0.1560    1.0050 h1        1 PIB      0.052200
     46 HC72        1.8920   -1.1620    1.5540 h1        1 PIB      0.052200
     47 HC8         0.1100   -1.7140    3.6320 h1        1 PIB      0.095700
     48 HC91       -1.3890    0.2060    2.3970 h1        1 PIB      0.122200
     49 HC92       -0.1940    1.3370    3.2660 h1        1 PIB      0.122200
     50 H111       -1.4820   -0.5000    7.2130 hc        1 PIB      0.076200
     51 H112       -3.0020   -0.1400    6.2940 hc        1 PIB      0.076200
     52 H121       -2.9940    2.2120    7.1300 hc        1 PIB      0.050700
     53 H122       -1.4130    1.9430    7.9570 hc        1 PIB      0.050700
     54 H131       -3.3340    1.7800    9.5620 hc        1 PIB      0.024700
     55 H132       -4.0590    0.4410    8.5790 hc        1 PIB      0.024700
     56 H133       -2.4780    0.1900    9.4230 hc        1 PIB      0.024700
     57 H151        3.9180    0.2400    4.4640 hc        1 PIB      0.073200
     58 H152        3.0740    0.8910    5.9310 hc        1 PIB      0.073200
     59 H161        3.4760   -1.3460    7.0940 hc        1 PIB      0.052200
     60 H162        4.4150   -1.8950    5.6540 hc        1 PIB      0.052200
     61 H171        5.9420   -1.0280    7.4250 hc        1 PIB      0.024367
     62 H172        6.0150    0.0330    5.9580 hc        1 PIB      0.024367
     63 H173        5.0850    0.5680    7.4150 hc        1 PIB      0.024367
     64 C14         2.0280   -0.6740    4.9440 c         1 PIB      0.643100
@<TRIPOS>BOND
     1    1    2 1   
     2    1    6 1   
     3    1    7 1   
     4    1   35 1   
     5    2    3 1   
     6    2    8 1   
     7    2   36 1   
     8    3    4 1   
     9    3    9 1   
    10    3   37 1   
    11    4    5 1   
    12    4   10 1   
    13    4   38 1   
    14    5    6 1   
    15    5   11 1   
    16    5   39 1   
    17    6   12 1   
    18    6   40 1   
    19    7   13 1   
    20    8   41 1   
    21    9   17 1   
    22   10   42 1   
    23   11   43 1   
    24   12   44 1   
    25   13   14 1   
    26   13   15 1   
    27   13   16 1   
    28   16   21 1   
    29   17   18 1   
    30   17   19 1   
    31   17   20 1   
    32   21   22 1   
    33   21   45 1   
    34   21   46 1   
    35   22   23 1   
    36   22   31 1   
    37   22   47 1   
    38   23   32 1   
    39   23   48 1   
    40   23   49 1   
    41   24   25 1   
    42   24   32 1   
    43   24   33 2   
    44   25   26 1   
    45   25   50 1   
    46   25   51 1   
    47   26   27 1   
    48   26   52 1   
    49   26   53 1   
    50   27   54 1   
    51   27   55 1   
    52   27   56 1   
    53   28   29 1   
    54   28   57 1   
    55   28   58 1   
    56   28   64 1   
    57   29   30 1   
    58   29   59 1   
    59   29   60 1   
    60   30   61 1   
    61   30   62 1   
    62   30   63 1   
    63   31   64 1   
    64   34   64 2   
@<TRIPOS>SUBSTRUCTURE
     1 PIB         1 TEMP              0 ****  ****    0 ROOT
