@<TRIPOS>MOLECULE
PIC
   26    26     1     0     0
SMALL
bcc


@<TRIPOS>ATOM
      1 C1          0.0940   -0.2320   -0.0840 c2        1 PIC     -0.257000
      2 C2          1.5900   -0.1670   -0.1110 ca        1 PIC      0.007000
      3 C3          2.2920   -0.2450    1.1280 ca        1 PIC     -0.113000
      4 C7          6.5740    0.1440   -1.1700 ca        1 PIC     -0.142000
      5 C8          5.8820    0.1500   -2.4090 ca        1 PIC     -0.114000
      6 C9          4.5130    0.0490   -2.4560 ca        1 PIC     -0.173000
      7 C10         3.7430   -0.0590   -1.2640 ca        1 PIC     -0.017000
      8 C11         2.3250   -0.1060   -1.2820 ca        1 PIC     -0.184000
      9 C12         8.0780    0.2830   -1.1580 c2        1 PIC      0.357000
     10 C4          3.6620   -0.2010    1.1700 ca        1 PIC     -0.157000
     11 C5          4.4310   -0.0840   -0.0210 ca        1 PIC     -0.082000
     12 C6          5.8480    0.0190   -0.0040 ca        1 PIC     -0.095000
     13 O1          8.6970    0.3950   -2.2630 o         1 PIC     -0.605000
     14 O2          8.6950    0.2900   -0.0480 o         1 PIC     -0.605000
     15 F1         -0.4630    0.6110    0.8550 f         1 PIC     -0.217000
     16 F2         -0.5070    0.1760   -1.2510 f         1 PIC     -0.217000
     17 P          -1.3820   -1.7970    0.3070 p3        1 PIC      2.529000
     18 OP1        -1.1120   -2.7800   -0.7820 o         1 PIC     -1.209000
     19 OP2        -0.9920   -2.2030    1.6900 o         1 PIC     -1.209000
     20 OP3        -2.6350   -0.9970    0.1780 o         1 PIC     -1.209000
     21 HC3         1.6880   -0.3540    2.0430 ha        1 PIC      0.146000
     22 HC8         6.4850    0.2400   -3.3250 ha        1 PIC      0.124000
     23 HC9         3.9820    0.0510   -3.4180 ha        1 PIC      0.097000
     24 HC11        1.8010   -0.0850   -2.2480 ha        1 PIC      0.125000
     25 HC4         4.1960   -0.2570    2.1300 ha        1 PIC      0.094000
     26 HC6         6.3790    0.0040    0.9600 ha        1 PIC      0.126000
@<TRIPOS>BOND
     1    1    2 1   
     2    1   15 1   
     3    1   16 1   
     4    2    3 1   
     5    2    8 1   
     6    3   10 1   
     7    3   21 1   
     8    4    5 1   
     9    4    9 1   
    10    4   12 1   
    11    5    6 1   
    12    5   22 1   
    13    6    7 1   
    14    6   23 1   
    15    7    8 1   
    16    7   11 1   
    17    8   24 1   
    18    9   13 1   
    19    9   14 1   
    20   10   11 1   
    21   10   25 1   
    22   11   12 1   
    23   12   26 1   
    24   17   18 1   
    25   17   19 1   
    26   17   20 1   
@<TRIPOS>SUBSTRUCTURE
     1 PIC         1 TEMP              0 ****  ****    0 ROOT
