@<TRIPOS>MOLECULE
PIC
   26    26     1     0     0
SMALL
bcc


@<TRIPOS>ATOM
      1 C1         -0.0030    0.5950   -2.5130 c2        1 PIC     -0.257000
      2 C2         -0.2000    0.4220   -1.0390 ca        1 PIC      0.007000
      3 C3         -1.5010    0.0700   -0.5690 ca        1 PIC     -0.113000
      4 C7          0.0710    0.0640    4.0460 ca        1 PIC     -0.142000
      5 C8          1.3810    0.3440    3.5760 ca        1 PIC     -0.114000
      6 C9          1.6390    0.4710    2.2330 ca        1 PIC     -0.173000
      7 C10         0.6010    0.3330    1.2690 ca        1 PIC     -0.017000
      8 C11         0.8290    0.5180   -0.1190 ca        1 PIC     -0.184000
      9 C12        -0.1770   -0.0430    5.5330 c2        1 PIC      0.357000
     10 C4         -1.7450   -0.1120    0.7680 ca        1 PIC     -0.157000
     11 C5         -0.7090    0.0350    1.7330 ca        1 PIC     -0.082000
     12 C6         -0.9440   -0.0940    3.1280 ca        1 PIC     -0.095000
     13 O1          0.7960    0.1120    6.3350 o         1 PIC     -0.605000
     14 O2         -1.3520   -0.2800    5.9520 o         1 PIC     -0.605000
     15 F1         -0.9710    1.3870   -3.0950 f         1 PIC     -0.217000
     16 F2          1.1620    1.2440   -2.8510 f         1 PIC     -0.217000
     17 P           0.0690   -0.7500   -4.2350 p3        1 PIC      2.529000
     18 OP1         1.2470   -1.6120   -3.9280 o         1 PIC     -1.209000
     19 OP2        -1.2760   -1.3910   -4.1390 o         1 PIC     -1.209000
     20 OP3         0.2510    0.2510   -5.3270 o         1 PIC     -1.209000
     21 HC3        -2.2910   -0.0590   -1.3250 ha        1 PIC      0.146000
     22 HC8         2.1760    0.4550    4.3280 ha        1 PIC      0.124000
     23 HC9         2.6560    0.6840    1.8730 ha        1 PIC      0.097000
     24 HC11        1.8460    0.7490   -0.4690 ha        1 PIC      0.125000
     25 HC4        -2.7510   -0.3780    1.1230 ha        1 PIC      0.094000
     26 HC6        -1.9610   -0.3210    3.4850 ha        1 PIC      0.126000
@<TRIPOS>BOND
     1    1    2 1   
     2    1   15 1   
     3    1   16 1   
     4    2    3 1   
     5    2    8 1   
     6    3   10 1   
     7    3   21 1   
     8    4    5 1   
     9    4    9 1   
    10    4   12 1   
    11    5    6 1   
    12    5   22 1   
    13    6    7 1   
    14    6   23 1   
    15    7    8 1   
    16    7   11 1   
    17    8   24 1   
    18    9   13 1   
    19    9   14 1   
    20   10   11 1   
    21   10   25 1   
    22   11   12 1   
    23   12   26 1   
    24   17   18 1   
    25   17   19 1   
    26   17   20 1   
@<TRIPOS>SUBSTRUCTURE
     1 PIC         1 TEMP              0 ****  ****    0 ROOT
