@<TRIPOS>MOLECULE
PIG
   24    23     1     0     0
SMALL
bcc


@<TRIPOS>ATOM
      1 O1         -4.6800    0.0480   -2.6460 oh        1 PIG     -0.602800
      2 C1         -3.2710    0.0650   -2.6450 c3        1 PIG      0.127400
      3 C2         -2.7810   -0.0600   -1.2470 c3        1 PIG      0.129400
      4 O2         -1.3760    0.0080   -1.2360 os        1 PIG     -0.431600
      5 C3         -0.7980   -0.0740    0.0650 c3        1 PIG      0.130400
      6 C4          0.7560    0.0890   -0.0500 c3        1 PIG      0.130400
      7 O3          1.3430   -0.0200    1.2380 os        1 PIG     -0.431600
      8 C5          2.7810    0.1280    1.2430 c3        1 PIG      0.129400
      9 C6          3.2990   -0.0980    2.6380 c3        1 PIG      0.127400
     10 O4          4.7160    0.0090    2.6420 oh        1 PIG     -0.602800
     11 HO1        -4.9680   -0.0930   -3.4590 ho        1 PIG      0.405000
     12 H11        -2.9520    0.9130   -3.0300 h1        1 PIG      0.035700
     13 H12        -2.9310   -0.6920   -3.1840 h1        1 PIG      0.035700
     14 H21        -3.0660   -0.9110   -0.8790 h1        1 PIG      0.042700
     15 H22        -3.1470    0.6680   -0.7080 h1        1 PIG      0.042700
     16 H31        -1.0060   -0.9450    0.4620 h1        1 PIG      0.041700
     17 H32        -1.1600    0.6330    0.6260 h1        1 PIG      0.041700
     18 H41         1.1100   -0.6030   -0.6240 h1        1 PIG      0.041700
     19 H42         0.9620    0.9550   -0.4260 h1        1 PIG      0.041700
     20 H51         3.1840   -0.5350    0.6280 h1        1 PIG      0.042700
     21 H52         3.0180    1.0330    0.9480 h1        1 PIG      0.042700
     22 H61         2.9150    0.5830    3.2490 h1        1 PIG      0.035700
     23 H62         3.0390   -0.9920    2.9410 h1        1 PIG      0.035700
     24 HO4         5.0140   -0.1090    3.4540 ho        1 PIG      0.405000
@<TRIPOS>BOND
     1    1    2 1   
     2    1   11 1   
     3    2    3 1   
     4    2   12 1   
     5    2   13 1   
     6    3    4 1   
     7    3   14 1   
     8    3   15 1   
     9    4    5 1   
    10    5    6 1   
    11    5   16 1   
    12    5   17 1   
    13    6    7 1   
    14    6   18 1   
    15    6   19 1   
    16    7    8 1   
    17    8    9 1   
    18    8   20 1   
    19    8   21 1   
    20    9   10 1   
    21    9   22 1   
    22    9   23 1   
    23   10   24 1   
@<TRIPOS>SUBSTRUCTURE
     1 PIG         1 TEMP              0 ****  ****    0 ROOT
