@<TRIPOS>MOLECULE
PIG
   24    23     1     0     0
SMALL
bcc


@<TRIPOS>ATOM
      1 O1          0.0030    0.8950    0.4150 oh        1 PIG     -0.599800
      2 C1          1.1470    0.1810   -0.0020 c3        1 PIG      0.131400
      3 C2          2.0800   -0.1190    1.1680 c3        1 PIG      0.087400
      4 O2          1.3750   -1.0260    2.0130 os        1 PIG     -0.437600
      5 C3          2.1120   -1.3560    3.1890 c3        1 PIG      0.128400
      6 C4          1.3310   -2.4600    3.8940 c3        1 PIG      0.128400
      7 O3          2.0560   -3.6690    3.6800 os        1 PIG     -0.437600
      8 C5          1.3490   -4.8170    4.1450 c3        1 PIG      0.087400
      9 C6          2.2690   -6.0090    3.9030 c3        1 PIG      0.131400
     10 O4          3.4240   -5.9470    4.7130 oh        1 PIG     -0.599800
     11 HO1        -0.4300    0.3600    1.0930 ho        1 PIG      0.412000
     12 H11         0.8450   -0.7760   -0.5060 h1        1 PIG      0.053700
     13 H12         1.6630    0.8560   -0.7350 h1        1 PIG      0.053700
     14 H21         2.3200    0.8180    1.7360 h1        1 PIG      0.039700
     15 H22         3.0280   -0.5950    0.8050 h1        1 PIG      0.039700
     16 H31         3.1420   -1.7070    2.9160 h1        1 PIG      0.044700
     17 H32         2.1840   -0.4480    3.8440 h1        1 PIG      0.044700
     18 H41         0.2960   -2.5490    3.4720 h1        1 PIG      0.044700
     19 H42         1.2740   -2.2570    4.9960 h1        1 PIG      0.044700
     20 H51         1.1230   -4.7030    5.2380 h1        1 PIG      0.039700
     21 H52         0.3920   -4.9330    3.5710 h1        1 PIG      0.039700
     22 H61         1.7500   -6.9570    4.2060 h1        1 PIG      0.053700
     23 H62         2.5580   -6.0570    2.8200 h1        1 PIG      0.053700
     24 HO4         3.8610   -5.1090    4.5150 ho        1 PIG      0.412000
@<TRIPOS>BOND
     1    1    2 1   
     2    1   11 1   
     3    2    3 1   
     4    2   12 1   
     5    2   13 1   
     6    3    4 1   
     7    3   14 1   
     8    3   15 1   
     9    4    5 1   
    10    5    6 1   
    11    5   16 1   
    12    5   17 1   
    13    6    7 1   
    14    6   18 1   
    15    6   19 1   
    16    7    8 1   
    17    8    9 1   
    18    8   20 1   
    19    8   21 1   
    20    9   10 1   
    21    9   22 1   
    22    9   23 1   
    23   10   24 1   
@<TRIPOS>SUBSTRUCTURE
     1 PIG         1 TEMP              0 ****  ****    0 ROOT
