@<TRIPOS>MOLECULE
PIG
   24    23     1     0     0
SMALL
bcc


@<TRIPOS>ATOM
      1 O1          0.0380    0.9210    0.4250 oh        1 PIG     -0.599800
      2 C1          1.1720    0.1940    0.0040 c3        1 PIG      0.131400
      3 C2          2.1040   -0.1210    1.1690 c3        1 PIG      0.087400
      4 O2          1.3900   -1.0200    2.0150 os        1 PIG     -0.437600
      5 C3          2.1260   -1.3620    3.1880 c3        1 PIG      0.128400
      6 C4          1.3330   -2.4580    3.8930 c3        1 PIG      0.128400
      7 O3          2.0440   -3.6760    3.6770 os        1 PIG     -0.437600
      8 C5          1.3230   -4.8150    4.1420 c3        1 PIG      0.087400
      9 C6          2.2300   -6.0180    3.8990 c3        1 PIG      0.131400
     10 O4          3.3860   -5.9700    4.7080 oh        1 PIG     -0.599800
     11 HO1        -0.4000    0.3910    1.1040 ho        1 PIG      0.412000
     12 H11         0.8560   -0.7570   -0.5020 h1        1 PIG      0.053700
     13 H12         1.6940    0.8640   -0.7300 h1        1 PIG      0.053700
     14 H21         2.3580    0.8120    1.7390 h1        1 PIG      0.039700
     15 H22         3.0440   -0.6080    0.8030 h1        1 PIG      0.039700
     16 H31         3.1500   -1.7260    2.9110 h1        1 PIG      0.044700
     17 H32         2.2110   -0.4570    3.8450 h1        1 PIG      0.044700
     18 H41         0.2960   -2.5350    3.4710 h1        1 PIG      0.044700
     19 H42         1.2790   -2.2560    4.9950 h1        1 PIG      0.044700
     20 H51         1.0990   -4.7000    5.2350 h1        1 PIG      0.039700
     21 H52         0.3660   -4.9210    3.5680 h1        1 PIG      0.039700
     22 H61         1.7000   -6.9600    4.2010 h1        1 PIG      0.053700
     23 H62         2.5180   -6.0680    2.8150 h1        1 PIG      0.053700
     24 HO4         3.8320   -5.1360    4.5110 ho        1 PIG      0.412000
@<TRIPOS>BOND
     1    1    2 1   
     2    1   11 1   
     3    2    3 1   
     4    2   12 1   
     5    2   13 1   
     6    3    4 1   
     7    3   14 1   
     8    3   15 1   
     9    4    5 1   
    10    5    6 1   
    11    5   16 1   
    12    5   17 1   
    13    6    7 1   
    14    6   18 1   
    15    6   19 1   
    16    7    8 1   
    17    8    9 1   
    18    8   20 1   
    19    8   21 1   
    20    9   10 1   
    21    9   22 1   
    22    9   23 1   
    23   10   24 1   
@<TRIPOS>SUBSTRUCTURE
     1 PIG         1 TEMP              0 ****  ****    0 ROOT
