@<TRIPOS>MOLECULE
PIG
   24    23     1     0     0
SMALL
bcc


@<TRIPOS>ATOM
      1 O1          0.0840    0.7880    4.3170 oh        1 PIG     -0.599800
      2 C1          0.8120   -0.2500    3.6960 c3        1 PIG      0.131400
      3 C2         -0.0210   -0.9630    2.6350 c3        1 PIG      0.087400
      4 O2         -0.2450   -0.0080    1.6000 os        1 PIG     -0.437600
      5 C3         -1.0660   -0.5240    0.5540 c3        1 PIG      0.128400
      6 C4         -1.0650    0.5240   -0.5550 c3        1 PIG      0.128400
      7 O3         -0.2430    0.0080   -1.6000 os        1 PIG     -0.437600
      8 C5         -0.0180    0.9630   -2.6350 c3        1 PIG      0.087400
      9 C6          0.8160    0.2500   -3.6950 c3        1 PIG      0.131400
     10 O4          0.0880   -0.7880   -4.3170 oh        1 PIG     -0.599800
     11 HO1        -0.2000    1.3900    3.6170 ho        1 PIG      0.412000
     12 H11         1.7510    0.1570    3.2360 h1        1 PIG      0.053700
     13 H12         1.0660   -0.9650    4.5220 h1        1 PIG      0.053700
     14 H21         0.5350   -1.8460    2.2240 h1        1 PIG      0.039700
     15 H22        -1.0040   -1.2980    3.0590 h1        1 PIG      0.039700
     16 H31        -0.6530   -1.4980    0.1810 h1        1 PIG      0.044700
     17 H32        -2.1060   -0.6790    0.9450 h1        1 PIG      0.044700
     18 H41        -2.1040    0.6790   -0.9470 h1        1 PIG      0.044700
     19 H42        -0.6520    1.4990   -0.1820 h1        1 PIG      0.044700
     20 H51        -1.0000    1.2990   -3.0600 h1        1 PIG      0.039700
     21 H52         0.5380    1.8460   -2.2240 h1        1 PIG      0.039700
     22 H61         1.0710    0.9650   -4.5210 h1        1 PIG      0.053700
     23 H62         1.7540   -0.1580   -3.2340 h1        1 PIG      0.053700
     24 HO4        -0.1980   -1.3890   -3.6180 ho        1 PIG      0.412000
@<TRIPOS>BOND
     1    1    2 1   
     2    1   11 1   
     3    2    3 1   
     4    2   12 1   
     5    2   13 1   
     6    3    4 1   
     7    3   14 1   
     8    3   15 1   
     9    4    5 1   
    10    5    6 1   
    11    5   16 1   
    12    5   17 1   
    13    6    7 1   
    14    6   18 1   
    15    6   19 1   
    16    7    8 1   
    17    8    9 1   
    18    8   20 1   
    19    8   21 1   
    20    9   10 1   
    21    9   22 1   
    22    9   23 1   
    23   10   24 1   
@<TRIPOS>SUBSTRUCTURE
     1 PIG         1 TEMP              0 ****  ****    0 ROOT
