@<TRIPOS>MOLECULE
PIH
   12    12     1     0     0
SMALL
bcc


@<TRIPOS>ATOM
      1 C1          1.2080    0.0010    1.4440 ca        1 PIH     -0.096000
      2 C2          1.2070   -0.0000    2.8400 ca        1 PIH     -0.134000
      3 C3          0.0000   -0.0010    3.5380 ca        1 PIH     -0.112000
      4 C4         -1.2070   -0.0010    2.8400 ca        1 PIH     -0.134000
      5 C5         -1.2080    0.0000    1.4450 ca        1 PIH     -0.096000
      6 C6         -0.0000    0.0010    0.7460 ca        1 PIH      0.022900
      7 I6         -0.0000    0.0020   -1.2750 i         1 PIH     -0.145900
      8 H1          2.1670    0.0010    0.9030 ha        1 PIH      0.144000
      9 H2          2.1620   -0.0000    3.3870 ha        1 PIH      0.137000
     10 H3          0.0000   -0.0010    4.6380 ha        1 PIH      0.135000
     11 H4         -2.1610   -0.0010    3.3870 ha        1 PIH      0.137000
     12 H5         -2.1670    0.0000    0.9030 ha        1 PIH      0.144000
@<TRIPOS>BOND
     1    1    2 ar  
     2    1    6 ar  
     3    1    8 1   
     4    2    3 ar  
     5    2    9 1   
     6    3    4 ar  
     7    3   10 1   
     8    4    5 ar  
     9    4   11 1   
    10    5    6 ar  
    11    5   12 1   
    12    6    7 1   
@<TRIPOS>SUBSTRUCTURE
     1 PIH         1 TEMP              0 ****  ****    0 ROOT
