@<TRIPOS>MOLECULE
PIL
   44    46     1     0     0
SMALL
bcc


@<TRIPOS>ATOM
      1 CL25        0.2950    0.4860    0.5320 cl        1 PIL     -0.013400
      2 C24         1.9120    0.0650    0.3180 ca        1 PIL     -0.086900
      3 C23         2.7910    0.0330    1.4270 ca        1 PIL      0.444700
      4 N22         4.0870   -0.2990    1.3280 nb        1 PIL     -0.591000
      5 C21         4.5760   -0.6200    0.1200 ca        1 PIL      0.444700
      6 C19         3.7930   -0.6210   -1.0580 ca        1 PIL     -0.086900
      7 CL20        4.4860   -1.0410   -2.5350 cl        1 PIL     -0.013400
      8 C18         2.4290   -0.2670   -0.9530 ca        1 PIL      0.000600
      9 N16         1.5750   -0.2500   -2.1350 n4        1 PIL     -0.558200
     10 C15         1.5990    1.0780   -2.9210 c         1 PIL      0.583700
     11 O17         2.0690    2.0360   -2.3310 o         1 PIL     -0.409100
     12 C14         1.0680    0.9920   -4.2740 ca        1 PIL     -0.217600
     13 C13         0.2320   -0.0330   -4.7260 ca        1 PIL     -0.074000
     14 C12        -0.2440   -0.0240   -6.0340 ca        1 PIL     -0.201000
     15 C9          0.1120    1.0080   -6.9100 ca        1 PIL      0.192100
     16 O10        -0.2890    1.1100   -8.2070 os        1 PIL     -0.271900
     17 C11        -1.1650    0.0910   -8.6990 c3        1 PIL      0.099700
     18 C2          0.9640    2.0670   -6.4500 ca        1 PIL      0.123100
     19 C1          1.4250    2.0520   -5.1410 ca        1 PIL     -0.122000
     20 O3          1.2360    3.0270   -7.3850 os        1 PIL     -0.291900
     21 C4          2.2000    4.0460   -7.0370 c3        1 PIL      0.133100
     22 C5          1.5920    5.1050   -6.1140 c3        1 PIL     -0.094400
     23 C6          1.7860    6.4530   -6.7920 c3        1 PIL     -0.079400
     24 C7          2.1250    6.1850   -8.2510 c3        1 PIL     -0.079400
     25 C8          2.5490    4.7290   -8.3660 c3        1 PIL     -0.094400
     26 H23         2.4250    0.2910    2.4420 h4        1 PIL      0.076600
     27 H21         5.6520   -0.8900    0.0810 h4        1 PIL      0.076600
     28 H16         0.6030   -0.4260   -1.8470 hn        1 PIL      0.467300
     29 H13        -0.0940   -0.8560   -4.0720 ha        1 PIL      0.123000
     30 H12        -0.9080   -0.8340   -6.3740 ha        1 PIL      0.167000
     31 H111       -2.1190    0.0820   -8.1180 h1        1 PIL      0.064700
     32 H112       -0.6630   -0.9050   -8.6650 h1        1 PIL      0.064700
     33 H113       -1.3450    0.4120   -9.7580 h1        1 PIL      0.064700
     34 H1          2.0590    2.8710   -4.7610 ha        1 PIL      0.175000
     35 H4          3.0980    3.5550   -6.5800 h1        1 PIL      0.050700
     36 H51         0.5030    4.8940   -5.9610 hc        1 PIL      0.061200
     37 H52         2.0900    5.0910   -5.1130 hc        1 PIL      0.061200
     38 H61         2.6180    7.0160   -6.2980 hc        1 PIL      0.055450
     39 H62         0.8630    7.0770   -6.7050 hc        1 PIL      0.055450
     40 H71         2.9420    6.8640   -8.6010 hc        1 PIL      0.055450
     41 H72         1.2320    6.3780   -8.8980 hc        1 PIL      0.055450
     42 H81         3.6490    4.6420   -8.5470 hc        1 PIL      0.061200
     43 H82         2.0200    4.2210   -9.2130 hc        1 PIL      0.061200
     44 H162        1.8710   -1.0010   -2.7740 hn        1 PIL      0.467300
@<TRIPOS>BOND
     1    1    2 1   
     2    2    3 ar  
     3    2    8 ar  
     4    3    4 ar  
     5    3   26 1   
     6    4    5 ar  
     7    5    6 ar  
     8    5   27 1   
     9    6    7 1   
    10    6    8 ar  
    11    8    9 1   
    12    9   10 1   
    13    9   28 1   
    14    9   44 1   
    15   10   11 2   
    16   10   12 1   
    17   12   13 ar  
    18   12   19 ar  
    19   13   14 ar  
    20   13   29 1   
    21   14   15 ar  
    22   14   30 1   
    23   15   16 1   
    24   15   18 ar  
    25   16   17 1   
    26   17   31 1   
    27   17   32 1   
    28   17   33 1   
    29   18   19 ar  
    30   18   20 1   
    31   19   34 1   
    32   20   21 1   
    33   21   22 1   
    34   21   25 1   
    35   21   35 1   
    36   22   23 1   
    37   22   36 1   
    38   22   37 1   
    39   23   24 1   
    40   23   38 1   
    41   23   39 1   
    42   24   25 1   
    43   24   40 1   
    44   24   41 1   
    45   25   42 1   
    46   25   43 1   
@<TRIPOS>SUBSTRUCTURE
     1 PIL         1 TEMP              0 ****  ****    0 ROOT
