@<TRIPOS>MOLECULE
PIL
   43    45     1     0     0
SMALL
bcc


@<TRIPOS>ATOM
      1 CL25        0.2340    1.1230    0.1000 cl        1 PIL     -0.057900
      2 C24         1.7500    0.3730    0.2150 ca        1 PIL     -0.114400
      3 C23         2.3500    0.2210    1.4790 ca        1 PIL      0.414200
      4 N22         3.5490   -0.3580    1.6610 nb        1 PIL     -0.651000
      5 C21         4.1870   -0.8250    0.5760 ca        1 PIL      0.414200
      6 C19         3.6670   -0.7440   -0.7330 ca        1 PIL     -0.114400
      7 CL20        4.5450   -1.4290   -2.0040 cl        1 PIL     -0.057900
      8 C18         2.4190   -0.1060   -0.9410 ca        1 PIL      0.103600
      9 N16         1.8370   -0.0010   -2.2130 n         1 PIL     -0.482100
     10 C15         2.3920    0.7420   -3.2630 c         1 PIL      0.685700
     11 O17         3.4740    1.3390   -3.1440 o         1 PIL     -0.563100
     12 C14         1.6020    0.7760   -4.5250 ca        1 PIL     -0.153600
     13 C13         0.8790   -0.3240   -4.9810 ca        1 PIL     -0.090000
     14 C12         0.1680   -0.2490   -6.1810 ca        1 PIL     -0.197000
     15 C9          0.1840    0.9280   -6.9320 ca        1 PIL      0.130100
     16 O10        -0.4760    1.1090   -8.1260 os        1 PIL     -0.298900
     17 C11        -1.2570    0.0090   -8.5840 c3        1 PIL      0.107700
     18 C2          0.9260    2.0510   -6.4690 ca        1 PIL      0.096100
     19 C1          1.6300    1.9650   -5.2700 ca        1 PIL     -0.125000
     20 O3          0.8470    3.1860   -7.2470 os        1 PIL     -0.309900
     21 C4          1.9520    4.1030   -7.1410 c3        1 PIL      0.136100
     22 C5          1.7110    5.1290   -6.0290 c3        1 PIL     -0.095900
     23 C6          1.6400    6.5020   -6.6800 c3        1 PIL     -0.077900
     24 C7          2.0700    6.3450   -8.1320 c3        1 PIL     -0.077900
     25 C8          1.9880    4.8650   -8.4720 c3        1 PIL     -0.095900
     26 H23         1.8440    0.5910    2.3910 h4        1 PIL      0.041600
     27 H21         5.1690   -1.3010    0.7590 h4        1 PIL      0.041600
     28 H16         0.8560   -0.1790   -2.2530 hn        1 PIL      0.327500
     29 H13         0.8720   -1.2700   -4.4180 ha        1 PIL      0.142000
     30 H12        -0.3940   -1.1270   -6.5300 ha        1 PIL      0.145000
     31 H111       -2.0570   -0.2430   -7.8470 h1        1 PIL      0.047367
     32 H112       -1.7030    0.3920   -9.5370 h1        1 PIL      0.047367
     33 H113       -0.6090   -0.8790   -8.7810 h1        1 PIL      0.047367
     34 H1          2.2180    2.8210   -4.9000 ha        1 PIL      0.165000
     35 H4          2.9030    3.5330   -6.9730 h1        1 PIL      0.057700
     36 H51         0.7600    4.8940   -5.4880 hc        1 PIL      0.058200
     37 H52         2.5470    5.0880   -5.2860 hc        1 PIL      0.058200
     38 H61         2.3000    7.2310   -6.1470 hc        1 PIL      0.044450
     39 H62         0.5940    6.8990   -6.6280 hc        1 PIL      0.044450
     40 H71         1.4140    6.9450   -8.8100 hc        1 PIL      0.044450
     41 H72         3.1180    6.7140   -8.2670 hc        1 PIL      0.044450
     42 H81         1.0590    4.6410   -9.0570 hc        1 PIL      0.058200
     43 H82         2.8640    4.5370   -9.0820 hc        1 PIL      0.058200
@<TRIPOS>BOND
     1    1    2 1   
     2    2    3 ar  
     3    2    8 ar  
     4    3    4 ar  
     5    3   26 1   
     6    4    5 ar  
     7    5    6 ar  
     8    5   27 1   
     9    6    7 1   
    10    6    8 ar  
    11    8    9 1   
    12    9   10 1   
    13    9   28 1   
    14   10   11 2   
    15   10   12 1   
    16   12   13 ar  
    17   12   19 ar  
    18   13   14 ar  
    19   13   29 1   
    20   14   15 ar  
    21   14   30 1   
    22   15   16 1   
    23   15   18 ar  
    24   16   17 1   
    25   17   31 1   
    26   17   32 1   
    27   17   33 1   
    28   18   19 ar  
    29   18   20 1   
    30   19   34 1   
    31   20   21 1   
    32   21   22 1   
    33   21   25 1   
    34   21   35 1   
    35   22   23 1   
    36   22   36 1   
    37   22   37 1   
    38   23   24 1   
    39   23   38 1   
    40   23   39 1   
    41   24   25 1   
    42   24   40 1   
    43   24   41 1   
    44   25   42 1   
    45   25   43 1   
@<TRIPOS>SUBSTRUCTURE
     1 PIL         1 TEMP              0 ****  ****    0 ROOT
