@<TRIPOS>MOLECULE
PIL
   43    45     1     0     0
SMALL
bcc


@<TRIPOS>ATOM
      1 CL25        0.7240    2.5970   -3.4210 cl        1 PIL     -0.057900
      2 C24         0.1080    1.1900   -4.1370 ca        1 PIL     -0.114400
      3 C23        -0.4080    1.2500   -5.4440 ca        1 PIL      0.414200
      4 N22        -0.9180    0.1850   -6.0860 nb        1 PIL     -0.651000
      5 C21        -0.9120   -0.9930   -5.4410 ca        1 PIL      0.414200
      6 C19        -0.4010   -1.1690   -4.1380 ca        1 PIL     -0.114400
      7 CL20       -0.3960   -2.7190   -3.4650 cl        1 PIL     -0.057900
      8 C18         0.1090   -0.0470   -3.4390 ca        1 PIL      0.103600
      9 N16         0.6450   -0.1510   -2.1470 n         1 PIL     -0.482100
     10 C15        -0.1060   -0.5110   -1.0210 c         1 PIL      0.685700
     11 O17        -1.3110   -0.8000   -1.1010 o         1 PIL     -0.563100
     12 C14         0.6280   -0.5180    0.2750 ca        1 PIL     -0.153600
     13 C13         1.9580   -0.9210    0.3760 ca        1 PIL     -0.090000
     14 C12         2.5970   -0.9280    1.6180 ca        1 PIL     -0.197000
     15 C9          1.9030   -0.5380    2.7650 ca        1 PIL      0.130100
     16 O10         2.4340   -0.5110    4.0350 os        1 PIL     -0.298900
     17 C11         3.8060   -0.8760    4.1490 c3        1 PIL      0.107700
     18 C2          0.5430   -0.1310    2.6630 ca        1 PIL      0.096100
     19 C1         -0.0840   -0.1260    1.4190 ca        1 PIL     -0.125000
     20 O3         -0.0490    0.2840    3.8360 os        1 PIL     -0.309900
     21 C4         -1.4840    0.1700    3.8960 c3        1 PIL      0.136100
     22 C5         -2.1590    1.4430    3.3750 c3        1 PIL     -0.095900
     23 C6         -2.9360    2.0540    4.5320 c3        1 PIL     -0.077900
     24 C7         -2.9320    1.0450    5.6720 c3        1 PIL     -0.077900
     25 C8         -1.8290    0.0390    5.3840 c3        1 PIL     -0.095900
     26 H23        -0.4190    2.2050   -6.0030 h4        1 PIL      0.041600
     27 H21        -1.3340   -1.8520   -5.9960 h4        1 PIL      0.041600
     28 H16         1.4840    0.3660   -1.9870 hn        1 PIL      0.327500
     29 H13         2.5170   -1.2560   -0.5110 ha        1 PIL      0.142000
     30 H12         3.6450   -1.2530    1.6820 ha        1 PIL      0.145000
     31 H111        4.0110   -0.7590    5.2440 h1        1 PIL      0.047367
     32 H112        3.9600   -1.9350    3.8290 h1        1 PIL      0.047367
     33 H113        4.4500   -0.1870    3.5510 h1        1 PIL      0.047367
     34 H1         -1.1390    0.1760    1.3220 ha        1 PIL      0.165000
     35 H4         -1.8150   -0.7340    3.3190 h1        1 PIL      0.057700
     36 H51        -1.3890    2.1570    2.9900 hc        1 PIL      0.058200
     37 H52        -2.8460    1.1910    2.5290 hc        1 PIL      0.058200
     38 H61        -3.9820    2.3010    4.2230 hc        1 PIL      0.044450
     39 H62        -2.4510    3.0080    4.8590 hc        1 PIL      0.044450
     40 H71        -3.9220    0.5260    5.7320 hc        1 PIL      0.044450
     41 H72        -2.7600    1.5520    6.6530 hc        1 PIL      0.044450
     42 H81        -2.1570   -1.0030    5.6150 hc        1 PIL      0.058200
     43 H82        -0.9190    0.2570    6.0010 hc        1 PIL      0.058200
@<TRIPOS>BOND
     1    1    2 1   
     2    2    3 ar  
     3    2    8 ar  
     4    3    4 ar  
     5    3   26 1   
     6    4    5 ar  
     7    5    6 ar  
     8    5   27 1   
     9    6    7 1   
    10    6    8 ar  
    11    8    9 1   
    12    9   10 1   
    13    9   28 1   
    14   10   11 2   
    15   10   12 1   
    16   12   13 ar  
    17   12   19 ar  
    18   13   14 ar  
    19   13   29 1   
    20   14   15 ar  
    21   14   30 1   
    22   15   16 1   
    23   15   18 ar  
    24   16   17 1   
    25   17   31 1   
    26   17   32 1   
    27   17   33 1   
    28   18   19 ar  
    29   18   20 1   
    30   19   34 1   
    31   20   21 1   
    32   21   22 1   
    33   21   25 1   
    34   21   35 1   
    35   22   23 1   
    36   22   36 1   
    37   22   37 1   
    38   23   24 1   
    39   23   38 1   
    40   23   39 1   
    41   24   25 1   
    42   24   40 1   
    43   24   41 1   
    44   25   42 1   
    45   25   43 1   
@<TRIPOS>SUBSTRUCTURE
     1 PIL         1 TEMP              0 ****  ****    0 ROOT
