@<TRIPOS>MOLECULE
PIL
   43    45     1     0     0
SMALL
bcc


@<TRIPOS>ATOM
      1 Cl25        0.2580    1.1380    0.1110 cl        1 PIL     -0.057900
      2 C24         1.7680    0.3770    0.2170 ca        1 PIL     -0.114400
      3 C23         2.3750    0.2210    1.4770 ca        1 PIL      0.414200
      4 N22         3.5710   -0.3670    1.6520 nb        1 PIL     -0.651000
      5 C21         4.1970   -0.8410    0.5630 ca        1 PIL      0.414200
      6 C19         3.6700   -0.7560   -0.7430 ca        1 PIL     -0.114400
      7 Cl20        4.5340   -1.4490   -2.0190 cl        1 PIL     -0.057900
      8 C18         2.4260   -0.1090   -0.9430 ca        1 PIL      0.103600
      9 N16         1.8360    0.0000   -2.2110 ns        1 PIL     -0.482100
     10 C15         2.3900    0.7380   -3.2660 c         1 PIL      0.685700
     11 O17         3.4780    1.3260   -3.1540 o         1 PIL     -0.563100
     12 C14         1.5920    0.7770   -4.5220 ca        1 PIL     -0.153600
     13 C13         0.8560   -0.3170   -4.9730 ca        1 PIL     -0.090000
     14 C12         0.1390   -0.2370   -6.1680 ca        1 PIL     -0.197000
     15 C9          0.1600    0.9390   -6.9210 ca        1 PIL      0.130100
     16 O10        -0.5060    1.1240   -8.1100 os        1 PIL     -0.298900
     17 C11        -1.3000    0.0300   -8.5620 c3        1 PIL      0.107700
     18 C2          0.9160    2.0550   -6.4640 ca        1 PIL      0.096100
     19 C1          1.6260    1.9650   -5.2690 ca        1 PIL     -0.125000
     20 O3          0.8410    3.1900   -7.2430 os        1 PIL     -0.309900
     21 C4          1.9560    4.0960   -7.1470 c3        1 PIL      0.136100
     22 C5          1.7340    5.1270   -6.0350 c3        1 PIL     -0.095900
     23 C6          1.6720    6.4990   -6.6890 c3        1 PIL     -0.077900
     24 C7          2.0900    6.3340   -8.1430 c3        1 PIL     -0.077900
     25 C8          1.9900    4.8550   -8.4790 c3        1 PIL     -0.095900
     26 H23         1.8780    0.5950    2.3920 h4        1 PIL      0.041600
     27 H21         5.1770   -1.3240    0.7390 h4        1 PIL      0.041600
     28 H16         0.8530   -0.1690   -2.2450 hn        1 PIL      0.327500
     29 H13         0.8450   -1.2620   -4.4080 ha        1 PIL      0.142000
     30 H12        -0.4330   -1.1110   -6.5110 ha        1 PIL      0.145000
     31 H111       -1.7500    0.4160   -9.5120 h1        1 PIL      0.047367
     32 H112       -0.6610   -0.8640   -8.7620 h1        1 PIL      0.047367
     33 H113       -2.0970   -0.2130   -7.8180 h1        1 PIL      0.047367
     34 H1          2.2240    2.8160   -4.9050 ha        1 PIL      0.165000
     35 H4          2.9030    3.5170   -6.9840 h1        1 PIL      0.057700
     36 H51         0.7840    4.9030   -5.4870 hc        1 PIL      0.058200
     37 H52         2.5740    5.0790   -5.2980 hc        1 PIL      0.058200
     38 H61         0.6310    6.9070   -6.6300 hc        1 PIL      0.044450
     39 H62         2.3430    7.2220   -6.1620 hc        1 PIL      0.044450
     40 H71         1.4350    6.9400   -8.8180 hc        1 PIL      0.044450
     41 H72         3.1400    6.6930   -8.2870 hc        1 PIL      0.044450
     42 H81         1.0550    4.6390   -9.0580 hc        1 PIL      0.058200
     43 H82         2.8580    4.5170   -9.0950 hc        1 PIL      0.058200
@<TRIPOS>BOND
     1    1    2 1   
     2    2    3 ar  
     3    2    8 ar  
     4    3    4 ar  
     5    3   26 1   
     6    4    5 ar  
     7    5    6 ar  
     8    5   27 1   
     9    6    7 1   
    10    6    8 ar  
    11    8    9 1   
    12    9   10 1   
    13    9   28 1   
    14   10   11 2   
    15   10   12 1   
    16   12   13 ar  
    17   12   19 ar  
    18   13   14 ar  
    19   13   29 1   
    20   14   15 ar  
    21   14   30 1   
    22   15   16 1   
    23   15   18 ar  
    24   16   17 1   
    25   17   31 1   
    26   17   32 1   
    27   17   33 1   
    28   18   19 ar  
    29   18   20 1   
    30   19   34 1   
    31   20   21 1   
    32   21   22 1   
    33   21   25 1   
    34   21   35 1   
    35   22   23 1   
    36   22   36 1   
    37   22   37 1   
    38   23   24 1   
    39   23   38 1   
    40   23   39 1   
    41   24   25 1   
    42   24   40 1   
    43   24   41 1   
    44   25   42 1   
    45   25   43 1   
@<TRIPOS>SUBSTRUCTURE
     1 PIL         1 TEMP              0 ****  ****    0 ROOT
