@<TRIPOS>MOLECULE
PIM
   19    20     1     0     0
SMALL
bcc


@<TRIPOS>ATOM
      1 N1         -1.0320    0.3090    1.8140 na        1 PIM     -0.311900
      2 C2         -0.5670    0.1970    3.1250 cc        1 PIM      0.392400
      3 N3          0.7350   -0.1680    3.1610 nd        1 PIM     -0.667000
      4 C4          1.1310   -0.2910    1.8350 cd        1 PIM      0.313200
      5 C5          0.0470    0.0020    0.9700 cc        1 PIM     -0.171600
      6 C6          0.0000    0.0040   -0.4750 ca        1 PIM     -0.004000
      7 C7          1.1940    0.1630   -1.1980 ca        1 PIM     -0.123500
      8 C8          1.1770    0.1590   -2.5900 ca        1 PIM     -0.124000
      9 C9         -0.0260   -0.0000   -3.2780 ca        1 PIM     -0.129000
     10 C10        -1.2150   -0.1590   -2.5670 ca        1 PIM     -0.124000
     11 C11        -1.2050   -0.1590   -1.1730 ca        1 PIM     -0.123500
     12 HN1        -1.9330    0.5760    1.5200 hn        1 PIM      0.301700
     13 H2         -1.2030    0.3840    3.9970 h5        1 PIM      0.062100
     14 H4          2.1440   -0.5850    1.5630 h4        1 PIM      0.043100
     15 H7          2.1430    0.2930   -0.6570 ha        1 PIM      0.131500
     16 H8          2.1170    0.2830   -3.1480 ha        1 PIM      0.134000
     17 H9         -0.0370   -0.0020   -4.3780 ha        1 PIM      0.134000
     18 H10        -2.1650   -0.2890   -3.1060 ha        1 PIM      0.134000
     19 H11        -2.1510   -0.3020   -0.6310 ha        1 PIM      0.131500
@<TRIPOS>BOND
     1    1    2 1   
     2    1    5 1   
     3    1   12 1   
     4    2    3 2   
     5    2   13 1   
     6    3    4 1   
     7    4    5 2   
     8    4   14 1   
     9    5    6 1   
    10    6    7 ar  
    11    6   11 ar  
    12    7    8 ar  
    13    7   15 1   
    14    8    9 ar  
    15    8   16 1   
    16    9   10 ar  
    17    9   17 1   
    18   10   11 ar  
    19   10   18 1   
    20   11   19 1   
@<TRIPOS>SUBSTRUCTURE
     1 PIM         1 TEMP              0 ****  ****    0 ROOT
