@<TRIPOS>MOLECULE
PIM
   19    20     1     0     0
SMALL
bcc


@<TRIPOS>ATOM
      1 N1         -0.0140    0.1820    0.0130 na        1 PIM     -0.311900
      2 C2          1.3780    0.0770   -0.0010 cc        1 PIM      0.392400
      3 N3          1.8700   -0.1720    1.2340 nd        1 PIM     -0.667000
      4 C4          0.7660   -0.2370    2.0750 cd        1 PIM      0.313200
      5 C5         -0.4250   -0.0200    1.3400 cc        1 PIM     -0.171600
      6 C6         -1.7960    0.0000    1.7980 ca        1 PIM     -0.004000
      7 C7         -2.1310   -0.6700    2.9860 ca        1 PIM     -0.123500
      8 C8         -3.4420   -0.6580    3.4540 ca        1 PIM     -0.124000
      9 C9         -4.4350    0.0180    2.7440 ca        1 PIM     -0.129000
     10 C10        -4.1100    0.6860    1.5650 ca        1 PIM     -0.124000
     11 C11        -2.8000    0.6810    1.0920 ca        1 PIM     -0.123500
     12 HN1        -0.6090    0.3420   -0.7550 hn        1 PIM      0.301700
     13 H2          1.9710    0.1900   -0.9150 h5        1 PIM      0.062100
     14 H4          0.8690   -0.4220    3.1440 h4        1 PIM      0.043100
     15 H7         -1.3490   -1.2070    3.5450 ha        1 PIM      0.131500
     16 H8         -3.6940   -1.1850    4.3860 ha        1 PIM      0.134000
     17 H9         -5.4710    0.0240    3.1150 ha        1 PIM      0.134000
     18 H10        -4.8900    1.2230    1.0050 ha        1 PIM      0.134000
     19 H11        -2.5600    1.2270    0.1680 ha        1 PIM      0.131500
@<TRIPOS>BOND
     1    1    2 1   
     2    1    5 1   
     3    1   12 1   
     4    2    3 2   
     5    2   13 1   
     6    3    4 1   
     7    4    5 2   
     8    4   14 1   
     9    5    6 1   
    10    6    7 ar  
    11    6   11 ar  
    12    7    8 ar  
    13    7   15 1   
    14    8    9 ar  
    15    8   16 1   
    16    9   10 ar  
    17    9   17 1   
    18   10   11 ar  
    19   10   18 1   
    20   11   19 1   
@<TRIPOS>SUBSTRUCTURE
     1 PIM         1 TEMP              0 ****  ****    0 ROOT
