@<TRIPOS>MOLECULE
PIN
   34    34     1     0     0
SMALL
bcc


@<TRIPOS>ATOM
      1 C1          0.0320   -0.4730    0.1270 c3        1 PIN     -0.295600
      2 C2          1.5300   -0.5000    0.3400 c3        1 PIN      0.208800
      3 N1          1.9760   -0.1790    1.6950 n3        1 PIN     -0.727600
      4 C3          3.4270   -0.0800    1.7620 c3        1 PIN      0.140300
      5 C4          1.4470   -1.0810    2.7070 c3        1 PIN      0.140300
      6 C1'         3.8910   -3.0540    3.7120 c3        1 PIN     -0.091100
      7 N1'         3.4250   -0.6160    4.2570 n3        1 PIN     -0.682600
      8 C3'         1.9890   -0.8020    4.1260 c3        1 PIN      0.167300
      9 C4'         3.9420    0.2180    3.1860 c3        1 PIN      0.167300
     10 S1         -0.4350   -0.4960   -1.5860 s6        1 PIN      1.419800
     11 S1'         4.1330   -2.2410    6.3250 s6        1 PIN      1.417800
     12 O1         -0.3510   -1.8540   -1.9880 o         1 PIN     -0.757533
     13 O2          0.4770    0.3490   -2.2690 o         1 PIN     -0.757533
     14 O3         -1.7660    0.0020   -1.5880 o         1 PIN     -0.757533
     15 O1'         4.9150   -3.4250    6.3850 o         1 PIN     -0.749533
     16 O2'         4.7440   -1.1670    7.0070 o         1 PIN     -0.749533
     17 O3'         2.7750   -2.4550    6.6480 o         1 PIN     -0.749533
     18 H11         1.9120   -1.5160    0.0190 h1        1 PIN      0.033200
     19 H12        -0.4380   -1.3500    0.6340 h1        1 PIN      0.072200
     20 H21        -0.4050    0.4420    0.5980 h1        1 PIN      0.072200
     21 H22         1.9930    0.2700   -0.3460 h1        1 PIN      0.033200
     22 H31         3.7420    0.7670    1.0910 h1        1 PIN      0.022200
     23 H32         3.9310   -1.0170    1.3820 h1        1 PIN      0.022200
     24 H41         1.6510   -2.1610    2.4460 h1        1 PIN      0.022200
     25 H42         0.3310   -0.9420    2.7280 h1        1 PIN      0.022200
     26 H1'1        3.9900   -2.8600    2.6160 hc        1 PIN      0.030033
     27 H1'2        2.8520   -3.4130    3.9120 hc        1 PIN      0.030033
     28 H2'1        4.6060   -3.8640    3.9990 hc        1 PIN      0.030033
     29 H2'2        5.2800   -1.5630    4.3570 h2        1 PIN      0.056700
     30 H3'1        1.5210    0.1560    4.4950 h1        1 PIN      0.048200
     31 H3'2        1.6580   -1.6380    4.8040 h1        1 PIN      0.048200
     32 H4'1        3.6530    1.2760    3.4490 h1        1 PIN      0.048200
     33 H4'2        5.0640    0.1630    3.1590 h1        1 PIN      0.048200
     34 C2'         4.1950   -1.8160    4.5320 c3        1 PIN      0.014300
@<TRIPOS>BOND
     1    1    2 1   
     2    1   10 1   
     3    1   19 1   
     4    1   20 1   
     5    2    3 1   
     6    2   18 1   
     7    2   21 1   
     8    3    4 1   
     9    3    5 1   
    10    4    9 1   
    11    4   22 1   
    12    4   23 1   
    13    5    8 1   
    14    5   24 1   
    15    5   25 1   
    16    6   26 1   
    17    6   27 1   
    18    6   28 1   
    19    6   34 1   
    20    7    8 1   
    21    7    9 1   
    22    7   34 1   
    23    8   30 1   
    24    8   31 1   
    25    9   32 1   
    26    9   33 1   
    27   10   12 1   
    28   10   13 1   
    29   10   14 1   
    30   11   15 1   
    31   11   16 1   
    32   11   17 1   
    33   11   34 1   
    34   29   34 1   
@<TRIPOS>SUBSTRUCTURE
     1 PIN         1 TEMP              0 ****  ****    0 ROOT
