@<TRIPOS>MOLECULE
PIN
   34    33     1     0     0
SMALL
bcc


@<TRIPOS>ATOM
      1 C1         70.4980  -10.7620  129.5060 c2        1 PIN     -0.364000
      2 C2         71.7420  -10.2450  129.5090 c2        1 PIN      0.070000
      3 N1         72.8580  -10.7280  130.1880 nh        1 PIN     -0.644400
      4 C3         74.1430  -10.3990  129.5980 c3        1 PIN      0.201300
      5 C4         72.7580  -12.0420  130.7920 c3        1 PIN      0.201300
      6 C1'        76.5280  -14.2430  131.5410 c3        1 PIN     -0.065100
      7 N1'        75.2400  -12.2510  130.8440 n3        1 PIN     -0.693600
      8 C3'        74.0070  -12.4600  131.5930 c3        1 PIN      0.150300
      9 C4'        75.3530  -10.8550  130.4390 c3        1 PIN      0.150300
     10 S1       -415.2430   62.0090 -742.7560 s6        1 PIN      1.447800
     11 S1'        76.7200  -12.1580  133.2770 s6        1 PIN      1.403800
     12 O1       -414.9870   60.8000 -743.4520 o         1 PIN     -0.760200
     13 O2       -414.7280   63.1640 -743.3960 o         1 PIN     -0.760200
     14 O3       -416.5800   62.1450 -742.3060 o         1 PIN     -0.760200
     15 O1'        78.0250  -12.6220  133.5490 o         1 PIN     -0.743533
     16 O2'        76.6150  -10.7520  133.1930 o         1 PIN     -0.743533
     17 O3'        75.7080  -12.7660  134.0490 o         1 PIN     -0.743533
     18 H11        70.2270  -11.7050  129.9900 ha        1 PIN      0.107000
     19 H12        69.6780  -10.2290  129.0160 ha        1 PIN      0.107000
     20 H21      -414.5620   61.9090 -741.6920 hs        1 PIN     -0.167200
     21 H22        71.9380   -9.2900  128.9790 h4        1 PIN      0.116000
     22 H31        74.2290  -10.8480  128.5660 h1        1 PIN      0.024450
     23 H32        74.2020   -9.2790  129.4920 h1        1 PIN      0.024450
     24 H41        72.5460  -12.8230  130.0040 h1        1 PIN      0.024450
     25 H42        71.8850  -12.0280  131.5040 h1        1 PIN      0.024450
     26 H1'1       76.4040  -14.6680  130.5170 hc        1 PIN      0.030033
     27 H1'2       75.7510  -14.6900  132.2080 hc        1 PIN      0.030033
     28 H2'1       77.5370  -14.5320  131.9290 hc        1 PIN      0.030033
     29 H2'2       77.3140  -12.3410  130.9610 h2        1 PIN      0.063700
     30 H3'1       74.0080  -11.9090  132.5800 h1        1 PIN      0.058450
     31 H3'2       73.9180  -13.5580  131.8190 h1        1 PIN      0.058450
     32 H4'1       75.4710  -10.1610  131.3240 h1        1 PIN      0.058450
     33 H4'2       76.2660  -10.7490  129.7900 h1        1 PIN      0.058450
     34 C2'        76.4310  -12.7270  131.5480 c3        1 PIN      0.002300
@<TRIPOS>BOND
     1    1    2 2   
     2    1   18 1   
     3    1   19 1   
     4    2    3 1   
     5    2   21 1   
     6    3    4 1   
     7    3    5 1   
     8    4    9 1   
     9    4   22 1   
    10    4   23 1   
    11    5    8 1   
    12    5   24 1   
    13    5   25 1   
    14    6   26 1   
    15    6   27 1   
    16    6   28 1   
    17    6   34 1   
    18    7    8 1   
    19    7    9 1   
    20    7   34 1   
    21    8   30 1   
    22    8   31 1   
    23    9   32 1   
    24    9   33 1   
    25   10   12 1   
    26   10   13 1   
    27   10   14 1   
    28   10   20 1   
    29   11   15 1   
    30   11   16 1   
    31   11   17 1   
    32   11   34 1   
    33   29   34 1   
@<TRIPOS>SUBSTRUCTURE
     1 PIN         1 TEMP              0 ****  ****    0 ROOT
