@<TRIPOS>MOLECULE
PIN
   34    32     1     0     0
SMALL
bcc


@<TRIPOS>ATOM
      1 C1       -207.7790  326.7590 -694.2760 c3        1 PIN     -0.858000
      2 C2       -208.3260  325.5000 -693.6500 c3        1 PIN     -0.075000
      3 N1       -209.5720  324.9610 -694.1150 n2        1 PIN     -0.171000
      4 C3       -210.1800  325.4370 -695.1450 c2        1 PIN     -0.190000
      5 C4        166.3680 -258.3090  551.0970 c3        1 PIN     -0.213000
      6 C1'       170.3060 -259.3270  552.9120 c3        1 PIN     -0.831000
      7 N1'       167.8040 -259.0730  552.9780 n3        1 PIN     -0.297000
      8 C3'       167.7190 -258.8390  551.5500 c3        1 PIN     -0.080000
      9 C4'      -211.3530  324.9280 -695.7790 c1        1 PIN      0.000000
     10 S1       -206.2920  327.3210 -693.4520 s6        1 PIN      2.861000
     11 S1'       171.6530 -260.3140  553.5400 s6        1 PIN      2.856000
     12 O1       -205.3520  326.2870 -693.6590 o         1 PIN     -1.072000
     13 O2       -206.6730  327.4910 -692.1020 o         1 PIN     -1.072000
     14 O3       -205.9810  328.5280 -694.1210 o         1 PIN     -1.072000
     15 O1'       171.4540 -260.3790  554.9390 o         1 PIN     -1.075000
     16 O2'       171.5200 -261.5640  552.8880 o         1 PIN     -1.075000
     17 O3'       172.8080 -259.5900  553.1560 o         1 PIN     -1.075000
     18 H11       166.4050 -258.1060  550.0000 hc        1 PIN      0.064667
     19 H12      -208.5290  327.5830 -694.2270 h1        1 PIN      0.104500
     20 H21      -207.5370  326.5890 -695.3520 h1        1 PIN      0.104500
     21 H22      -208.4720  325.6830 -692.5420 h1        1 PIN      0.121500
     22 H31      -207.5540  324.6790 -693.7570 h1        1 PIN      0.121500
     23 H32      -209.7930  326.3000 -695.7560 h4        1 PIN      0.150000
     24 H41       165.5580 -259.0530  551.2920 hc        1 PIN      0.064667
     25 H42       166.1100 -257.3610  551.6260 hc        1 PIN      0.064667
     26 H1'1      168.5140 -258.0800  551.2960 h1        1 PIN      0.070500
     27 H1'2      170.3570 -259.3370  551.7970 h1        1 PIN      0.107000
     28 H2'1      170.4480 -258.2700  553.2380 h1        1 PIN      0.107000
     29 H2'2      168.9680 -259.8470  554.5140 h1        1 PIN      0.078500
     30 H3'1      168.8820 -260.9230  553.0410 h1        1 PIN      0.078500
     31 H3'2      167.9520 -259.7700  550.9510 h1        1 PIN      0.070500
     32 H4'1      166.9760 -259.5510  553.2880 hn        1 PIN      0.127000
     33 H4'2     -212.3160  325.1090 -695.2770 ha        1 PIN      0.048000
     34 C2'       168.9680 -259.8460  553.3840 c3        1 PIN     -0.042000
@<TRIPOS>BOND
     1    1    2 1   
     2    1   10 1   
     3    1   19 1   
     4    1   20 1   
     5    2    3 1   
     6    2   21 1   
     7    2   22 1   
     8    3    4 1   
     9    4    9 1   
    10    4   23 1   
    11    5    8 1   
    12    5   18 1   
    13    5   24 1   
    14    5   25 1   
    15    6   11 1   
    16    6   27 1   
    17    6   28 1   
    18    6   34 1   
    19    7    8 1   
    20    7   32 1   
    21    7   34 1   
    22    8   26 1   
    23    8   31 1   
    24    9   33 1   
    25   10   12 1   
    26   10   13 1   
    27   10   14 1   
    28   11   15 1   
    29   11   16 1   
    30   11   17 1   
    31   29   34 1   
    32   30   34 1   
@<TRIPOS>SUBSTRUCTURE
     1 PIN         1 TEMP              0 ****  ****    0 ROOT
