@<TRIPOS>MOLECULE
PIN
   34    34     1     0     0
SMALL
bcc


@<TRIPOS>ATOM
      1 C1          0.4400    0.3210    3.6890 c3        1 PIN     -0.294600
      2 C2         -0.7320   -0.1390    2.8510 c3        1 PIN      0.207800
      3 N1         -0.6990    0.2600    1.4440 n3        1 PIN     -0.728600
      4 C3         -1.9010   -0.1790    0.7490 c3        1 PIN      0.169800
      5 C4          0.5080   -0.1650    0.7530 c3        1 PIN      0.169800
      6 C1'         0.4400   -0.3210   -3.6890 c3        1 PIN     -0.294600
      7 N1'        -0.6990   -0.2610   -1.4440 n3        1 PIN     -0.728600
      8 C3'         0.5080    0.1650   -0.7530 c3        1 PIN      0.169800
      9 C4'        -1.9010    0.1770   -0.7490 c3        1 PIN      0.169800
     10 S1          0.1920    0.0510    5.4290 s6        1 PIN      1.421800
     11 S1'         0.1920   -0.0510   -5.4290 s6        1 PIN      1.421800
     12 O1          0.4200   -1.3330    5.6340 o         1 PIN     -0.755533
     13 O2         -1.1390    0.4510    5.7100 o         1 PIN     -0.755533
     14 O3          1.1680    0.8760    6.0470 o         1 PIN     -0.755533
     15 O1'        -1.1380   -0.4530   -5.7100 o         1 PIN     -0.755533
     16 O2'         0.4180    1.3340   -5.6330 o         1 PIN     -0.755533
     17 O3'         1.1700   -0.8740   -6.0470 o         1 PIN     -0.755533
     18 H11         0.6280    1.4090    3.5220 h1        1 PIN      0.070700
     19 H12         1.3670   -0.2190    3.3790 h1        1 PIN      0.070700
     20 H21        -0.8100   -1.2640    2.9490 h1        1 PIN      0.036200
     21 H22        -1.6720    0.3080    3.2910 h1        1 PIN      0.036200
     22 H31        -2.0630   -1.2920    0.8540 h1        1 PIN      0.026450
     23 H32        -2.7800    0.3390    1.2260 h1        1 PIN      0.026450
     24 H41         1.3740    0.3800    1.2220 h1        1 PIN      0.026450
     25 H42         0.6900   -1.2720    0.8780 h1        1 PIN      0.026450
     26 H1'1        1.3670    0.2210   -3.3790 h1        1 PIN      0.070700
     27 H1'2        0.6300   -1.4090   -3.5220 h1        1 PIN      0.070700
     28 H2'1       -1.6720   -0.3110   -3.2900 h1        1 PIN      0.036200
     29 H2'2       -0.8120    1.2630   -2.9490 h1        1 PIN      0.036200
     30 H3'1        1.3750   -0.3780   -1.2220 h1        1 PIN      0.026450
     31 H3'2        0.6890    1.2730   -0.8780 h1        1 PIN      0.026450
     32 H4'1       -2.7790   -0.3420   -1.2260 h1        1 PIN      0.026450
     33 H4'2       -2.0650    1.2900   -0.8540 h1        1 PIN      0.026450
     34 C2'        -0.7320    0.1380   -2.8510 c3        1 PIN      0.207800
@<TRIPOS>BOND
     1    1    2 1   
     2    1   10 1   
     3    1   18 1   
     4    1   19 1   
     5    2    3 1   
     6    2   20 1   
     7    2   21 1   
     8    3    4 1   
     9    3    5 1   
    10    4    9 1   
    11    4   22 1   
    12    4   23 1   
    13    5    8 1   
    14    5   24 1   
    15    5   25 1   
    16    6   11 1   
    17    6   26 1   
    18    6   27 1   
    19    6   34 1   
    20    7    8 1   
    21    7    9 1   
    22    7   34 1   
    23    8   30 1   
    24    8   31 1   
    25    9   32 1   
    26    9   33 1   
    27   10   12 1   
    28   10   13 1   
    29   10   14 1   
    30   11   15 1   
    31   11   16 1   
    32   11   17 1   
    33   28   34 1   
    34   29   34 1   
@<TRIPOS>SUBSTRUCTURE
     1 PIN         1 TEMP              0 ****  ****    0 ROOT
