@<TRIPOS>MOLECULE
PIP
   17    17     1     0     0
SMALL
bcc


@<TRIPOS>ATOM
      1 N1          0.0390   -0.1030   -0.0990 n3        1 PIP     -0.819200
      2 C2          1.4770    0.0480    0.0010 c3        1 PIP      0.163800
      3 C3          1.9900   -0.0110    1.4390 c3        1 PIP     -0.077400
      4 C4          1.4920   -1.2550    2.1430 c3        1 PIP     -0.078400
      5 C5         -0.0160   -1.3540    2.0490 c3        1 PIP     -0.077400
      6 C6         -0.4820   -1.2640    0.5970 c3        1 PIP      0.163800
      7 HN1        -0.2320   -0.1370   -1.0650 hn        1 PIP      0.359800
      8 H21         1.7370    1.0520   -0.4400 h1        1 PIP      0.025200
      9 H22         2.0270   -0.7380   -0.5980 h1        1 PIP      0.025200
     10 H31         3.1100   -0.0010    1.4190 hc        1 PIP      0.046200
     11 H32         1.6490    0.8990    1.9980 hc        1 PIP      0.046200
     12 H41         1.8040   -1.2330    3.2190 hc        1 PIP      0.038700
     13 H42         1.9580   -2.1630    1.6760 hc        1 PIP      0.038700
     14 H51        -0.3660   -2.3290    2.4760 hc        1 PIP      0.046200
     15 H52        -0.4850   -0.5300    2.6470 hc        1 PIP      0.046200
     16 H61        -1.6060   -1.1860    0.5760 h1        1 PIP      0.025200
     17 H62        -0.1990   -2.2290    0.0790 h1        1 PIP      0.025200
@<TRIPOS>BOND
     1    1    2 1   
     2    1    6 1   
     3    1    7 1   
     4    2    3 1   
     5    2    8 1   
     6    2    9 1   
     7    3    4 1   
     8    3   10 1   
     9    3   11 1   
    10    4    5 1   
    11    4   12 1   
    12    4   13 1   
    13    5    6 1   
    14    5   14 1   
    15    5   15 1   
    16    6   16 1   
    17    6   17 1   
@<TRIPOS>SUBSTRUCTURE
     1 PIP         1 TEMP              0 ****  ****    0 ROOT
