@<TRIPOS>MOLECULE
PIP
   17    17     1     0     0
SMALL
bcc


@<TRIPOS>ATOM
      1 N1          0.0350   -0.0980   -0.0950 n7        1 PIP     -0.819200
      2 C2          1.4740    0.0530    0.0020 c3        1 PIP      0.163800
      3 C3          1.9910   -0.0120    1.4380 c3        1 PIP     -0.077400
      4 C4          1.4950   -1.2590    2.1390 c3        1 PIP     -0.078400
      5 C5         -0.0130   -1.3580    2.0500 c3        1 PIP     -0.077400
      6 C6         -0.4840   -1.2620    0.5990 c3        1 PIP      0.163800
      7 HN1        -0.2390   -0.1280   -1.0590 hn        1 PIP      0.359800
      8 H21         1.7320    1.0580   -0.4360 h1        1 PIP      0.025200
      9 H22         2.0220   -0.7310   -0.6020 h1        1 PIP      0.025200
     10 H31         3.1110   -0.0020    1.4150 hc        1 PIP      0.046200
     11 H32         1.6520    0.8960    2.0020 hc        1 PIP      0.046200
     12 H41         1.9590   -2.1650    1.6670 hc        1 PIP      0.038700
     13 H42         1.8110   -1.2410    3.2140 hc        1 PIP      0.038700
     14 H51        -0.4800   -0.5350    2.6520 hc        1 PIP      0.046200
     15 H52        -0.3620   -2.3340    2.4740 hc        1 PIP      0.046200
     16 H61        -1.6080   -1.1840    0.5820 h1        1 PIP      0.025200
     17 H62        -0.2020   -2.2240    0.0760 h1        1 PIP      0.025200
@<TRIPOS>BOND
     1    1    2 1   
     2    1    6 1   
     3    1    7 1   
     4    2    3 1   
     5    2    8 1   
     6    2    9 1   
     7    3    4 1   
     8    3   10 1   
     9    3   11 1   
    10    4    5 1   
    11    4   12 1   
    12    4   13 1   
    13    5    6 1   
    14    5   14 1   
    15    5   15 1   
    16    6   16 1   
    17    6   17 1   
@<TRIPOS>SUBSTRUCTURE
     1 PIP         1 TEMP              0 ****  ****    0 ROOT
