@<TRIPOS>MOLECULE
PIP
   17    17     1     0     0
SMALL
bcc


@<TRIPOS>ATOM
      1 N1          0.0000    0.1570    1.4210 n3        1 PIP     -0.819200
      2 C2         -1.2160   -0.2240    0.7290 c3        1 PIP      0.163800
      3 C3         -1.2450    0.2280   -0.7310 c3        1 PIP     -0.077400
      4 C4         -0.0000   -0.2240   -1.4640 c3        1 PIP     -0.078400
      5 C5          1.2450    0.2280   -0.7310 c3        1 PIP     -0.077400
      6 C6          1.2160   -0.2240    0.7290 c3        1 PIP      0.163800
      7 HN1         0.0000   -0.2310    2.3450 hn        1 PIP      0.359800
      8 H21        -2.0740    0.2560    1.2780 h1        1 PIP      0.025200
      9 H22        -1.3820   -1.3420    0.7520 h1        1 PIP      0.025200
     10 H31        -1.3240    1.3450   -0.7780 hc        1 PIP      0.046200
     11 H32        -2.1580   -0.2010   -1.2180 hc        1 PIP      0.046200
     12 H41        -0.0000   -1.3430   -1.5500 hc        1 PIP      0.038700
     13 H42        -0.0000    0.1930   -2.5040 hc        1 PIP      0.038700
     14 H51         2.1570   -0.2010   -1.2190 hc        1 PIP      0.046200
     15 H52         1.3240    1.3450   -0.7780 hc        1 PIP      0.046200
     16 H61         2.0750    0.2560    1.2780 h1        1 PIP      0.025200
     17 H62         1.3820   -1.3420    0.7510 h1        1 PIP      0.025200
@<TRIPOS>BOND
     1    1    2 1   
     2    1    6 1   
     3    1    7 1   
     4    2    3 1   
     5    2    8 1   
     6    2    9 1   
     7    3    4 1   
     8    3   10 1   
     9    3   11 1   
    10    4    5 1   
    11    4   12 1   
    12    4   13 1   
    13    5    6 1   
    14    5   14 1   
    15    5   15 1   
    16    6   16 1   
    17    6   17 1   
@<TRIPOS>SUBSTRUCTURE
     1 PIP         1 TEMP              0 ****  ****    0 ROOT
