@<TRIPOS>MOLECULE
PIP
   17    17     1     0     0
SMALL
bcc


@<TRIPOS>ATOM
      1 N1          0.0370   -0.1000   -0.0970 n3        1 PIP     -0.819200
      2 C2          1.4760    0.0510    0.0020 c3        1 PIP      0.163800
      3 C3          1.9900   -0.0110    1.4390 c3        1 PIP     -0.077400
      4 C4          1.4930   -1.2570    2.1410 c3        1 PIP     -0.078400
      5 C5         -0.0150   -1.3560    2.0490 c3        1 PIP     -0.077400
      6 C6         -0.4830   -1.2620    0.5970 c3        1 PIP      0.163800
      7 HN1        -0.2350   -0.1320   -1.0620 hn        1 PIP      0.359800
      8 H21         2.0250   -0.7340   -0.6000 h1        1 PIP      0.025200
      9 H22         1.7340    1.0560   -0.4370 h1        1 PIP      0.025200
     10 H31         1.6500    0.8970    2.0010 hc        1 PIP      0.046200
     11 H32         3.1100   -0.0020    1.4180 hc        1 PIP      0.046200
     12 H41         1.9580   -2.1640    1.6710 hc        1 PIP      0.038700
     13 H42         1.8070   -1.2380    3.2170 hc        1 PIP      0.038700
     14 H51        -0.3650   -2.3310    2.4740 hc        1 PIP      0.046200
     15 H52        -0.4830   -0.5330    2.6490 hc        1 PIP      0.046200
     16 H61        -1.6070   -1.1850    0.5780 h1        1 PIP      0.025200
     17 H62        -0.2000   -2.2260    0.0770 h1        1 PIP      0.025200
@<TRIPOS>BOND
     1    1    2 1   
     2    1    6 1   
     3    1    7 1   
     4    2    3 1   
     5    2    8 1   
     6    2    9 1   
     7    3    4 1   
     8    3   10 1   
     9    3   11 1   
    10    4    5 1   
    11    4   12 1   
    12    4   13 1   
    13    5    6 1   
    14    5   14 1   
    15    5   15 1   
    16    6   16 1   
    17    6   17 1   
@<TRIPOS>SUBSTRUCTURE
     1 PIP         1 TEMP              0 ****  ****    0 ROOT
