@<TRIPOS>MOLECULE
PIQ
   30    32     1     0     0
SMALL
bcc


@<TRIPOS>ATOM
      1 N          -0.0670    0.0110   -0.0210 n4        1 PIQ     -0.742600
      2 C2          1.3930    0.0080   -0.0250 cc        1 PIQ      0.347700
      3 N1          2.1680    0.0060    1.1690 na        1 PIQ     -0.117300
      4 C7A         3.4910    0.0030    0.7330 ca        1 PIQ     -0.130500
      5 C7          4.7250    0.0050    1.4130 ca        1 PIQ     -0.110000
      6 C6          5.8710    0.0030    0.6310 cp        1 PIQ     -0.054300
      7 C1'         7.1980    0.0070    1.2300 cp        1 PIQ     -0.087000
      8 C2'         8.2320    0.7630    0.6570 ca        1 PIQ     -0.103000
      9 C3'         9.4990    0.7670    1.2340 ca        1 PIQ     -0.124000
     10 C4'         9.7500    0.0130    2.3820 ca        1 PIQ     -0.095000
     11 C5'         8.7270   -0.7440    2.9540 ca        1 PIQ     -0.124000
     12 C6'         7.4560   -0.7460    2.3860 ca        1 PIQ     -0.103000
     13 N3          2.1300   -0.0000   -1.1760 nd        1 PIQ     -0.519700
     14 CM          1.6750    0.0400    2.5060 c3        1 PIQ      0.003600
     15 C3A         3.4620   -0.0020   -0.7320 ca        1 PIQ      0.502300
     16 N4          4.6110   -0.0090   -1.4900 nb        1 PIQ     -0.565000
     17 C5          5.7450   -0.0060   -0.8070 ca        1 PIQ      0.414200
     18 HN1        -0.4020    0.0240   -0.9980 hn        1 PIQ      0.479800
     19 HN2        -0.4120   -0.8370    0.4470 hn        1 PIQ      0.479800
     20 H7          4.7780    0.0160    2.5120 ha        1 PIQ      0.164000
     21 H2'         8.0400    1.3670   -0.2440 ha        1 PIQ      0.135000
     22 H3'        10.3040    1.3660    0.7820 ha        1 PIQ      0.149000
     23 H4'        10.7540    0.0150    2.8330 ha        1 PIQ      0.150000
     24 H5'         8.9250   -1.3430    3.8570 ha        1 PIQ      0.149000
     25 H6'         6.6570   -1.3540    2.8360 ha        1 PIQ      0.135000
     26 HM1         1.0710    0.9730    2.6770 h1        1 PIQ      0.075700
     27 HM2         1.0390   -0.8640    2.7100 h1        1 PIQ      0.075700
     28 HM3         2.5450    0.0380    3.2200 h1        1 PIQ      0.075700
     29 H5          6.6680   -0.0210   -1.4250 h4        1 PIQ      0.059100
     30 HN3        -0.4090    0.8460    0.4690 hn        1 PIQ      0.479800
@<TRIPOS>BOND
     1    1    2 1   
     2    1   18 1   
     3    1   19 1   
     4    1   30 1   
     5    2    3 1   
     6    2   13 2   
     7    3    4 1   
     8    3   14 1   
     9    4    5 ar  
    10    4   15 ar  
    11    5    6 ar  
    12    5   20 1   
    13    6    7 1   
    14    6   17 ar  
    15    7    8 ar  
    16    7   12 ar  
    17    8    9 ar  
    18    8   21 1   
    19    9   10 ar  
    20    9   22 1   
    21   10   11 ar  
    22   10   23 1   
    23   11   12 ar  
    24   11   24 1   
    25   12   25 1   
    26   13   15 1   
    27   14   26 1   
    28   14   27 1   
    29   14   28 1   
    30   15   16 ar  
    31   16   17 ar  
    32   17   29 1   
@<TRIPOS>SUBSTRUCTURE
     1 PIQ         1 TEMP              0 ****  ****    0 ROOT
