@<TRIPOS>MOLECULE
PIQ
   29    31     1     0     0
SMALL
bcc


@<TRIPOS>ATOM
      1 N          -0.0500    0.0080    0.0360 nh        1 PIQ     -0.855800
      2 C2          1.3520   -0.0630   -0.0320 cc        1 PIQ      0.597700
      3 N1          2.1530   -0.1790    1.1600 na        1 PIQ     -0.173300
      4 C7A         3.4820   -0.0570    0.7260 ca        1 PIQ     -0.195500
      5 C7          4.7040   -0.0650    1.3950 ca        1 PIQ     -0.077000
      6 C6          5.8570    0.0250    0.6100 cp        1 PIQ     -0.152300
      7 C1'         7.1810    0.0340    1.2220 cp        1 PIQ     -0.032000
      8 C2'         8.1850    0.8800    0.7290 ca        1 PIQ     -0.119500
      9 C3'         9.4490    0.8870    1.3150 ca        1 PIQ     -0.129000
     10 C4'         9.7250    0.0520    2.3980 ca        1 PIQ     -0.127000
     11 C5'         8.7320   -0.7920    2.8930 ca        1 PIQ     -0.129000
     12 C6'         7.4660   -0.8030    2.3110 ca        1 PIQ     -0.119500
     13 N3          2.0950    0.0150   -1.1750 nd        1 PIQ     -0.666700
     14 CM          1.6810    0.0810    2.4790 c3        1 PIQ      0.029600
     15 C3A         3.4430    0.0350   -0.7380 ca        1 PIQ      0.553300
     16 N4          4.5760    0.1110   -1.4880 nb        1 PIQ     -0.611000
     17 C5          5.7270    0.1070   -0.8050 ca        1 PIQ      0.398200
     18 HN1        -0.4850   -0.0840   -0.8600 hn        1 PIQ      0.408300
     19 HN2        -0.4460   -0.5990    0.7240 hn        1 PIQ      0.408300
     20 H7          4.7660   -0.1320    2.4900 ha        1 PIQ      0.142000
     21 H2'         7.9700    1.5460   -0.1210 ha        1 PIQ      0.134500
     22 H3'        10.2290    1.5550    0.9230 ha        1 PIQ      0.133000
     23 H4'        10.7230    0.0590    2.8580 ha        1 PIQ      0.133000
     24 H5'         8.9470   -1.4550    3.7440 ha        1 PIQ      0.133000
     25 H6'         6.6880   -1.4770    2.6990 ha        1 PIQ      0.134500
     26 HM1         1.2410    1.1120    2.5630 h1        1 PIQ      0.052367
     27 HM2         0.8890   -0.6710    2.7440 h1        1 PIQ      0.052367
     28 HM3         2.5330   -0.0140    3.2040 h1        1 PIQ      0.052367
     29 H5          6.6370    0.1660   -1.4310 h4        1 PIQ      0.028100
@<TRIPOS>BOND
     1    1    2 1   
     2    1   18 1   
     3    1   19 1   
     4    2    3 1   
     5    2   13 2   
     6    3    4 1   
     7    3   14 1   
     8    4    5 ar  
     9    4   15 ar  
    10    5    6 ar  
    11    5   20 1   
    12    6    7 1   
    13    6   17 ar  
    14    7    8 ar  
    15    7   12 ar  
    16    8    9 ar  
    17    8   21 1   
    18    9   10 ar  
    19    9   22 1   
    20   10   11 ar  
    21   10   23 1   
    22   11   12 ar  
    23   11   24 1   
    24   12   25 1   
    25   13   15 1   
    26   14   26 1   
    27   14   27 1   
    28   14   28 1   
    29   15   16 ar  
    30   16   17 ar  
    31   17   29 1   
@<TRIPOS>SUBSTRUCTURE
     1 PIQ         1 TEMP              0 ****  ****    0 ROOT
