@<TRIPOS>MOLECULE
PIQ
   29    31     1     0     0
SMALL
bcc


@<TRIPOS>ATOM
      1 N           0.3550   -0.0170    5.0350 nh        1 PIQ     -0.855800
      2 C2         -0.0190    0.0220    3.6800 cc        1 PIQ      0.597700
      3 N1          0.9500    0.2680    2.6450 na        1 PIQ     -0.174300
      4 C7A         0.2620    0.0730    1.4380 ca        1 PIQ     -0.194500
      5 C7          0.6490    0.1460    0.1010 ca        1 PIQ     -0.078000
      6 C6         -0.3480   -0.0520   -0.8590 cp        1 PIQ     -0.152300
      7 C1'        -0.0380    0.0030   -2.2830 cp        1 PIQ     -0.031000
      8 C2'        -0.9250    0.6180   -3.1790 ca        1 PIQ     -0.120000
      9 C3'        -0.6250    0.6700   -4.5390 ca        1 PIQ     -0.129000
     10 C4'         0.5580    0.1090   -5.0200 ca        1 PIQ     -0.127000
     11 C5'         1.4440   -0.5040   -4.1340 ca        1 PIQ     -0.129000
     12 C6'         1.1500   -0.5580   -2.7730 ca        1 PIQ     -0.120000
     13 N3         -1.2760   -0.2110    3.1970 nd        1 PIQ     -0.666700
     14 CM          2.3620    0.2090    2.8220 c3        1 PIQ      0.030600
     15 C3A        -1.1370   -0.1990    1.7870 ca        1 PIQ      0.553300
     16 N4         -2.0960   -0.3860    0.8390 nb        1 PIQ     -0.611000
     17 C5         -1.6810   -0.3110   -0.4300 ca        1 PIQ      0.398200
     18 HN1        -0.4330   -0.0370    5.6510 hn        1 PIQ      0.407300
     19 HN2         1.0210    0.6850    5.2820 hn        1 PIQ      0.407300
     20 H7          1.6860    0.3590   -0.1930 ha        1 PIQ      0.142000
     21 H2'        -1.8560    1.0670   -2.8040 ha        1 PIQ      0.134500
     22 H3'        -1.3260    1.1550   -5.2340 ha        1 PIQ      0.133000
     23 H4'         0.7910    0.1500   -6.0930 ha        1 PIQ      0.133000
     24 H5'         2.3760   -0.9500   -4.5100 ha        1 PIQ      0.133000
     25 H6'         1.8480   -1.0510   -2.0800 ha        1 PIQ      0.134500
     26 HM1         2.6830   -0.7890    3.2270 h1        1 PIQ      0.052033
     27 HM2         2.8680    0.3860    1.8360 h1        1 PIQ      0.052033
     28 HM3         2.6780    1.0100    3.5440 h1        1 PIQ      0.052033
     29 H5         -2.4710   -0.4770   -1.1870 h4        1 PIQ      0.028100
@<TRIPOS>BOND
     1    1    2 1   
     2    1   18 1   
     3    1   19 1   
     4    2    3 1   
     5    2   13 2   
     6    3    4 1   
     7    3   14 1   
     8    4    5 ar  
     9    4   15 ar  
    10    5    6 ar  
    11    5   20 1   
    12    6    7 1   
    13    6   17 ar  
    14    7    8 ar  
    15    7   12 ar  
    16    8    9 ar  
    17    8   21 1   
    18    9   10 ar  
    19    9   22 1   
    20   10   11 ar  
    21   10   23 1   
    22   11   12 ar  
    23   11   24 1   
    24   12   25 1   
    25   13   15 1   
    26   14   26 1   
    27   14   27 1   
    28   14   28 1   
    29   15   16 ar  
    30   16   17 ar  
    31   17   29 1   
@<TRIPOS>SUBSTRUCTURE
     1 PIQ         1 TEMP              0 ****  ****    0 ROOT
