@<TRIPOS>MOLECULE
PIQ
   29    31     1     0     0
SMALL
bcc


@<TRIPOS>ATOM
      1 N          -0.0510    0.0350    0.0390 nv        1 PIQ     -0.855800
      2 C2          1.3510   -0.0450   -0.0290 cc        1 PIQ      0.597700
      3 N1          2.1510   -0.1620    1.1620 na        1 PIQ     -0.173300
      4 C7A         3.4810   -0.0490    0.7270 ca        1 PIQ     -0.195500
      5 C7          4.7040   -0.0630    1.3960 ca        1 PIQ     -0.077000
      6 C6          5.8570    0.0180    0.6090 cp        1 PIQ     -0.152300
      7 C1'         7.1810    0.0210    1.2200 cp        1 PIQ     -0.032000
      8 C2'         8.1900    0.8600    0.7240 ca        1 PIQ     -0.119500
      9 C3'         9.4540    0.8610    1.3100 ca        1 PIQ     -0.129000
     10 C4'         9.7260    0.0270    2.3940 ca        1 PIQ     -0.127000
     11 C5'         8.7280   -0.8100    2.8930 ca        1 PIQ     -0.129000
     12 C6'         7.4620   -0.8140    2.3110 ca        1 PIQ     -0.119500
     13 N3          2.0930    0.0260   -1.1730 nd        1 PIQ     -0.666700
     14 CM          1.6830    0.1050    2.4810 c3        1 PIQ      0.029600
     15 C3A         3.4420    0.0400   -0.7370 ca        1 PIQ      0.553300
     16 N4          4.5750    0.1070   -1.4880 nb        1 PIQ     -0.611000
     17 C5          5.7260    0.0980   -0.8060 ca        1 PIQ      0.398200
     18 HN1        -0.4860   -0.0570   -0.8570 hn        1 PIQ      0.408300
     19 HN2        -0.4500   -0.5670    0.7290 hn        1 PIQ      0.408300
     20 H7          4.7660   -0.1270    2.4910 ha        1 PIQ      0.142000
     21 H2'         7.9780    1.5250   -0.1270 ha        1 PIQ      0.134500
     22 H3'        10.2380    1.5240    0.9150 ha        1 PIQ      0.133000
     23 H4'        10.7250    0.0290    2.8540 ha        1 PIQ      0.133000
     24 H5'         8.9400   -1.4720    3.7450 ha        1 PIQ      0.133000
     25 H6'         6.6810   -1.4830    2.7020 ha        1 PIQ      0.134500
     26 HM1         1.2490    1.1390    2.5620 h1        1 PIQ      0.052367
     27 HM2         2.5340    0.0070    3.2050 h1        1 PIQ      0.052367
     28 HM3         0.8860   -0.6420    2.7480 h1        1 PIQ      0.052367
     29 H5          6.6360    0.1490   -1.4330 h4        1 PIQ      0.028100
@<TRIPOS>BOND
     1    1    2 1   
     2    1   18 1   
     3    1   19 1   
     4    2    3 1   
     5    2   13 2   
     6    3    4 1   
     7    3   14 1   
     8    4    5 ar  
     9    4   15 ar  
    10    5    6 ar  
    11    5   20 1   
    12    6    7 1   
    13    6   17 ar  
    14    7    8 ar  
    15    7   12 ar  
    16    8    9 ar  
    17    8   21 1   
    18    9   10 ar  
    19    9   22 1   
    20   10   11 ar  
    21   10   23 1   
    22   11   12 ar  
    23   11   24 1   
    24   12   25 1   
    25   13   15 1   
    26   14   26 1   
    27   14   27 1   
    28   14   28 1   
    29   15   16 ar  
    30   16   17 ar  
    31   17   29 1   
@<TRIPOS>SUBSTRUCTURE
     1 PIQ         1 TEMP              0 ****  ****    0 ROOT
