@<TRIPOS>MOLECULE
PIR
   33    34     1     0     0
SMALL
bcc


@<TRIPOS>ATOM
      1 C1          0.4210    1.1730    0.2430 ca        1 PIR     -0.098500
      2 C2          1.3590    0.1760   -0.0450 ca        1 PIR     -0.001300
      3 C3          1.5790   -0.8540    0.8860 ca        1 PIR     -0.098500
      4 C4          0.8880   -0.8890    2.0900 ca        1 PIR     -0.101000
      5 C5         -0.0460    0.1260    2.3680 ca        1 PIR     -0.093400
      6 N5         -0.7820    0.0980    3.6320 n4        1 PIR     -0.697000
      7 C6         -0.2840    1.1580    1.4450 ca        1 PIR     -0.101000
      8 C1'         2.1840    0.1540   -1.3040 c3        1 PIR      0.169800
      9 C2'         2.0130   -1.2160   -2.0390 c3        1 PIR      0.108100
     10 O2'         3.0760   -2.0860   -1.7380 oh        1 PIR     -0.595800
     11 C3'         1.9240   -0.8640   -3.5420 c3        1 PIR      0.101100
     12 O3'         3.0880   -1.3070   -4.2120 oh        1 PIR     -0.590800
     13 C4'         1.9170    0.6860   -3.6200 c3        1 PIR      0.169500
     14 N4'         1.8500    1.2100   -2.2530 n3        1 PIR     -0.823200
     15 C5'         0.7400    1.1690   -4.4840 c3        1 PIR      0.141400
     16 O5'         0.9450    2.5520   -4.7100 oh        1 PIR     -0.597800
     17 H1          0.2220    1.9850   -0.4800 ha        1 PIR      0.190000
     18 H3          2.3120   -1.6490    0.6470 ha        1 PIR      0.190000
     19 H4          1.0820   -1.7050    2.8040 ha        1 PIR      0.154500
     20 HN51       -1.5750   -0.5480    3.5530 hn        1 PIR      0.460800
     21 HN52       -0.1640   -0.2190    4.3860 hn        1 PIR      0.460800
     22 H6         -1.0150    1.9570    1.6500 ha        1 PIR      0.154500
     23 H1'         3.2660    0.2290   -0.9640 h1        1 PIR      0.066700
     24 H2'         1.0920   -1.7530   -1.6880 h1        1 PIR      0.088700
     25 HO2'        3.8630   -1.7800   -2.2150 ho        1 PIR      0.429000
     26 H3'         1.0020   -1.3070   -4.0020 h1        1 PIR      0.067700
     27 HO3'        2.9830   -2.2540   -4.3730 ho        1 PIR      0.423000
     28 H4'         2.8660    1.0240   -4.1370 h1        1 PIR      0.086700
     29 HN4'        2.4370    2.0130   -2.1460 hn        1 PIR      0.392800
     30 H5'1       -0.2450    1.0030   -3.9740 h1        1 PIR      0.034700
     31 H5'2        0.7570    0.6070   -5.4570 h1        1 PIR      0.034700
     32 HO5'        0.2760    2.8320   -5.3460 ho        1 PIR      0.412000
     33 H53        -1.1330    1.0360    3.8530 hn        1 PIR      0.460800
@<TRIPOS>BOND
     1    1    2 ar  
     2    1    7 ar  
     3    1   17 1   
     4    2    3 ar  
     5    2    8 1   
     6    3    4 ar  
     7    3   18 1   
     8    4    5 ar  
     9    4   19 1   
    10    5    6 1   
    11    5    7 ar  
    12    6   20 1   
    13    6   21 1   
    14    6   33 1   
    15    7   22 1   
    16    8    9 1   
    17    8   14 1   
    18    8   23 1   
    19    9   10 1   
    20    9   11 1   
    21    9   24 1   
    22   10   25 1   
    23   11   12 1   
    24   11   13 1   
    25   11   26 1   
    26   12   27 1   
    27   13   14 1   
    28   13   15 1   
    29   13   28 1   
    30   14   29 1   
    31   15   16 1   
    32   15   30 1   
    33   15   31 1   
    34   16   32 1   
@<TRIPOS>SUBSTRUCTURE
     1 PIR         1 TEMP              0 ****  ****    0 ROOT
