@<TRIPOS>MOLECULE
PIR
   32    33     1     0     0
SMALL
bcc


@<TRIPOS>ATOM
      1 C1          1.2180    0.1730    1.1680 ca        1 PIR     -0.080000
      2 C2         -0.0030   -0.4550    0.9170 ca        1 PIR     -0.126300
      3 C3         -0.9000   -0.6370    1.9800 ca        1 PIR     -0.080000
      4 C4         -0.5930   -0.2030    3.2600 ca        1 PIR     -0.194500
      5 C5          0.6400    0.4430    3.5200 ca        1 PIR      0.141600
      6 N5          0.9200    0.9680    4.7850 nh        1 PIR     -0.819200
      7 C6          1.5440    0.6140    2.4470 ca        1 PIR     -0.194500
      8 C1'        -0.4160   -0.9680   -0.4360 c3        1 PIR      0.221800
      9 C2'        -1.5810   -0.0930   -0.9960 c3        1 PIR      0.083100
     10 O2'        -2.6480   -0.9760   -1.2970 oh        1 PIR     -0.605800
     11 C3'        -1.0410    0.5630   -2.2880 c3        1 PIR      0.090100
     12 O3'        -1.8600    0.2600   -3.3960 oh        1 PIR     -0.592800
     13 C4'         0.4040    0.0200   -2.4600 c3        1 PIR      0.092500
     14 N4'         0.6590   -0.9920   -1.4320 n3        1 PIR     -0.811200
     15 C5'         1.4020    1.1900   -2.3770 c3        1 PIR      0.143400
     16 O5'         2.7240    0.7750   -2.6370 oh        1 PIR     -0.598800
     17 H1          1.9460    0.3260    0.3560 ha        1 PIR      0.138000
     18 H3         -1.8650   -1.1350    1.7930 ha        1 PIR      0.138000
     19 H4         -1.3180   -0.3570    4.0730 ha        1 PIR      0.132000
     20 HN51        1.8900    1.0940    4.9730 hn        1 PIR      0.389800
     21 HN52        0.4290    0.5270    5.5310 hn        1 PIR      0.389800
     22 H6          2.5130    1.1070    2.6140 ha        1 PIR      0.132000
     23 H1'        -0.8120   -2.0190   -0.2840 h1        1 PIR      0.074700
     24 H2'        -1.9130    0.6750   -0.2510 h1        1 PIR      0.068700
     25 HO2'       -3.3570   -0.4380   -1.6730 ho        1 PIR      0.416000
     26 H3'        -1.0590    1.6840   -2.2230 h1        1 PIR      0.093700
     27 HO3'       -1.8990   -0.7030   -3.4760 ho        1 PIR      0.411000
     28 H4'         0.5130   -0.4350   -3.4880 h1        1 PIR      0.069700
     29 HN4'        0.7180   -1.9010   -1.8480 hn        1 PIR      0.368800
     30 H5'1        1.1690    1.9280   -3.1920 h1        1 PIR      0.050200
     31 H5'2        1.3380    1.6950   -1.3770 h1        1 PIR      0.050200
     32 HO5'        2.9740    0.1500   -1.9440 ho        1 PIR      0.410000
@<TRIPOS>BOND
     1    1    2 ar  
     2    1    7 ar  
     3    1   17 1   
     4    2    3 ar  
     5    2    8 1   
     6    3    4 ar  
     7    3   18 1   
     8    4    5 ar  
     9    4   19 1   
    10    5    6 1   
    11    5    7 ar  
    12    6   20 1   
    13    6   21 1   
    14    7   22 1   
    15    8    9 1   
    16    8   14 1   
    17    8   23 1   
    18    9   10 1   
    19    9   11 1   
    20    9   24 1   
    21   10   25 1   
    22   11   12 1   
    23   11   13 1   
    24   11   26 1   
    25   12   27 1   
    26   13   14 1   
    27   13   15 1   
    28   13   28 1   
    29   14   29 1   
    30   15   16 1   
    31   15   30 1   
    32   15   31 1   
    33   16   32 1   
@<TRIPOS>SUBSTRUCTURE
     1 PIR         1 TEMP              0 ****  ****    0 ROOT
