@<TRIPOS>MOLECULE
PIR
   32    33     1     0     0
SMALL
bcc


@<TRIPOS>ATOM
      1 C1          0.1030    0.3910   -0.2660 ca        1 PIR     -0.078500
      2 C2          1.4450    0.0140   -0.1640 ca        1 PIR     -0.131300
      3 C3          1.9660   -0.3020    1.0950 ca        1 PIR     -0.078500
      4 C4          1.1670   -0.2590    2.2300 ca        1 PIR     -0.194000
      5 C5         -0.1970    0.1080    2.1330 ca        1 PIR      0.145600
      6 N5         -1.0310    0.0630    3.2530 nv        1 PIR     -0.820200
      7 C6         -0.7110    0.4430    0.8580 ca        1 PIR     -0.194000
      8 C1'         2.3300   -0.0660   -1.3750 c3        1 PIR      0.191800
      9 C2'         1.9100   -1.2610   -2.2860 c3        1 PIR      0.093100
     10 O2'         2.7780   -2.3670   -2.1430 oh        1 PIR     -0.602800
     11 C3'         2.0310   -0.7360   -3.7340 c3        1 PIR      0.136100
     12 O3'         3.2400   -1.1010   -4.3660 oh        1 PIR     -0.595800
     13 C4'         2.0500    0.8120   -3.5920 c3        1 PIR      0.119500
     14 N4'         2.2940    1.1560   -2.1880 n7        1 PIR     -0.809200
     15 C5'         0.7140    1.3840   -4.1010 c3        1 PIR      0.143400
     16 O5'         0.7140    2.7940   -4.1110 oh        1 PIR     -0.598800
     17 H1         -0.3140    0.6600   -1.2490 ha        1 PIR      0.132500
     18 H3          3.0250   -0.5860    1.1970 ha        1 PIR      0.132500
     19 H4          1.6010   -0.5170    3.2070 ha        1 PIR      0.132500
     20 HN51       -0.5580    0.1530    4.1250 hn        1 PIR      0.391300
     21 HN52       -1.8460    0.6310    3.1840 hn        1 PIR      0.391300
     22 H6         -1.7640    0.7420    0.7490 ha        1 PIR      0.132500
     23 H1'         3.3890   -0.2680   -1.0240 h1        1 PIR      0.050700
     24 H2'         0.8530   -1.5700   -2.0660 h1        1 PIR      0.059700
     25 HO2'        2.7100   -2.6580   -1.2260 ho        1 PIR      0.418000
     26 H3'         1.1660   -1.0910   -4.3540 h1        1 PIR      0.052700
     27 HO3'        3.3890   -2.0410   -4.1960 ho        1 PIR      0.425000
     28 H4'         2.8700    1.2280   -4.2500 h1        1 PIR      0.082700
     29 HN4'        3.1570    1.6550   -2.0950 hn        1 PIR      0.371800
     30 H5'1       -0.1430    0.9970   -3.4890 h1        1 PIR      0.045200
     31 H5'2        0.5760    1.0920   -5.1770 h1        1 PIR      0.045200
     32 HO5'        0.8180    3.0920   -3.1990 ho        1 PIR      0.411000
@<TRIPOS>BOND
     1    1    2 ar  
     2    1    7 ar  
     3    1   17 1   
     4    2    3 ar  
     5    2    8 1   
     6    3    4 ar  
     7    3   18 1   
     8    4    5 ar  
     9    4   19 1   
    10    5    6 1   
    11    5    7 ar  
    12    6   20 1   
    13    6   21 1   
    14    7   22 1   
    15    8    9 1   
    16    8   14 1   
    17    8   23 1   
    18    9   10 1   
    19    9   11 1   
    20    9   24 1   
    21   10   25 1   
    22   11   12 1   
    23   11   13 1   
    24   11   26 1   
    25   12   27 1   
    26   13   14 1   
    27   13   15 1   
    28   13   28 1   
    29   14   29 1   
    30   15   16 1   
    31   15   30 1   
    32   15   31 1   
    33   16   32 1   
@<TRIPOS>SUBSTRUCTURE
     1 PIR         1 TEMP              0 ****  ****    0 ROOT
