@<TRIPOS>MOLECULE
PIR
   32    33     1     0     0
SMALL
bcc


@<TRIPOS>ATOM
      1 C1          0.1130    0.3920   -0.2540 ca        1 PIR     -0.078500
      2 C2          1.4570    0.0200   -0.1660 ca        1 PIR     -0.131300
      3 C3          1.9940   -0.2880    1.0880 ca        1 PIR     -0.078500
      4 C4          1.2080   -0.2420    2.2320 ca        1 PIR     -0.194000
      5 C5         -0.1580    0.1190    2.1490 ca        1 PIR      0.145600
      6 N5         -0.9790    0.0770    3.2790 nh        1 PIR     -0.820200
      7 C6         -0.6890    0.4470    0.8790 ca        1 PIR     -0.194000
      8 C1'         2.3290   -0.0620   -1.3870 c3        1 PIR      0.191800
      9 C2'         1.9030   -1.2640   -2.2860 c3        1 PIR      0.093100
     10 O2'         2.7780   -2.3650   -2.1480 oh        1 PIR     -0.602800
     11 C3'         2.0060   -0.7460   -3.7380 c3        1 PIR      0.136100
     12 O3'         3.2100   -1.1090   -4.3820 oh        1 PIR     -0.595800
     13 C4'         2.0190    0.8030   -3.6060 c3        1 PIR      0.119500
     14 N4'         2.2770    1.1550   -2.2060 n3        1 PIR     -0.809200
     15 C5'         0.6750    1.3660   -4.1020 c3        1 PIR      0.143400
     16 O5'         0.6680    2.7760   -4.1200 oh        1 PIR     -0.598800
     17 H1         -0.3170    0.6550   -1.2340 ha        1 PIR      0.132500
     18 H3          3.0550   -0.5670    1.1790 ha        1 PIR      0.132500
     19 H4          1.6550   -0.4940    3.2060 ha        1 PIR      0.132500
     20 HN51       -1.7960    0.6420    3.2170 hn        1 PIR      0.391300
     21 HN52       -0.4960    0.1730    4.1450 hn        1 PIR      0.391300
     22 H6         -1.7440    0.7410    0.7810 ha        1 PIR      0.132500
     23 H1'         3.3920   -0.2570   -1.0470 h1        1 PIR      0.050700
     24 H2'         0.8500   -1.5750   -2.0530 h1        1 PIR      0.059700
     25 HO2'        2.7210   -2.6510   -1.2280 ho        1 PIR      0.418000
     26 H3'         1.1360   -1.1080   -4.3480 h1        1 PIR      0.052700
     27 HO3'        3.3640   -2.0470   -4.2090 ho        1 PIR      0.425000
     28 H4'         2.8290    1.2190   -4.2740 h1        1 PIR      0.082700
     29 HN4'        3.1390    1.6590   -2.1250 hn        1 PIR      0.371800
     30 H5'1        0.5250    1.0670   -5.1750 h1        1 PIR      0.045200
     31 H5'2       -0.1740    0.9780   -3.4780 h1        1 PIR      0.045200
     32 HO5'        0.7810    3.0790   -3.2100 ho        1 PIR      0.411000
@<TRIPOS>BOND
     1    1    2 ar  
     2    1    7 ar  
     3    1   17 1   
     4    2    3 ar  
     5    2    8 1   
     6    3    4 ar  
     7    3   18 1   
     8    4    5 ar  
     9    4   19 1   
    10    5    6 1   
    11    5    7 ar  
    12    6   20 1   
    13    6   21 1   
    14    7   22 1   
    15    8    9 1   
    16    8   14 1   
    17    8   23 1   
    18    9   10 1   
    19    9   11 1   
    20    9   24 1   
    21   10   25 1   
    22   11   12 1   
    23   11   13 1   
    24   11   26 1   
    25   12   27 1   
    26   13   14 1   
    27   13   15 1   
    28   13   28 1   
    29   14   29 1   
    30   15   16 1   
    31   15   30 1   
    32   15   31 1   
    33   16   32 1   
@<TRIPOS>SUBSTRUCTURE
     1 PIR         1 TEMP              0 ****  ****    0 ROOT
