@<TRIPOS>MOLECULE
PIS
    9     8     1     0     0
SMALL
bcc


@<TRIPOS>ATOM
      1 P1          1.8480   -0.0100    0.0020 p5        1 PIS      1.488900
      2 O1          0.1150    0.0640   -0.0190 os        1 PIS     -0.830800
      3 P2         -1.4590    0.3550    0.0370 p5        1 PIS      1.940400
      4 S1         -2.6460   -1.3860   -0.5760 s         1 PIS     -1.737000
      5 O2          2.3210    1.3530    0.4690 o         1 PIS     -0.992833
      6 O3          2.3020   -0.3090   -1.4120 o         1 PIS     -0.992833
      7 O4         -1.7840    1.4590   -0.9210 o         1 PIS     -0.942500
      8 O5          2.2390   -1.1060    0.9720 o         1 PIS     -0.992833
      9 O6         -1.8460    0.6670    1.4500 o         1 PIS     -0.942500
@<TRIPOS>BOND
     1    1    2 1   
     2    1    5 1   
     3    1    6 1   
     4    1    8 1   
     5    2    3 1   
     6    3    4 1   
     7    3    7 1   
     8    3    9 1   
@<TRIPOS>SUBSTRUCTURE
     1 PIS         1 TEMP              0 ****  ****    0 ROOT
