@<TRIPOS>MOLECULE
PIS
    9     7     1     0     0
SMALL
bcc


@<TRIPOS>ATOM
      1 P1         -1.3390   -0.4360    0.0520 p3        1 PIS      2.681000
      2 O1          0.1940   -0.8190    0.0990 o         1 PIS     -0.954500
      3 P2          1.3640    0.2200   -0.1250 p5        1 PIS      1.854500
      4 S1          1.5560    1.4160    1.5530 s         1 PIS     -1.737000
      5 O2         -2.1290   -1.4160    0.8850 o         1 PIS     -1.312333
      6 O3         -1.8250   -0.4830   -1.3770 o         1 PIS     -1.312333
      7 O4          2.6570   -0.5220   -0.3650 o         1 PIS     -0.954500
      8 O5         -1.5260    0.9580    0.6020 o         1 PIS     -1.312333
      9 O6          1.0480    1.0820   -1.3240 o         1 PIS     -0.954500
@<TRIPOS>BOND
     1    1    5 1   
     2    1    6 1   
     3    1    8 1   
     4    2    3 1   
     5    3    4 1   
     6    3    7 1   
     7    3    9 1   
@<TRIPOS>SUBSTRUCTURE
     1 PIS         1 TEMP              0 ****  ****    0 ROOT
