@<TRIPOS>MOLECULE
PIT
   30    31     1     0     0
SMALL
bcc


@<TRIPOS>ATOM
      1 C1          0.1370    0.0130   -0.0610 ca        1 PIT      0.159600
      2 C2          1.5340    0.1300   -0.0190 ca        1 PIT     -0.243000
      3 C3          2.1520    0.1420    1.2360 ca        1 PIT      0.159600
      4 C4          1.4100    0.0410    2.4230 ca        1 PIT     -0.211000
      5 C5          0.0150   -0.0660    2.3570 ca        1 PIT      0.015200
      6 C6         -0.6250   -0.0850    1.1100 ca        1 PIT     -0.211000
      7 C7         -0.7350   -0.1690    3.6000 ce        1 PIT     -0.112200
      8 C8         -2.0270    0.1700    3.7370 cf        1 PIT     -0.091200
      9 C9         -2.7820    0.0730    4.9750 ca        1 PIT     -0.055800
     10 C10        -4.1840    0.0510    4.9040 ca        1 PIT     -0.123000
     11 C11        -4.9430   -0.0420    6.0740 ca        1 PIT      0.110100
     12 C12        -4.2950   -0.1070    7.3280 ca        1 PIT      0.046100
     13 C13        -2.9010   -0.0760    7.3980 ca        1 PIT     -0.171000
     14 C14        -2.1530    0.0140    6.2260 ca        1 PIT     -0.116000
     15 O1         -5.1150   -0.1960    8.4340 oh        1 PIT     -0.515100
     16 O2          3.5160    0.2500    1.3790 oh        1 PIT     -0.496600
     17 O3         -0.4320   -0.0000   -1.3140 oh        1 PIT     -0.496600
     18 OAD        -6.3110   -0.0650    5.9400 oh        1 PIT     -0.495100
     19 H3         -1.3900   -0.0920   -1.2060 ho        1 PIT      0.422000
     20 H6         -1.7170   -0.1860    1.0470 ha        1 PIT      0.144500
     21 H2          2.1100    0.2060   -0.9500 ha        1 PIT      0.153000
     22 HA          3.9050    0.3110    0.4940 ho        1 PIT      0.422000
     23 H4          1.9330    0.0530    3.3890 ha        1 PIT      0.144500
     24 H7         -0.1540   -0.5490    4.4590 ha        1 PIT      0.132000
     25 H8         -2.6030    0.5520    2.8740 ha        1 PIT      0.129000
     26 H10        -4.7020    0.1030    3.9350 ha        1 PIT      0.153000
     27 H14        -1.0560    0.0460    6.2930 ha        1 PIT      0.139000
     28 H13        -2.3980   -0.1210    8.3750 ha        1 PIT      0.137000
     29 H1         -4.5500   -0.2310    9.2180 ho        1 PIT      0.430000
     30 HAD        -6.6970   -0.1300    6.8270 ho        1 PIT      0.438000
@<TRIPOS>BOND
     1    1    2 ar  
     2    1    6 ar  
     3    1   17 1   
     4    2    3 ar  
     5    2   21 1   
     6    3    4 ar  
     7    3   16 1   
     8    4    5 ar  
     9    4   23 1   
    10    5    6 ar  
    11    5    7 1   
    12    6   20 1   
    13    7    8 2   
    14    7   24 1   
    15    8    9 1   
    16    8   25 1   
    17    9   10 ar  
    18    9   14 ar  
    19   10   11 ar  
    20   10   26 1   
    21   11   12 ar  
    22   11   18 1   
    23   12   13 ar  
    24   12   15 1   
    25   13   14 ar  
    26   13   28 1   
    27   14   27 1   
    28   15   29 1   
    29   16   22 1   
    30   17   19 1   
    31   18   30 1   
@<TRIPOS>SUBSTRUCTURE
     1 PIT         1 TEMP              0 ****  ****    0 ROOT
