@<TRIPOS>MOLECULE
PIT
   30    31     1     0     0
SMALL
bcc


@<TRIPOS>ATOM
      1 C1          3.9220   -1.2420   -0.1140 ca        1 PIT      0.159600
      2 C2          4.8250   -0.1750   -0.2260 ca        1 PIT     -0.243000
      3 C3          4.3080    1.1250   -0.2010 ca        1 PIT      0.159600
      4 C4          2.9320    1.3680   -0.0680 ca        1 PIT     -0.211000
      5 C5          2.0480    0.2860    0.0340 ca        1 PIT      0.015200
      6 C6          2.5440   -1.0240    0.0160 ca        1 PIT     -0.211000
      7 C7          0.6250    0.5610    0.1710 ce        1 PIT     -0.112200
      8 C8         -0.3490   -0.2990   -0.1680 cf        1 PIT     -0.091200
      9 C9         -1.7720   -0.0310   -0.0380 ca        1 PIT     -0.055800
     10 C10        -2.6590   -1.1200   -0.0240 ca        1 PIT     -0.123000
     11 C11        -4.0330   -0.9000    0.1010 ca        1 PIT      0.110100
     12 C12        -4.5280    0.4180    0.2060 ca        1 PIT      0.046100
     13 C13        -3.6450    1.5010    0.1830 ca        1 PIT     -0.171000
     14 C14        -2.2770    1.2720    0.0620 ca        1 PIT     -0.116000
     15 O1         -5.8960    0.5490    0.3240 oh        1 PIT     -0.515100
     16 O2          5.1150    2.2350   -0.3020 oh        1 PIT     -0.496600
     17 O3          4.4700   -2.5040   -0.1370 oh        1 PIT     -0.496600
     18 OAD        -4.8510   -2.0060    0.1140 oh        1 PIT     -0.495100
     19 H3          3.7490   -3.1440   -0.0450 ho        1 PIT      0.422000
     20 H6          1.8610   -1.8790    0.1120 ha        1 PIT      0.144500
     21 H2          5.9000   -0.3700   -0.3270 ha        1 PIT      0.153000
     22 HA          6.0310    1.9320   -0.3880 ho        1 PIT      0.422000
     23 H4          2.5660    2.4040   -0.0510 ha        1 PIT      0.144500
     24 H7          0.3860    1.5590    0.5780 ha        1 PIT      0.132000
     25 H8         -0.1020   -1.2960   -0.5770 ha        1 PIT      0.129000
     26 H10        -2.2880   -2.1520   -0.1070 ha        1 PIT      0.153000
     27 H14        -1.5910    2.1320    0.0360 ha        1 PIT      0.139000
     28 H13        -4.0320    2.5270    0.2600 ha        1 PIT      0.137000
     29 H1         -6.0980    1.4940    0.3850 ho        1 PIT      0.430000
     30 HAD        -5.7660   -1.6990    0.2030 ho        1 PIT      0.438000
@<TRIPOS>BOND
     1    1    2 ar  
     2    1    6 ar  
     3    1   17 1   
     4    2    3 ar  
     5    2   21 1   
     6    3    4 ar  
     7    3   16 1   
     8    4    5 ar  
     9    4   23 1   
    10    5    6 ar  
    11    5    7 1   
    12    6   20 1   
    13    7    8 2   
    14    7   24 1   
    15    8    9 1   
    16    8   25 1   
    17    9   10 ar  
    18    9   14 ar  
    19   10   11 ar  
    20   10   26 1   
    21   11   12 ar  
    22   11   18 1   
    23   12   13 ar  
    24   12   15 1   
    25   13   14 ar  
    26   13   28 1   
    27   14   27 1   
    28   15   29 1   
    29   16   22 1   
    30   17   19 1   
    31   18   30 1   
@<TRIPOS>SUBSTRUCTURE
     1 PIT         1 TEMP              0 ****  ****    0 ROOT
