@<TRIPOS>MOLECULE
PIT
   30    31     1     0     0
SMALL
bcc


@<TRIPOS>ATOM
      1 C1          0.1400   -0.0580   -0.0590 ca        1 PIT      0.159600
      2 C2          1.5350    0.0760   -0.0190 ca        1 PIT     -0.243000
      3 C3          2.1520    0.1260    1.2360 ca        1 PIT      0.159600
      4 C4          1.4100    0.0450    2.4240 ca        1 PIT     -0.211000
      5 C5          0.0170   -0.0800    2.3600 ca        1 PIT      0.015200
      6 C6         -0.6220   -0.1360    1.1140 ca        1 PIT     -0.211000
      7 C7         -0.7330   -0.1630    3.6040 ce        1 PIT     -0.112200
      8 C8         -2.0290    0.1660    3.7320 cf        1 PIT     -0.091200
      9 C9         -2.7840    0.0890    4.9730 ca        1 PIT     -0.055800
     10 C10        -4.1860    0.0520    4.9010 ca        1 PIT     -0.123000
     11 C11        -4.9440   -0.0220    6.0720 ca        1 PIT      0.110100
     12 C12        -4.2970   -0.0520    7.3270 ca        1 PIT      0.046100
     13 C13        -2.9030   -0.0060    7.3980 ca        1 PIT     -0.171000
     14 C14        -2.1560    0.0640    6.2250 ca        1 PIT     -0.116000
     15 O1         -5.1170   -0.1250    8.4350 oh        1 PIT     -0.515100
     16 O2          3.5140    0.2540    1.3760 oh        1 PIT     -0.496600
     17 O3         -0.4280   -0.1080   -1.3120 oh        1 PIT     -0.496600
     18 OAD        -6.3120   -0.0620    5.9380 oh        1 PIT     -0.495100
     19 H3         -1.3850   -0.2080   -1.2020 ho        1 PIT      0.422000
     20 H6         -1.7130   -0.2520    1.0520 ha        1 PIT      0.144500
     21 H2          2.1110    0.1370   -0.9520 ha        1 PIT      0.153000
     22 HA          3.9040    0.2990    0.4910 ho        1 PIT      0.422000
     23 H4          1.9320    0.0860    3.3900 ha        1 PIT      0.144500
     24 H7         -0.1480   -0.5160    4.4720 ha        1 PIT      0.132000
     25 H8         -2.6080    0.5210    2.8600 ha        1 PIT      0.129000
     26 H10        -4.7030    0.0770    3.9300 ha        1 PIT      0.153000
     27 H14        -1.0580    0.1090    6.2920 ha        1 PIT      0.139000
     28 H13        -2.4010   -0.0250    8.3760 ha        1 PIT      0.137000
     29 H1         -4.5530   -0.1360    9.2200 ho        1 PIT      0.430000
     30 HAD        -6.6980   -0.1110    6.8260 ho        1 PIT      0.438000
@<TRIPOS>BOND
     1    1    2 ar  
     2    1    6 ar  
     3    1   17 1   
     4    2    3 ar  
     5    2   21 1   
     6    3    4 ar  
     7    3   16 1   
     8    4    5 ar  
     9    4   23 1   
    10    5    6 ar  
    11    5    7 1   
    12    6   20 1   
    13    7    8 2   
    14    7   24 1   
    15    8    9 1   
    16    8   25 1   
    17    9   10 ar  
    18    9   14 ar  
    19   10   11 ar  
    20   10   26 1   
    21   11   12 ar  
    22   11   18 1   
    23   12   13 ar  
    24   12   15 1   
    25   13   14 ar  
    26   13   28 1   
    27   14   27 1   
    28   15   29 1   
    29   16   22 1   
    30   17   19 1   
    31   18   30 1   
@<TRIPOS>SUBSTRUCTURE
     1 PIT         1 TEMP              0 ****  ****    0 ROOT
