@<TRIPOS>MOLECULE
PIU
   42    43     1     0     0
SMALL
bcc


@<TRIPOS>ATOM
      1 S1         -5.0330    0.0510    0.3560 sy        1 PIU      1.522200
      2 O1         -5.2250    1.2140    1.1260 o         1 PIU     -0.646300
      3 O2         -5.3410   -1.1980    0.9260 o         1 PIU     -0.646300
      4 N1         -5.7630    0.2030   -1.0520 n3        1 PIU     -1.028700
      5 C1         -1.3730   -1.2580   -0.6090 ca        1 PIU     -0.148500
      6 C3         -1.2520    1.1460   -0.3780 ca        1 PIU     -0.148500
      7 C4         -2.6160    1.1830   -0.0990 ca        1 PIU     -0.011500
      8 C6         -2.7370   -1.2100   -0.3290 ca        1 PIU     -0.011500
      9 C2         -0.6220   -0.0780   -0.6290 ca        1 PIU     -0.064300
     10 C5         -3.3720    0.0070   -0.0670 ca        1 PIU     -0.342500
     11 C16         1.6040   -0.0520    0.4120 c3        1 PIU     -0.014700
     12 N2          3.0630   -0.0220    0.2630 na        1 PIU      0.008900
     13 C7          5.1160    1.2220    0.0040 ca        1 PIU     -0.171000
     14 C9          5.1780   -1.1770    0.1040 ca        1 PIU     -0.171000
     15 C10         3.7820   -1.2020    0.2380 ca        1 PIU      0.046900
     16 C11         3.7210    1.1860    0.1390 ca        1 PIU      0.046900
     17 C8          5.8670    0.0380   -0.0140 ca        1 PIU      0.067700
     18 C12         7.3350    0.0690   -0.1670 c3        1 PIU     -0.093800
     19 C13         2.9690    2.4760    0.1660 c3        1 PIU     -0.090800
     20 C14         3.0970   -2.5220    0.3700 c3        1 PIU     -0.090800
     21 HN11       -6.0820   -0.5640   -1.5910 hn        1 PIU      0.456800
     22 HN12       -6.0020    1.0740   -1.4570 hn        1 PIU      0.456800
     23 H1         -0.8920   -2.2260   -0.8170 ha        1 PIU      0.135500
     24 H3         -0.6730    2.0810   -0.4040 ha        1 PIU      0.135500
     25 H4         -3.1060    2.1490    0.1220 ha        1 PIU      0.166500
     26 H6         -3.3220   -2.1470   -0.2890 ha        1 PIU      0.166500
     27 H151        1.1210    0.7460   -1.5730 hc        1 PIU      0.069700
     28 H152        1.1010   -1.0610   -1.4670 hc        1 PIU      0.069700
     29 H161        1.3290   -0.9440    1.0480 h1        1 PIU      0.100200
     30 H162        1.2840    0.8710    0.9800 h1        1 PIU      0.100200
     31 H7          5.6200    2.2000   -0.0860 ha        1 PIU      0.191000
     32 H9          5.7310   -2.1320    0.0950 ha        1 PIU      0.191000
     33 H121        7.5980    0.0310   -1.2580 hc        1 PIU      0.086367
     34 H122        7.7660    1.0080    0.2620 hc        1 PIU      0.086367
     35 H123        7.8130   -0.8080    0.3370 hc        1 PIU      0.086367
     36 H131        2.6020    2.6880    1.2040 hc        1 PIU      0.090200
     37 H132        3.6440    3.3150   -0.1440 hc        1 PIU      0.090200
     38 H133        2.0920    2.4590   -0.5310 hc        1 PIU      0.090200
     39 H141        2.7170   -2.6600    1.4170 hc        1 PIU      0.090200
     40 H142        2.2370   -2.6130   -0.3410 hc        1 PIU      0.090200
     41 H143        3.8200   -3.3490    0.1500 hc        1 PIU      0.090200
     42 C15         0.8390   -0.1190   -0.9150 c3        1 PIU     -0.052100
@<TRIPOS>BOND
     1    1    2 2   
     2    1    3 2   
     3    1    4 1   
     4    1   10 1   
     5    4   21 1   
     6    4   22 1   
     7    5    8 ar  
     8    5    9 ar  
     9    5   23 1   
    10    6    7 ar  
    11    6    9 ar  
    12    6   24 1   
    13    7   10 ar  
    14    7   25 1   
    15    8   10 ar  
    16    8   26 1   
    17    9   42 1   
    18   11   12 1   
    19   11   29 1   
    20   11   30 1   
    21   11   42 1   
    22   12   15 1   
    23   12   16 2   
    24   13   16 ar  
    25   13   17 ar  
    26   13   31 1   
    27   14   15 ar  
    28   14   17 ar  
    29   14   32 1   
    30   15   20 1   
    31   16   19 1   
    32   17   18 1   
    33   18   33 1   
    34   18   34 1   
    35   18   35 1   
    36   19   36 1   
    37   19   37 1   
    38   19   38 1   
    39   20   39 1   
    40   20   40 1   
    41   20   41 1   
    42   27   42 1   
    43   28   42 1   
@<TRIPOS>SUBSTRUCTURE
     1 PIU         1 TEMP              0 ****  ****    0 ROOT
