@<TRIPOS>MOLECULE
PIU
   43    41     1     0     0
SMALL
bcc


@<TRIPOS>ATOM
      1 S1         -0.0230   -0.4560    0.1030 sy        1 PIU      1.469800
      2 O1          1.0290   -0.0420    0.8870 o         1 PIU     -0.556300
      3 O2         -1.2190   -0.8860    0.6360 o         1 PIU     -0.556300
      4 N1         -0.5270    1.1740   -0.6890 n4        1 PIU     -0.809500
      5 C1         -3.8660    2.1350   -0.3560 c1        1 PIU     -0.176000
      6 C3         -0.6450   -3.2640   -2.4820 ce        1 PIU     -0.127100
      7 C4         -0.1200   -2.2580   -1.8350 c1        1 PIU      0.242200
      8 C6         -3.6110    1.1130    0.2140 c1        1 PIU     -0.176000
      9 C2         -0.4170   -4.6580   -2.1450 ce        1 PIU     -0.122000
     10 C5          0.4410   -1.2390   -1.2310 ce        1 PIU     -0.607200
     11 C16        -0.8280   -7.0820   -2.3720 c3        1 PIU      0.021500
     12 N2         -1.2370   -8.0900   -3.3560 nh        1 PIU     -0.120300
     13 C7         -0.6910   -9.5610   -5.2650 ce        1 PIU     -0.365700
     14 C9         -2.8890   -9.4620   -2.2160 c2        1 PIU     -0.146000
     15 C10        -2.5850   -8.5870   -3.1900 c2        1 PIU     -0.109300
     16 C11        -0.4130   -8.5000   -4.3240 ce        1 PIU      0.466600
     17 C8         -1.7380  -10.3610   -5.3030 c1        1 PIU      0.114200
     18 C12        -2.6930  -11.2210   -5.4560 c2        1 PIU     -0.196100
     19 C13         0.9440   -7.8780   -4.4840 c3        1 PIU     -0.207400
     20 C14        -3.6150   -8.0210   -4.1140 c3        1 PIU     -0.069900
     21 HN11       -0.3890    1.1980   -1.6950 hn        1 PIU      0.469467
     22 HN12        0.0120    1.9450   -0.2880 hn        1 PIU      0.469467
     23 H1         -3.4440    0.2050    0.7480 ha        1 PIU      0.184500
     24 H3          0.2890   -4.8560   -1.3190 ha        1 PIU      0.156000
     25 H4         -1.3230   -3.0510   -3.3400 ha        1 PIU      0.201000
     26 H6          1.4370   -0.9400   -1.6530 h4        1 PIU      0.237000
     27 H151       -4.1240    3.0450   -0.8470 ha        1 PIU      0.184500
     28 H152       -1.7450   -5.4720   -3.6140 ha        1 PIU      0.157000
     29 H161       -1.4450   -7.2650   -1.4370 h1        1 PIU      0.106700
     30 H162        0.2560   -7.2590   -2.1020 h1        1 PIU      0.106700
     31 H7          1.6680   -8.3980   -3.8000 hc        1 PIU      0.102700
     32 H9         -2.1590   -9.8860   -1.5110 ha        1 PIU      0.160000
     33 H121       -3.9260   -9.8070   -2.0790 ha        1 PIU      0.160000
     34 H122       -2.6890  -12.2080   -4.9550 ha        1 PIU      0.197500
     35 H123       -3.5730  -11.0270   -6.0970 ha        1 PIU      0.197500
     36 H131        0.1030   -9.7180   -6.0290 ha        1 PIU      0.196000
     37 H132        0.9430   -6.7840   -4.2480 hc        1 PIU      0.102700
     38 H133        1.3090   -8.0040   -5.5360 hc        1 PIU      0.102700
     39 H141       -3.3940   -8.2980   -5.1760 hc        1 PIU      0.070033
     40 H142       -4.6230   -8.4250   -3.8460 hc        1 PIU      0.070033
     41 H143       -3.6530   -6.9050   -4.0370 hc        1 PIU      0.070033
     42 H13        -1.5230    1.3730   -0.5080 hn        1 PIU      0.469467
     43 C15        -1.0340   -5.6600   -2.7910 c2        1 PIU     -0.142200
@<TRIPOS>BOND
     1    1    2 2   
     2    1    3 2   
     3    1    4 1   
     4    1   10 1   
     5    4   21 1   
     6    4   22 1   
     7    4   42 1   
     8    5    8 3   
     9    5   27 1   
    10    6    7 2   
    11    6    9 1   
    12    6   25 1   
    13    7   10 2   
    14    8   23 1   
    15    9   24 1   
    16    9   43 2   
    17   10   26 1   
    18   11   12 1   
    19   11   29 1   
    20   11   30 1   
    21   11   43 1   
    22   12   15 1   
    23   12   16 2   
    24   13   16 1   
    25   13   17 2   
    26   13   36 1   
    27   14   15 2   
    28   14   32 1   
    29   14   33 1   
    30   15   20 1   
    31   16   19 1   
    32   17   18 2   
    33   18   34 1   
    34   18   35 1   
    35   19   31 1   
    36   19   37 1   
    37   19   38 1   
    38   20   39 1   
    39   20   40 1   
    40   20   41 1   
    41   28   43 1   
@<TRIPOS>SUBSTRUCTURE
     1 PIU         1 TEMP              0 ****  ****    0 ROOT
