@<TRIPOS>MOLECULE
PIU
   43    42     1     0     0
SMALL
bcc


@<TRIPOS>ATOM
      1 S1         -0.8160   -0.6570   -0.7850 s6        1 PIU      2.920000
      2 O1         -0.5410   -1.2420    0.4440 o         1 PIU     -0.845000
      3 O2         -2.3820   -0.1190   -0.7330 os        1 PIU     -0.642000
      4 N1          0.0730    0.5720   -1.1270 n3        1 PIU     -0.941000
      5 C1         -2.6010    1.9220    0.5580 c3        1 PIU     -0.265000
      6 C3         -0.9760   -3.1970   -4.0720 c2        1 PIU     -0.132000
      7 C4         -0.9210   -2.3520   -2.9610 c1        1 PIU      0.378000
      8 C6         -2.9260    0.4550    0.4570 c3        1 PIU      0.000000
      9 C2         -1.3330   -4.4610   -4.0320 c1        1 PIU     -0.042000
     10 C5         -0.8580   -1.5820   -2.0230 c1        1 PIU     -1.042000
     11 C16        -0.8060   -6.8740   -3.9740 c3        1 PIU     -0.020000
     12 N2         -1.5130   -8.1300   -3.7510 n3        1 PIU     -0.251000
     13 C7         -0.8930   -9.9310   -5.2200 c1        1 PIU      0.259000
     14 C9         -3.6540   -8.1540   -2.6380 c2        1 PIU     -0.155000
     15 C10        -2.3120   -8.1520   -2.5490 c2        1 PIU     -0.088000
     16 C11        -0.6980   -9.3320   -3.9150 c3        1 PIU      0.036000
     17 C8         -1.0720  -10.4920   -6.3010 c1        1 PIU     -0.279000
     18 C12        -1.2670  -11.1220   -7.4650 c2        1 PIU      0.289000
     19 C13         0.8100   -9.2140   -3.6360 c3        1 PIU     -0.239000
     20 C14        -1.6220   -8.1700   -1.2220 c3        1 PIU     -0.208000
     21 HN11       -2.5680   -0.1260    1.3510 h1        1 PIU      0.139000
     22 HN12        0.1060    1.0470   -2.0030 hn        1 PIU      0.295000
     23 H1         -1.5180    2.0910    0.7670 hc        1 PIU      0.107667
     24 H3         -2.8760    2.4580   -0.3830 hc        1 PIU      0.107667
     25 H4         -0.7030   -2.7180   -5.0410 ha        1 PIU      0.211000
     26 H6         -4.0350    0.2890    0.3180 h1        1 PIU      0.139000
     27 H151       -3.1920    2.3640    1.4010 hc        1 PIU      0.107667
     28 H152       -2.8140   -5.9170   -4.2110 ha        1 PIU      0.199000
     29 H161       -0.2570   -6.9620   -4.9580 h1        1 PIU      0.105000
     30 H162       -0.0410   -6.6760   -3.1640 h1        1 PIU      0.105000
     31 H7         -1.0990  -10.1350   -3.1920 h1        1 PIU      0.194000
     32 H9         -4.2040   -8.1420   -3.5890 ha        1 PIU      0.142500
     33 H121       -4.2790   -8.1680   -1.7330 ha        1 PIU      0.142500
     34 H122       -0.7090  -12.0490   -7.7210 ha        1 PIU      0.200500
     35 H123       -1.9950  -10.7410   -8.2130 ha        1 PIU      0.200500
     36 H131        1.2920  -10.2180   -3.7250 hc        1 PIU      0.118000
     37 H132        0.9560   -8.8400   -2.5920 hc        1 PIU      0.118000
     38 H133        1.3050   -8.5100   -4.3460 hc        1 PIU      0.118000
     39 H141       -0.9800   -7.2620   -1.0950 hc        1 PIU      0.098000
     40 H142       -0.9730   -9.0750   -1.1200 hc        1 PIU      0.098000
     41 H143       -2.3720   -8.1860   -0.3930 hc        1 PIU      0.098000
     42 H13         0.6950    0.9940   -0.4650 hn        1 PIU      0.295000
     43 C15        -1.7330   -5.6980   -4.0760 c2        1 PIU     -0.073000
@<TRIPOS>BOND
     1    1    2 1   
     2    1    3 1   
     3    1    4 1   
     4    1   10 1   
     5    3    8 1   
     6    4   22 1   
     7    4   42 1   
     8    5    8 1   
     9    5   23 1   
    10    5   24 1   
    11    5   27 1   
    12    6    7 1   
    13    6    9 1   
    14    6   25 1   
    15    7   10 1   
    16    8   21 1   
    17    8   26 1   
    18    9   43 1   
    19   11   12 1   
    20   11   29 1   
    21   11   30 1   
    22   11   43 1   
    23   12   15 1   
    24   12   16 1   
    25   13   16 1   
    26   13   17 1   
    27   14   15 1   
    28   14   32 1   
    29   14   33 1   
    30   15   20 1   
    31   16   19 1   
    32   16   31 1   
    33   17   18 1   
    34   18   34 1   
    35   18   35 1   
    36   19   36 1   
    37   19   37 1   
    38   19   38 1   
    39   20   39 1   
    40   20   40 1   
    41   20   41 1   
    42   28   43 1   
@<TRIPOS>SUBSTRUCTURE
     1 PIU         1 TEMP              0 ****  ****    0 ROOT
