@<TRIPOS>MOLECULE
PIU
   43    42     1     0     0
SMALL
bcc


@<TRIPOS>ATOM
      1 S1         -0.7790   -0.6750   -0.7450 s6        1 PIU      2.920000
      2 O1         -0.6340   -1.2660    0.5040 o         1 PIU     -0.845000
      3 O2         -2.3220   -0.0760   -0.8280 os        1 PIU     -0.642000
      4 N1          0.1830    0.5170   -1.0090 n8        1 PIU     -0.941000
      5 C1         -2.5710    1.9770    0.4380 c3        1 PIU     -0.265000
      6 C3         -0.7550   -3.2210   -4.0300 c2        1 PIU     -0.132000
      7 C4         -0.7630   -2.3750   -2.9200 c1        1 PIU      0.378000
      8 C6         -2.9430    0.5230    0.3100 c3        1 PIU      0.000000
      9 C2         -1.1720   -4.4670   -4.0240 c1        1 PIU     -0.042000
     10 C5         -0.7500   -1.6030   -1.9810 c1        1 PIU     -1.042000
     11 C16        -0.7640   -6.9020   -3.9150 c3        1 PIU     -0.020000
     12 N2         -1.5470   -8.1230   -3.7640 n3        1 PIU     -0.251000
     13 C7         -0.8690   -9.9550   -5.1670 c1        1 PIU      0.259000
     14 C9         -3.7850   -8.0460   -2.8650 c2        1 PIU     -0.155000
     15 C10        -2.4590   -8.1050   -2.6460 c2        1 PIU     -0.088000
     16 C11        -0.7750   -9.3620   -3.8490 c3        1 PIU      0.036000
     17 C8         -0.9680  -10.5110   -6.2620 c1        1 PIU     -0.279000
     18 C12        -1.0770  -11.1350   -7.4390 c2        1 PIU      0.289000
     19 C13         0.7020   -9.3120   -3.4250 c3        1 PIU     -0.239000
     20 C14        -1.9040   -8.1500   -1.2580 c3        1 PIU     -0.208000
     21 HN11        0.3110    0.9860   -1.8790 hn        1 PIU      0.295000
     22 HN12        0.7620    0.9160   -0.2960 hn        1 PIU      0.295000
     23 H1         -1.5040    2.1040    0.7390 hc        1 PIU      0.107667
     24 H3         -2.7430    2.5190   -0.5240 hc        1 PIU      0.107667
     25 H4         -0.3710   -2.7600   -4.9700 ha        1 PIU      0.211000
     26 H6         -4.0420    0.4000    0.0760 h1        1 PIU      0.139000
     27 H151       -3.2140    2.4450    1.2260 hc        1 PIU      0.107667
     28 H152       -2.6960   -5.8540   -4.3380 ha        1 PIU      0.199000
     29 H161       -0.1270   -7.0170   -4.8410 h1        1 PIU      0.105000
     30 H162       -0.0740   -6.7370   -3.0340 h1        1 PIU      0.105000
     31 H7         -1.2810  -10.1440   -3.1700 h1        1 PIU      0.194000
     32 H9         -4.2380   -8.0130   -3.8650 ha        1 PIU      0.142500
     33 H121       -4.4960   -8.0300   -2.0250 ha        1 PIU      0.142500
     34 H122       -0.5390  -12.0870   -7.6420 ha        1 PIU      0.200500
     35 H123       -1.7100  -10.7230   -8.2540 ha        1 PIU      0.200500
     36 H131        1.1440  -10.3370   -3.4670 hc        1 PIU      0.118000
     37 H132        0.7620   -8.9410   -2.3710 hc        1 PIU      0.118000
     38 H133        1.2950   -8.6330   -4.0820 hc        1 PIU      0.118000
     39 H141       -1.2380   -7.2720   -1.0670 hc        1 PIU      0.098000
     40 H142       -1.3090   -9.0840   -1.0940 hc        1 PIU      0.098000
     41 H143       -2.7320   -8.1310   -0.5060 hc        1 PIU      0.098000
     42 H13        -2.6860   -0.0670    1.2320 h1        1 PIU      0.139000
     43 C15        -1.6220   -5.6840   -4.1030 c2        1 PIU     -0.073000
@<TRIPOS>BOND
     1    1    2 1   
     2    1    3 1   
     3    1    4 1   
     4    1   10 1   
     5    3    8 1   
     6    4   21 1   
     7    4   22 1   
     8    5    8 1   
     9    5   23 1   
    10    5   24 1   
    11    5   27 1   
    12    6    7 1   
    13    6    9 1   
    14    6   25 1   
    15    7   10 1   
    16    8   26 1   
    17    8   42 1   
    18    9   43 1   
    19   11   12 1   
    20   11   29 1   
    21   11   30 1   
    22   11   43 1   
    23   12   15 1   
    24   12   16 1   
    25   13   16 1   
    26   13   17 1   
    27   14   15 1   
    28   14   32 1   
    29   14   33 1   
    30   15   20 1   
    31   16   19 1   
    32   16   31 1   
    33   17   18 1   
    34   18   34 1   
    35   18   35 1   
    36   19   36 1   
    37   19   37 1   
    38   19   38 1   
    39   20   39 1   
    40   20   40 1   
    41   20   41 1   
    42   28   43 1   
@<TRIPOS>SUBSTRUCTURE
     1 PIU         1 TEMP              0 ****  ****    0 ROOT
