@<TRIPOS>MOLECULE
PIU
   42    36     1     0     0
SMALL
bcc


@<TRIPOS>ATOM
      1 S1          1.7970    5.5070    2.2750 ss        1 PIU      2.861000
      2 O1          3.2330    5.5070    2.2750 o         1 PIU     -0.925500
      3 O2          1.5190    5.5070    3.6820 o         1 PIU     -0.925500
      4 N1          1.2040    6.8500    1.5520 n2        1 PIU     -0.955000
      5 C1         -0.4110    2.2100    1.4510 c1        1 PIU     -0.145000
      6 C3          1.4120    2.2530   -0.1090 c1        1 PIU     -0.082000
      7 C4          1.8770    3.4310    0.4690 c1        1 PIU     -0.082000
      8 C6          0.0550    3.3880    2.0280 c1        1 PIU     -0.011000
      9 C2          0.2690    1.6450    0.3830 c1        1 PIU     -0.057000
     10 C5          1.1970    3.9950    1.5360 c1        1 PIU     -0.787000
     11 C15        -0.3230    0.4110   -0.3420 c3        1 PIU     -0.138000
     12 C16         0.2570   -0.8600    0.2630 c3        1 PIU     -0.074000
     13 N2         -0.2980   -2.0170   -0.4160 n3        1 PIU     -0.059000
     14 C7         -0.2290   -3.6110   -2.1910 c1        1 PIU     -0.171000
     15 C9         -1.9560   -3.7280   -0.5790 c1        1 PIU     -0.171000
     16 C10        -1.4230   -2.6200    0.0710 c2        1 PIU      0.079000
     17 C11         0.3030   -2.5020   -1.5400 c1        1 PIU      0.078000
     18 C8         -1.3540   -4.2140   -1.7040 c1        1 PIU      0.075000
     19 C12        -1.9170   -5.4480   -2.3960 c3        1 PIU     -0.219000
     20 C13         1.5820   -1.8780   -2.0370 c3        1 PIU     -0.216000
     21 C14        -2.0450   -2.1250    1.3520 c3        1 PIU     -0.216000
     22 HN11        1.6590    7.2350    0.8620 hn        1 PIU      0.252000
     23 HN12        0.4220    7.2170    1.8450 hn        1 PIU      0.252000
     24 H1         -1.2170    1.7830    1.7990 ha        1 PIU      0.138000
     25 H3          1.8910    1.8560   -0.8610 ha        1 PIU      0.150000
     26 H4          2.6830    3.8600    0.1220 ha        1 PIU      0.150000
     27 H6         -0.4230    3.7860    2.7800 ha        1 PIU      0.166000
     28 H151       -1.2940    0.4070   -0.2380 hc        1 PIU      0.109500
     29 H152       -0.0980    0.4520   -1.2910 hc        1 PIU      0.109500
     30 H161        1.2280   -0.8570    0.1600 h1        1 PIU      0.139500
     31 H162        0.0320   -0.9010    1.2120 h1        1 PIU      0.139500
     32 H7          0.2020   -3.9580   -2.9960 ha        1 PIU      0.191000
     33 H9         -2.7600   -4.1580   -0.2310 ha        1 PIU      0.191000
     34 H121       -2.8850   -5.4730   -2.2810 hc        1 PIU      0.126000
     35 H122       -1.7030   -5.4130   -3.3480 hc        1 PIU      0.126000
     36 H123       -1.5220   -6.2500   -2.0030 hc        1 PIU      0.126000
     37 H131        2.2170   -1.8060   -1.2990 hc        1 PIU      0.130000
     38 H132        1.3930   -0.9890   -2.3920 hc        1 PIU      0.130000
     39 H133        1.9640   -2.4350   -2.7420 hc        1 PIU      0.130000
     40 H141       -2.7490   -2.7410    1.6310 hc        1 PIU      0.129667
     41 H142       -1.3620   -2.0740    2.0470 hc        1 PIU      0.129667
     42 H143       -2.4280   -1.2390    1.2060 hc        1 PIU      0.129667
@<TRIPOS>BOND
     1    1    2 1   
     2    1    3 1   
     3    4   22 1   
     4    4   23 1   
     5    5    9 1   
     6    5   24 1   
     7    6    7 1   
     8    6   25 1   
     9    7   26 1   
    10    8   10 1   
    11    8   27 1   
    12    9   11 1   
    13   11   12 1   
    14   11   28 1   
    15   11   29 1   
    16   12   13 1   
    17   12   30 1   
    18   12   31 1   
    19   13   16 1   
    20   13   17 1   
    21   14   18 1   
    22   14   32 1   
    23   15   16 1   
    24   15   33 1   
    25   16   21 1   
    26   17   20 1   
    27   18   19 1   
    28   19   34 1   
    29   19   35 1   
    30   19   36 1   
    31   20   37 1   
    32   20   38 1   
    33   20   39 1   
    34   21   40 1   
    35   21   41 1   
    36   21   42 1   
@<TRIPOS>SUBSTRUCTURE
     1 PIU         1 TEMP              0 ****  ****    0 ROOT
