@<TRIPOS>MOLECULE
PIV
   16    15     1     0     0
SMALL
bcc


@<TRIPOS>ATOM
      1 CT         -0.0360   -0.0000    0.6620 c3        1 PIV     -0.186000
      2 C1          1.3380    0.0000    1.2990 c3        1 PIV     -0.058100
      3 C2         -0.8020   -1.2410    1.0800 c3        1 PIV     -0.058100
      4 C3         -0.8020    1.2410    1.0800 c3        1 PIV     -0.058100
      5 C           0.0850   -0.0000   -0.8960 c         1 PIV      0.920600
      6 O1          1.2370   -0.0000   -1.4130 o         1 PIV     -0.845300
      7 O2         -0.9890   -0.0000   -1.5640 o         1 PIV     -0.845300
      8 H11         1.2620    0.0000    2.4140 hc        1 PIV      0.014589
      9 H12         1.9080   -0.9020    0.9720 hc        1 PIV      0.014589
     10 H13         1.9080    0.9020    0.9720 hc        1 PIV      0.014589
     11 H21        -0.2180   -2.1580    0.8270 hc        1 PIV      0.014589
     12 H22        -0.9990   -1.2380    2.1800 hc        1 PIV      0.014589
     13 H23        -1.7760   -1.2780    0.5340 hc        1 PIV      0.014589
     14 H31        -0.2180    2.1580    0.8270 hc        1 PIV      0.014589
     15 H32        -1.7760    1.2780    0.5340 hc        1 PIV      0.014589
     16 H33        -0.9990    1.2380    2.1800 hc        1 PIV      0.014589
@<TRIPOS>BOND
     1    1    2 1   
     2    1    3 1   
     3    1    4 1   
     4    1    5 1   
     5    2    8 1   
     6    2    9 1   
     7    2   10 1   
     8    3   11 1   
     9    3   12 1   
    10    3   13 1   
    11    4   14 1   
    12    4   15 1   
    13    4   16 1   
    14    5    6 1   
    15    5    7 1   
@<TRIPOS>SUBSTRUCTURE
     1 PIV         1 TEMP              0 ****  ****    0 ROOT
