@<TRIPOS>MOLECULE
PIV
   16    15     1     0     0
SMALL
bcc


@<TRIPOS>ATOM
      1 CT         -0.0260   -0.0630   -0.0360 c3        1 PIV     -0.186000
      2 C1          1.4870   -0.0630   -0.0360 c3        1 PIV     -0.058100
      3 C2         -0.5300   -0.0630    1.3900 c3        1 PIV     -0.058100
      4 C3         -0.5300    1.1720   -0.7490 c3        1 PIV     -0.058100
      5 C          -0.5300   -1.2980   -0.7490 c         1 PIV      0.920600
      6 O1         -1.7210   -1.6740   -0.5920 o         1 PIV     -0.845300
      7 O2          0.2420   -1.9500   -1.5010 o         1 PIV     -0.845300
      8 H11         1.8130   -0.8810    0.3850 hc        1 PIV      0.014589
      9 H12         1.8130   -0.0190   -0.9550 hc        1 PIV      0.014589
     10 H13         1.8130    0.7110    0.4620 hc        1 PIV      0.014589
     11 H21        -1.5030    0.0120    1.3910 hc        1 PIV      0.014589
     12 H22        -0.1450    0.6940    1.8710 hc        1 PIV      0.014589
     13 H23        -0.2670   -0.8940    1.8280 hc        1 PIV      0.014589
     14 H31        -1.5060    1.1860   -0.7260 hc        1 PIV      0.014589
     15 H32        -0.1830    1.9690   -0.3050 hc        1 PIV      0.014589
     16 H33        -0.2270    1.1590   -1.6770 hc        1 PIV      0.014589
@<TRIPOS>BOND
     1    1    2 1   
     2    1    3 1   
     3    1    4 1   
     4    1    5 1   
     5    2    8 1   
     6    2    9 1   
     7    2   10 1   
     8    3   11 1   
     9    3   12 1   
    10    3   13 1   
    11    4   14 1   
    12    4   15 1   
    13    4   16 1   
    14    5    6 1   
    15    5    7 1   
@<TRIPOS>SUBSTRUCTURE
     1 PIV         1 TEMP              0 ****  ****    0 ROOT
