@<TRIPOS>MOLECULE
PIW
   19    20     1     0     0
SMALL
bcc


@<TRIPOS>ATOM
      1 N1         -0.0150    0.0280    0.0160 na        1 PIW     -0.142000
      2 C2          1.3560    0.3610    0.0580 cc        1 PIW      0.400400
      3 N3          1.8400    0.2780    1.3110 nd        1 PIW     -0.663000
      4 C4          0.7680   -0.1190    2.1140 cd        1 PIW      0.294200
      5 C5         -0.3890   -0.2770    1.3340 cc        1 PIW     -0.246600
      6 C6         -0.8440    0.0120   -1.1190 ca        1 PIW      0.016800
      7 C7         -2.2370    0.2080   -0.9940 ca        1 PIW     -0.146500
      8 C8         -3.0470    0.1880   -2.1250 ca        1 PIW     -0.109000
      9 C9         -2.4980   -0.0170   -3.3890 ca        1 PIW     -0.138000
     10 C10        -1.1230   -0.2080   -3.5210 ca        1 PIW     -0.109000
     11 C11        -0.2950   -0.1990   -2.4030 ca        1 PIW     -0.146500
     12 H2          1.9180    0.6570   -0.8330 h5        1 PIW      0.064100
     13 H4          0.8860   -0.2670    3.1870 h4        1 PIW      0.044100
     14 H5         -1.3990   -0.5820    1.5990 h4        1 PIW      0.180000
     15 H7         -2.6890    0.3810   -0.0050 ha        1 PIW      0.142500
     16 H8         -4.1320    0.3410   -2.0150 ha        1 PIW      0.138500
     17 H9         -3.1450   -0.0280   -4.2780 ha        1 PIW      0.139000
     18 H10        -0.6840   -0.3710   -4.5170 ha        1 PIW      0.138500
     19 H11         0.7860   -0.3640   -2.5280 ha        1 PIW      0.142500
@<TRIPOS>BOND
     1    1    2 1   
     2    1    5 1   
     3    1    6 1   
     4    2    3 2   
     5    2   12 1   
     6    3    4 1   
     7    4    5 2   
     8    4   13 1   
     9    5   14 1   
    10    6    7 ar  
    11    6   11 ar  
    12    7    8 ar  
    13    7   15 1   
    14    8    9 ar  
    15    8   16 1   
    16    9   10 ar  
    17    9   17 1   
    18   10   11 ar  
    19   10   18 1   
    20   11   19 1   
@<TRIPOS>SUBSTRUCTURE
     1 PIW         1 TEMP              0 ****  ****    0 ROOT
