@<TRIPOS>MOLECULE
PIW
   19    20     1     0     0
SMALL
bcc


@<TRIPOS>ATOM
      1 N1          0.9770   -0.0240    0.0270 na        1 PIW     -0.142000
      2 C2          1.8260    1.0520    0.3610 cc        1 PIW      0.400400
      3 N3          3.1220    0.6980    0.2770 nd        1 PIW     -0.663000
      4 C4          3.1300   -0.6410   -0.1220 cd        1 PIW      0.294200
      5 C5          1.8150   -1.1080   -0.2800 cc        1 PIW     -0.246600
      6 C6         -0.4280   -0.0170    0.0110 ca        1 PIW      0.016800
      7 C7         -1.1550   -1.2120    0.2050 ca        1 PIW     -0.146500
      8 C8         -2.5460   -1.1910    0.1870 ca        1 PIW     -0.109000
      9 C9         -3.2370    0.0030   -0.0170 ca        1 PIW     -0.138000
     10 C10        -2.5260    1.1870   -0.2060 ca        1 PIW     -0.109000
     11 C11        -1.1350    1.1880   -0.1980 ca        1 PIW     -0.146500
     12 H2          1.4440    2.0340    0.6580 h5        1 PIW      0.064100
     13 H4          4.0630   -1.1830   -0.2700 h4        1 PIW      0.044100
     14 H5          1.4280   -2.0770   -0.5860 h4        1 PIW      0.180000
     15 H7         -0.6290   -2.1630    0.3780 ha        1 PIW      0.142500
     16 H8         -3.1020   -2.1290    0.3380 ha        1 PIW      0.138500
     17 H9         -4.3370    0.0100   -0.0270 ha        1 PIW      0.139000
     18 H10        -3.0660    2.1320   -0.3690 ha        1 PIW      0.138500
     19 H11        -0.5930    2.1330   -0.3620 ha        1 PIW      0.142500
@<TRIPOS>BOND
     1    1    2 1   
     2    1    5 1   
     3    1    6 1   
     4    2    3 2   
     5    2   12 1   
     6    3    4 1   
     7    4    5 2   
     8    4   13 1   
     9    5   14 1   
    10    6    7 ar  
    11    6   11 ar  
    12    7    8 ar  
    13    7   15 1   
    14    8    9 ar  
    15    8   16 1   
    16    9   10 ar  
    17    9   17 1   
    18   10   11 ar  
    19   10   18 1   
    20   11   19 1   
@<TRIPOS>SUBSTRUCTURE
     1 PIW         1 TEMP              0 ****  ****    0 ROOT
