@<TRIPOS>MOLECULE
PIX
   45    47     1     0     0
SMALL
bcc


@<TRIPOS>ATOM
      1 O9         -0.1760   -0.4920    0.1120 o         1 PIX     -0.834300
      2 C8          1.0700   -0.3490   -0.0620 c         1 PIX      0.991600
      3 N3          1.8380    0.2950    1.0140 n         1 PIX     -0.487800
      4 C2          1.2520    0.3010    2.3260 c3        1 PIX      0.086500
      5 C1          1.6970   -0.8380    3.2550 c3        1 PIX     -0.106400
      6 C4          3.2630    0.1000    1.0110 c3        1 PIX      0.086500
      7 C5          3.7700   -1.0490    1.8940 c3        1 PIX     -0.106400
      8 C6          3.2150   -0.9310    3.3040 c3        1 PIX     -0.054700
      9 C7          3.6370   -2.1140    4.1700 c3        1 PIX     -0.044100
     10 C12         5.0680   -2.0440    4.5770 ca        1 PIX     -0.043300
     11 C13         5.4400   -1.3600    5.7430 ca        1 PIX     -0.129000
     12 C14         6.7750   -1.2970    6.1380 ca        1 PIX     -0.125000
     13 C15         7.7680   -1.9130    5.3780 ca        1 PIX     -0.134000
     14 C17         6.0530   -2.6690    3.8040 ca        1 PIX     -0.115000
     15 C16         7.3880   -2.5860    4.2140 ca        1 PIX      0.083100
     16 O18         8.3520   -3.0970    3.3310 os        1 PIX     -0.356400
     17 C19         9.1180   -4.1660    3.7420 ca        1 PIX      0.665600
     18 C20        10.0340   -4.6330    2.7550 ca        1 PIX     -0.269300
     19 C21        10.8500   -5.7040    3.0850 ca        1 PIX     -0.020000
     20 N24         8.9980   -4.7120    4.9830 nb        1 PIX     -0.712000
     21 C23         9.8030   -5.7490    5.2650 ca        1 PIX      0.484200
     22 C24        10.7420   -6.2770    4.3600 ca        1 PIX     -0.346600
     23 C25        11.6290   -7.4340    4.7640 c3        1 PIX      0.702200
     24 F28        12.8320   -7.0620    5.3190 f         1 PIX     -0.240967
     25 F26        11.0840   -8.2770    5.7030 f         1 PIX     -0.240967
     26 F27        11.9900   -8.2700    3.7340 f         1 PIX     -0.240967
     27 OXT         1.6940   -0.6830   -1.1110 o         1 PIX     -0.834300
     28 H21C        1.5260    1.2740    2.8290 h1        1 PIX      0.038700
     29 H22C        0.1310    0.2590    2.2160 h1        1 PIX      0.038700
     30 H41C        3.7480    1.0510    1.3780 h1        1 PIX      0.038700
     31 H42C        3.5960   -0.0860   -0.0500 h1        1 PIX      0.038700
     32 H11C        1.2930   -0.6510    4.2820 hc        1 PIX      0.032200
     33 H12C        1.2720   -1.8070    2.8870 hc        1 PIX      0.032200
     34 H6          3.6150    0.0140    3.7690 hc        1 PIX      0.038700
     35 H51C        4.8900   -1.0280    1.9250 hc        1 PIX      0.032200
     36 H52C        3.4570   -2.0270    1.4450 hc        1 PIX      0.032200
     37 H71C        2.9950   -2.1380    5.0920 hc        1 PIX      0.047700
     38 H72C        3.4480   -3.0670    3.6070 hc        1 PIX      0.047700
     39 H13         4.6650   -0.8650    6.3470 ha        1 PIX      0.136000
     40 H17         5.7860   -3.1960    2.8760 ha        1 PIX      0.158000
     41 H14         7.0500   -0.7570    7.0560 ha        1 PIX      0.128000
     42 H15         8.8220   -1.8770    5.6830 ha        1 PIX      0.138000
     43 H20        10.0690   -4.1450    1.7720 ha        1 PIX      0.171000
     44 H21        11.5710   -6.1080    2.3570 ha        1 PIX      0.154000
     45 H23         9.6840   -6.1840    6.2760 h4        1 PIX      0.039100
@<TRIPOS>BOND
     1    1    2 1   
     2    2    3 1   
     3    2   27 1   
     4    3    4 1   
     5    3    6 1   
     6    4    5 1   
     7    4   28 1   
     8    4   29 1   
     9    5    8 1   
    10    5   32 1   
    11    5   33 1   
    12    6    7 1   
    13    6   30 1   
    14    6   31 1   
    15    7    8 1   
    16    7   35 1   
    17    7   36 1   
    18    8    9 1   
    19    8   34 1   
    20    9   10 1   
    21    9   37 1   
    22    9   38 1   
    23   10   11 ar  
    24   10   14 ar  
    25   11   12 ar  
    26   11   39 1   
    27   12   13 ar  
    28   12   41 1   
    29   13   15 ar  
    30   13   42 1   
    31   14   15 ar  
    32   14   40 1   
    33   15   16 1   
    34   16   17 1   
    35   17   18 ar  
    36   17   20 ar  
    37   18   19 ar  
    38   18   43 1   
    39   19   22 ar  
    40   19   44 1   
    41   20   21 ar  
    42   21   22 ar  
    43   21   45 1   
    44   22   23 1   
    45   23   24 1   
    46   23   25 1   
    47   23   26 1   
@<TRIPOS>SUBSTRUCTURE
     1 PIX         1 TEMP              0 ****  ****    0 ROOT
