@<TRIPOS>MOLECULE
PIX
   45    47     1     0     0
SMALL
bcc


@<TRIPOS>ATOM
      1 O9         -0.1720   -0.4830    0.1060 o         1 PIX     -0.834300
      2 C8          1.0750   -0.3380   -0.0650 c         1 PIX      0.991600
      3 N3          1.8410    0.3020    1.0140 n         1 PIX     -0.487800
      4 C2          1.2520    0.3020    2.3260 c3        1 PIX      0.086500
      5 C1          1.6970   -0.8400    3.2510 c3        1 PIX     -0.106400
      6 C4          3.2650    0.1070    1.0140 c3        1 PIX      0.086500
      7 C5          3.7720   -1.0450    1.8930 c3        1 PIX     -0.106400
      8 C6          3.2140   -0.9330    3.3030 c3        1 PIX     -0.054700
      9 C7          3.6360   -2.1190    4.1650 c3        1 PIX     -0.044100
     10 C12         5.0650   -2.0490    4.5760 ca        1 PIX     -0.043300
     11 C13         5.4340   -1.3670    5.7430 ca        1 PIX     -0.129000
     12 C14         6.7680   -1.3040    6.1420 ca        1 PIX     -0.125000
     13 C15         7.7630   -1.9170    5.3830 ca        1 PIX     -0.134000
     14 C17         6.0530   -2.6710    3.8030 ca        1 PIX     -0.115000
     15 C16         7.3860   -2.5890    4.2160 ca        1 PIX      0.083100
     16 O18         8.3530   -3.0970    3.3340 os        1 PIX     -0.356400
     17 C19         9.1190   -4.1660    3.7440 ca        1 PIX      0.665600
     18 C20        10.0380   -4.6290    2.7580 ca        1 PIX     -0.269300
     19 C21        10.8530   -5.7010    3.0870 ca        1 PIX     -0.020000
     20 N24         8.9960   -4.7150    4.9840 nb        1 PIX     -0.712000
     21 C23         9.8010   -5.7520    5.2660 ca        1 PIX      0.484200
     22 C24        10.7430   -6.2770    4.3610 ca        1 PIX     -0.346600
     23 C25        11.6300   -7.4350    4.7650 c3        1 PIX      0.702200
     24 F28        12.8310   -7.0640    5.3240 f         1 PIX     -0.240967
     25 F26        11.0820   -8.2810    5.6990 f         1 PIX     -0.240967
     26 F27        11.9940   -8.2670    3.7330 f         1 PIX     -0.240967
     27 OXT         1.7010   -0.6680   -1.1140 o         1 PIX     -0.834300
     28 H21C        1.5260    1.2740    2.8330 h1        1 PIX      0.038700
     29 H22C        0.1320    0.2610    2.2140 h1        1 PIX      0.038700
     30 H41C        3.6000   -0.0740   -0.0470 h1        1 PIX      0.038700
     31 H42C        3.7510    1.0570    1.3850 h1        1 PIX      0.038700
     32 H11C        1.2900   -0.6570    4.2780 hc        1 PIX      0.032200
     33 H12C        1.2730   -1.8070    2.8790 hc        1 PIX      0.032200
     34 H6          3.6130    0.0110    3.7720 hc        1 PIX      0.038700
     35 H51C        3.4600   -2.0210    1.4400 hc        1 PIX      0.032200
     36 H52C        4.8910   -1.0230    1.9260 hc        1 PIX      0.032200
     37 H71C        3.4480   -3.0690    3.5980 hc        1 PIX      0.047700
     38 H72C        2.9910   -2.1470    5.0850 hc        1 PIX      0.047700
     39 H13         4.6570   -0.8740    6.3470 ha        1 PIX      0.136000
     40 H17         5.7880   -3.1960    2.8730 ha        1 PIX      0.158000
     41 H14         7.0410   -0.7660    7.0610 ha        1 PIX      0.128000
     42 H15         8.8160   -1.8810    5.6900 ha        1 PIX      0.138000
     43 H20        10.0750   -4.1390    1.7770 ha        1 PIX      0.171000
     44 H21        11.5760   -6.1030    2.3600 ha        1 PIX      0.154000
     45 H23         9.6800   -6.1910    6.2750 h4        1 PIX      0.039100
@<TRIPOS>BOND
     1    1    2 1   
     2    2    3 1   
     3    2   27 1   
     4    3    4 1   
     5    3    6 1   
     6    4    5 1   
     7    4   28 1   
     8    4   29 1   
     9    5    8 1   
    10    5   32 1   
    11    5   33 1   
    12    6    7 1   
    13    6   30 1   
    14    6   31 1   
    15    7    8 1   
    16    7   35 1   
    17    7   36 1   
    18    8    9 1   
    19    8   34 1   
    20    9   10 1   
    21    9   37 1   
    22    9   38 1   
    23   10   11 ar  
    24   10   14 ar  
    25   11   12 ar  
    26   11   39 1   
    27   12   13 ar  
    28   12   41 1   
    29   13   15 ar  
    30   13   42 1   
    31   14   15 ar  
    32   14   40 1   
    33   15   16 1   
    34   16   17 1   
    35   17   18 ar  
    36   17   20 ar  
    37   18   19 ar  
    38   18   43 1   
    39   19   22 ar  
    40   19   44 1   
    41   20   21 ar  
    42   21   22 ar  
    43   21   45 1   
    44   22   23 1   
    45   23   24 1   
    46   23   25 1   
    47   23   26 1   
@<TRIPOS>SUBSTRUCTURE
     1 PIX         1 TEMP              0 ****  ****    0 ROOT
