@<TRIPOS>MOLECULE
PIX
   45    47     1     0     0
SMALL
bcc


@<TRIPOS>ATOM
      1 O9         -0.1820   -0.4940    0.1230 o         1 PIX     -0.834300
      2 C8          1.0640   -0.3530   -0.0550 c         1 PIX      0.991600
      3 N3          1.8370    0.2940    1.0150 n         1 PIX     -0.487800
      4 C2          1.2540    0.3050    2.3300 c3        1 PIX      0.086500
      5 C1          1.7000   -0.8300    3.2620 c3        1 PIX     -0.106400
      6 C4          3.2610    0.0950    1.0100 c3        1 PIX      0.086500
      7 C5          3.7690   -1.0510    1.8950 c3        1 PIX     -0.106400
      8 C6          3.2180   -0.9270    3.3070 c3        1 PIX     -0.054700
      9 C7          3.6400   -2.1070    4.1760 c3        1 PIX     -0.044100
     10 C12         5.0720   -2.0390    4.5790 ca        1 PIX     -0.043300
     11 C13         5.4480   -1.3520    5.7410 ca        1 PIX     -0.129000
     12 C14         6.7840   -1.2900    6.1330 ca        1 PIX     -0.125000
     13 C15         7.7740   -1.9100    5.3720 ca        1 PIX     -0.134000
     14 C17         6.0540   -2.6670    3.8040 ca        1 PIX     -0.115000
     15 C16         7.3900   -2.5860    4.2100 ca        1 PIX      0.083100
     16 O18         8.3510   -3.1010    3.3260 os        1 PIX     -0.356400
     17 C19         9.1160   -4.1700    3.7380 ca        1 PIX      0.665600
     18 C20        10.0280   -4.6400    2.7490 ca        1 PIX     -0.269300
     19 C21        10.8430   -5.7120    3.0800 ca        1 PIX     -0.020000
     20 N24         8.9980   -4.7120    4.9810 nb        1 PIX     -0.712000
     21 C23         9.8020   -5.7500    5.2630 ca        1 PIX      0.484200
     22 C24        10.7380   -6.2820    4.3570 ca        1 PIX     -0.346600
     23 C25        11.6240   -7.4400    4.7620 c3        1 PIX      0.702200
     24 F28        12.8290   -7.0690    5.3130 f         1 PIX     -0.240967
     25 F26        11.0790   -8.2810    5.7030 f         1 PIX     -0.240967
     26 F27        11.9810   -8.2780    3.7320 f         1 PIX     -0.240967
     27 OXT         1.6840   -0.6930   -1.1050 o         1 PIX     -0.834300
     28 H21C        0.1330    0.2660    2.2240 h1        1 PIX      0.038700
     29 H22C        1.5320    1.2810    2.8280 h1        1 PIX      0.038700
     30 H41C        3.7500    1.0460    1.3710 h1        1 PIX      0.038700
     31 H42C        3.5900   -0.0960   -0.0510 h1        1 PIX      0.038700
     32 H11C        1.2990   -0.6390    4.2890 hc        1 PIX      0.032200
     33 H12C        1.2720   -1.8000    2.8990 hc        1 PIX      0.032200
     34 H6          3.6210    0.0190    3.7660 hc        1 PIX      0.038700
     35 H51C        4.8880   -1.0320    1.9220 hc        1 PIX      0.032200
     36 H52C        3.4520   -2.0300    1.4510 hc        1 PIX      0.032200
     37 H71C        3.4470   -3.0620    3.6170 hc        1 PIX      0.047700
     38 H72C        3.0000   -2.1260    5.1000 hc        1 PIX      0.047700
     39 H13         4.6760   -0.8540    6.3470 ha        1 PIX      0.136000
     40 H17         5.7830   -3.1960    2.8780 ha        1 PIX      0.158000
     41 H14         7.0630   -0.7490    7.0490 ha        1 PIX      0.128000
     42 H15         8.8290   -1.8750    5.6730 ha        1 PIX      0.138000
     43 H20        10.0620   -4.1560    1.7650 ha        1 PIX      0.171000
     44 H21        11.5610   -6.1200    2.3500 ha        1 PIX      0.154000
     45 H23         9.6850   -6.1830    6.2750 h4        1 PIX      0.039100
@<TRIPOS>BOND
     1    1    2 1   
     2    2    3 1   
     3    2   27 1   
     4    3    4 1   
     5    3    6 1   
     6    4    5 1   
     7    4   28 1   
     8    4   29 1   
     9    5    8 1   
    10    5   32 1   
    11    5   33 1   
    12    6    7 1   
    13    6   30 1   
    14    6   31 1   
    15    7    8 1   
    16    7   35 1   
    17    7   36 1   
    18    8    9 1   
    19    8   34 1   
    20    9   10 1   
    21    9   37 1   
    22    9   38 1   
    23   10   11 ar  
    24   10   14 ar  
    25   11   12 ar  
    26   11   39 1   
    27   12   13 ar  
    28   12   41 1   
    29   13   15 ar  
    30   13   42 1   
    31   14   15 ar  
    32   14   40 1   
    33   15   16 1   
    34   16   17 1   
    35   17   18 ar  
    36   17   20 ar  
    37   18   19 ar  
    38   18   43 1   
    39   19   22 ar  
    40   19   44 1   
    41   20   21 ar  
    42   21   22 ar  
    43   21   45 1   
    44   22   23 1   
    45   23   24 1   
    46   23   25 1   
    47   23   26 1   
@<TRIPOS>SUBSTRUCTURE
     1 PIX         1 TEMP              0 ****  ****    0 ROOT
