@<TRIPOS>MOLECULE
PIX
   45    47     1     0     0
SMALL
bcc


@<TRIPOS>ATOM
      1 O9         -7.6850   -1.4210    1.4100 o         1 PIX     -0.834300
      2 C8         -6.8350   -1.6830    0.5080 c         1 PIX      0.991600
      3 N3         -6.2710   -0.5550   -0.2460 n         1 PIX     -0.487800
      4 C2         -6.3520    0.7460    0.3620 c3        1 PIX      0.086500
      5 C1         -5.1100    1.1880    1.1480 c3        1 PIX     -0.106400
      6 C4         -5.0450   -0.7890   -0.9610 c3        1 PIX      0.086500
      7 C5         -3.7630   -0.4010   -0.2130 c3        1 PIX     -0.106400
      8 C6         -3.8530    1.0240    0.3080 c3        1 PIX     -0.054700
      9 C7         -2.6230    1.3960    1.1310 c3        1 PIX     -0.044100
     10 C12        -1.4190    1.6320    0.2870 ca        1 PIX     -0.043300
     11 C13        -1.1610    2.9060   -0.2370 ca        1 PIX     -0.129000
     12 C14        -0.0310    3.1400   -1.0200 ca        1 PIX     -0.125000
     13 C15         0.8630    2.1080   -1.2990 ca        1 PIX     -0.134000
     14 C17        -0.5290    0.5850    0.0180 ca        1 PIX     -0.115000
     15 C16         0.5930    0.8390   -0.7770 ca        1 PIX      0.083100
     16 O18         1.3720   -0.2690   -1.1420 os        1 PIX     -0.356400
     17 C19         2.6770   -0.3280   -0.7050 ca        1 PIX      0.665600
     18 C20         3.3640   -1.5150   -1.0960 ca        1 PIX     -0.269300
     19 C21         4.6850   -1.6560   -0.7030 ca        1 PIX     -0.020000
     20 N24         3.2430    0.6670    0.0310 nb        1 PIX     -0.712000
     21 C23         4.5240    0.4940    0.3950 ca        1 PIX      0.484200
     22 C24         5.2850   -0.6390    0.0530 ca        1 PIX     -0.346600
     23 C25         6.7320   -0.7480    0.4840 c3        1 PIX      0.702200
     24 F28         7.6360   -0.2450   -0.4240 f         1 PIX     -0.240967
     25 F26         7.0370   -0.0850    1.6490 f         1 PIX     -0.240967
     26 F27         7.1710   -2.0310    0.7050 f         1 PIX     -0.240967
     27 OXT        -6.4670   -2.8500    0.1820 o         1 PIX     -0.834300
     28 H21C       -6.5220    1.5050   -0.4570 h1        1 PIX      0.038700
     29 H22C       -7.2420    0.7620    1.0540 h1        1 PIX      0.038700
     30 H41C       -4.9920   -1.8830   -1.2270 h1        1 PIX      0.038700
     31 H42C       -5.0770   -0.1900   -1.9170 h1        1 PIX      0.038700
     32 H11C       -5.2310    2.2590    1.4500 hc        1 PIX      0.032200
     33 H12C       -5.0220    0.5750    2.0810 hc        1 PIX      0.032200
     34 H6         -3.9190    1.7240   -0.5720 hc        1 PIX      0.038700
     35 H51C       -3.6050   -1.1070    0.6430 hc        1 PIX      0.032200
     36 H52C       -2.8860   -0.4970   -0.9040 hc        1 PIX      0.032200
     37 H71C       -2.8460    2.3270    1.7190 hc        1 PIX      0.047700
     38 H72C       -2.4150    0.5760    1.8700 hc        1 PIX      0.047700
     39 H13        -1.8630    3.7270   -0.0290 ha        1 PIX      0.136000
     40 H17        -0.7220   -0.4270    0.4040 ha        1 PIX      0.158000
     41 H14         0.1570    4.1460   -1.4240 ha        1 PIX      0.128000
     42 H15         1.7600    2.2810   -1.9070 ha        1 PIX      0.138000
     43 H20         2.8380   -2.2780   -1.6840 ha        1 PIX      0.171000
     44 H21         5.2600   -2.5570   -0.9720 ha        1 PIX      0.154000
     45 H23         4.9630    1.3100    1.0000 h4        1 PIX      0.039100
@<TRIPOS>BOND
     1    1    2 1   
     2    2    3 1   
     3    2   27 1   
     4    3    4 1   
     5    3    6 1   
     6    4    5 1   
     7    4   28 1   
     8    4   29 1   
     9    5    8 1   
    10    5   32 1   
    11    5   33 1   
    12    6    7 1   
    13    6   30 1   
    14    6   31 1   
    15    7    8 1   
    16    7   35 1   
    17    7   36 1   
    18    8    9 1   
    19    8   34 1   
    20    9   10 1   
    21    9   37 1   
    22    9   38 1   
    23   10   11 ar  
    24   10   14 ar  
    25   11   12 ar  
    26   11   39 1   
    27   12   13 ar  
    28   12   41 1   
    29   13   15 ar  
    30   13   42 1   
    31   14   15 ar  
    32   14   40 1   
    33   15   16 1   
    34   16   17 1   
    35   17   18 ar  
    36   17   20 ar  
    37   18   19 ar  
    38   18   43 1   
    39   19   22 ar  
    40   19   44 1   
    41   20   21 ar  
    42   21   22 ar  
    43   21   45 1   
    44   22   23 1   
    45   23   24 1   
    46   23   25 1   
    47   23   26 1   
@<TRIPOS>SUBSTRUCTURE
     1 PIX         1 TEMP              0 ****  ****    0 ROOT
