@<TRIPOS>MOLECULE
PIY
   19    20     1     0     0
SMALL
bcc


@<TRIPOS>ATOM
      1 N1          0.0380    0.3170    0.0190 na        1 PIY     -0.307900
      2 C2          1.3940   -0.0670    0.0150 cc        1 PIY      0.443000
      3 N3          1.7850   -0.4400    1.2670 nd        1 PIY     -0.655000
      4 C4         -0.4250    0.1770    1.3220 cc        1 PIY     -0.255600
      5 C5          0.6680   -0.2940    2.0780 cd        1 PIY      0.293200
      6 C6          2.2260   -0.0450   -1.1860 ca        1 PIY     -0.118500
      7 C7          3.6090    0.1540   -1.0630 ca        1 PIY     -0.109000
      8 C8          4.4120    0.1770   -2.2020 ca        1 PIY     -0.132000
      9 C9          3.8470    0.0040   -3.4660 ca        1 PIY     -0.122000
     10 C10         2.4720   -0.2000   -3.5890 ca        1 PIY     -0.132000
     11 C11         1.6620   -0.2270   -2.4560 ca        1 PIY     -0.109000
     12 H4         -1.4480    0.4090    1.6080 h4        1 PIY      0.177000
     13 H5          0.7020   -0.5300    3.1400 h4        1 PIY      0.043100
     14 H7          4.0600    0.2870   -0.0670 ha        1 PIY      0.140500
     15 H8          5.4960    0.3320   -2.1010 ha        1 PIY      0.134500
     16 H9          4.4830    0.0240   -4.3620 ha        1 PIY      0.134000
     17 H10         2.0250   -0.3440   -4.5840 ha        1 PIY      0.134500
     18 H11         0.5840   -0.4100   -2.5710 ha        1 PIY      0.140500
     19 HN1        -0.4740    0.6420   -0.7570 hn        1 PIY      0.300700
@<TRIPOS>BOND
     1    1    2 1   
     2    1    4 1   
     3    1   19 1   
     4    2    3 2   
     5    2    6 1   
     6    3    5 1   
     7    4    5 2   
     8    4   12 1   
     9    5   13 1   
    10    6    7 ar  
    11    6   11 ar  
    12    7    8 ar  
    13    7   14 1   
    14    8    9 ar  
    15    8   15 1   
    16    9   10 ar  
    17    9   16 1   
    18   10   11 ar  
    19   10   17 1   
    20   11   18 1   
@<TRIPOS>SUBSTRUCTURE
     1 PIY         1 TEMP              0 ****  ****    0 ROOT
