@<TRIPOS>MOLECULE
PIY
   19    20     1     0     0
SMALL
bcc


@<TRIPOS>ATOM
      1 N1         -1.8080    1.0320    0.3190 na        1 PIY     -0.307900
      2 C2         -1.0030   -0.0580   -0.0660 cc        1 PIY      0.443000
      3 N3         -1.7800   -1.1130   -0.4430 nd        1 PIY     -0.655000
      4 C4         -3.1330    0.6350    0.1760 cc        1 PIY     -0.255600
      5 C5         -3.0950   -0.6920   -0.2970 cd        1 PIY      0.293200
      6 C6          0.4580   -0.0190   -0.0420 ca        1 PIY     -0.119500
      7 C7          1.1760   -1.2070    0.1550 ca        1 PIY     -0.109000
      8 C8          2.5700   -1.1810    0.1790 ca        1 PIY     -0.132000
      9 C9          3.2540    0.0220    0.0100 ca        1 PIY     -0.122000
     10 C10         2.5420    1.2040   -0.1920 ca        1 PIY     -0.132000
     11 C11         1.1490    1.1870   -0.2210 ca        1 PIY     -0.109000
     12 H4         -3.9690    1.2900    0.4090 h4        1 PIY      0.177000
     13 H5         -3.9320   -1.3470   -0.5360 h4        1 PIY      0.043100
     14 H7          0.6400   -2.1600    0.2850 ha        1 PIY      0.140500
     15 H8          3.1300   -2.1150    0.3330 ha        1 PIY      0.134500
     16 H9          4.3540    0.0390    0.0320 ha        1 PIY      0.134000
     17 H10         3.0790    2.1530   -0.3340 ha        1 PIY      0.134500
     18 H11         0.6040    2.1250   -0.4030 ha        1 PIY      0.140500
     19 HN1        -1.4860    1.9030    0.6470 hn        1 PIY      0.300700
@<TRIPOS>BOND
     1    1    2 1   
     2    1    4 1   
     3    1   19 1   
     4    2    3 2   
     5    2    6 1   
     6    3    5 1   
     7    4    5 2   
     8    4   12 1   
     9    5   13 1   
    10    6    7 ar  
    11    6   11 ar  
    12    7    8 ar  
    13    7   14 1   
    14    8    9 ar  
    15    8   15 1   
    16    9   10 ar  
    17    9   16 1   
    18   10   11 ar  
    19   10   17 1   
    20   11   18 1   
@<TRIPOS>SUBSTRUCTURE
     1 PIY         1 TEMP              0 ****  ****    0 ROOT
