@<TRIPOS>MOLECULE
PIY
   19    20     1     0     0
SMALL
bcc


@<TRIPOS>ATOM
      1 N1          0.0280    0.2780    0.0110 na        1 PIY     -0.307900
      2 C2          1.3980   -0.0510    0.0180 cc        1 PIY      0.443000
      3 N3          1.8050   -0.3620    1.2820 nd        1 PIY     -0.655000
      4 C4         -0.4280    0.1680    1.3200 cc        1 PIY     -0.255600
      5 C5          0.6830   -0.2300    2.0900 cd        1 PIY      0.293200
      6 C6          2.2280   -0.0410   -1.1850 ca        1 PIY     -0.118500
      7 C7          3.6010    0.2170   -1.0730 ca        1 PIY     -0.109000
      8 C8          4.4020    0.2290   -2.2140 ca        1 PIY     -0.132000
      9 C9          3.8430   -0.0130   -3.4690 ca        1 PIY     -0.122000
     10 C10         2.4770   -0.2750   -3.5810 ca        1 PIY     -0.132000
     11 C11         1.6700   -0.2920   -2.4460 ca        1 PIY     -0.109000
     12 H4         -1.4600    0.3700    1.5990 h4        1 PIY      0.177000
     13 H5          0.7280   -0.4250    3.1600 h4        1 PIY      0.043100
     14 H7          4.0480    0.4040   -0.0840 ha        1 PIY      0.140500
     15 H8          5.4790    0.4300   -2.1210 ha        1 PIY      0.134500
     16 H9          4.4770   -0.0000   -4.3670 ha        1 PIY      0.134000
     17 H10         2.0350   -0.4730   -4.5690 ha        1 PIY      0.134500
     18 H11         0.6000   -0.5220   -2.5510 ha        1 PIY      0.140500
     19 HN1        -0.4980    0.5530   -0.7750 hn        1 PIY      0.300700
@<TRIPOS>BOND
     1    1    2 1   
     2    1    4 1   
     3    1   19 1   
     4    2    3 2   
     5    2    6 1   
     6    3    5 1   
     7    4    5 2   
     8    4   12 1   
     9    5   13 1   
    10    6    7 ar  
    11    6   11 ar  
    12    7    8 ar  
    13    7   14 1   
    14    8    9 ar  
    15    8   15 1   
    16    9   10 ar  
    17    9   16 1   
    18   10   11 ar  
    19   10   17 1   
    20   11   18 1   
@<TRIPOS>SUBSTRUCTURE
     1 PIY         1 TEMP              0 ****  ****    0 ROOT
