@<TRIPOS>MOLECULE
PJ2
   53    53     1     0     0
SMALL
bcc


@<TRIPOS>ATOM
      1 CAA         8.3790    3.6170   -0.3360 c3        1 PJ2     -0.092100
      2 OAB        -7.5480    2.8740    0.2380 o         1 PJ2     -0.850800
      3 OAD        -7.4930    3.1710   -1.9740 o         1 PJ2     -0.850800
      4 OAE         3.2410    0.2040    2.0250 oh        1 PJ2     -0.596800
      5 CAF        -4.2500   -1.0720    0.8410 c2        1 PJ2     -0.120200
      6 CAG        -3.1680   -1.8280    1.0620 c2        1 PJ2     -0.235200
      7 CAH        -0.3630   -4.2420   -1.1810 ce        1 PJ2     -0.269200
      8 CAI        -1.3400   -3.8710   -0.3290 c2        1 PJ2     -0.086200
      9 CAK         6.9740    3.3920    0.1610 c3        1 PJ2     -0.080400
     10 CAL        -4.2720    0.1360   -0.0160 c3        1 PJ2     -0.063200
     11 CAM        -1.8330   -1.5450    0.4840 c3        1 PJ2     -0.027200
     12 CAN         2.6780   -1.2280    0.1390 c3        1 PJ2     -0.097200
     13 CAO         6.4870    1.9960   -0.1650 c3        1 PJ2     -0.078400
     14 CAP        -5.6460    0.7710   -0.0890 c3        1 PJ2     -0.064400
     15 CAQ         5.0780    1.7750    0.3420 c3        1 PJ2     -0.080400
     16 CAR        -5.6530    1.9930   -0.9720 c3        1 PJ2     -0.196400
     17 CAS         4.5830    0.3860    0.0030 c3        1 PJ2     -0.109400
     18 CAT        -7.0030    2.7300   -0.8950 c         1 PJ2      0.908600
     19 CAU         0.8480   -3.4050   -0.9700 c         1 PJ2      0.567500
     20 CAV         0.5070   -2.4400    0.1160 ce        1 PJ2     -0.228400
     21 CAW         3.2060    0.1260    0.6070 c3        1 PJ2      0.135100
     22 CAX        -0.9020   -2.7420    0.5770 c3        1 PJ2     -0.009300
     23 HAA         9.0850    2.8920    0.1350 hc        1 PJ2      0.030700
     24 HAAA        8.4310    3.4870   -1.4440 hc        1 PJ2      0.030700
     25 HAAB        8.7180    4.6520   -0.0870 hc        1 PJ2      0.030700
     26 HOAE        3.8450   -0.4810    2.3340 ho        1 PJ2      0.394000
     27 HAF        -5.2110   -1.3330    1.3180 ha        1 PJ2      0.125000
     28 HAG        -3.2310   -2.7120    1.7160 ha        1 PJ2      0.106000
     29 HAH        -0.3890   -5.0220   -1.9420 ha        1 PJ2      0.155000
     30 HAI        -2.3510   -4.2750   -0.2480 ha        1 PJ2      0.152000
     31 HAJ         0.9390   -0.8200    1.4200 ha        1 PJ2      0.145000
     32 HAK         6.9370    3.5510    1.2710 hc        1 PJ2      0.040700
     33 HAKA        6.2850    4.1460   -0.3030 hc        1 PJ2      0.040700
     34 HAL        -3.5330    0.8850    0.3820 hc        1 PJ2      0.041700
     35 HALA       -3.9280   -0.1340   -1.0520 hc        1 PJ2      0.041700
     36 HAM        -1.9370   -1.2290   -0.5900 hc        1 PJ2      0.055700
     37 HAMA       -1.3670   -0.6810    1.0340 hc        1 PJ2      0.055700
     38 HAN         3.3490   -2.0460    0.5190 hc        1 PJ2      0.073700
     39 HANA        2.7170   -1.2770   -0.9840 hc        1 PJ2      0.073700
     40 HAO         6.5170    1.8370   -1.2750 hc        1 PJ2      0.037200
     41 HAOA        7.1770    1.2410    0.2960 hc        1 PJ2      0.037200
     42 HAP        -6.3840    0.0230   -0.4810 hc        1 PJ2      0.046700
     43 HAPA       -5.9920    1.0680    0.9380 hc        1 PJ2      0.046700
     44 HAQ         5.0440    1.9170    1.4550 hc        1 PJ2      0.049700
     45 HAQA        4.3900    2.5380   -0.1090 hc        1 PJ2      0.049700
     46 HAR        -4.8560    2.7080   -0.6450 hc        1 PJ2      0.020200
     47 HARA       -5.4460    1.7100   -2.0340 hc        1 PJ2      0.020200
     48 HAS         4.5220    0.2630   -1.1090 hc        1 PJ2      0.045200
     49 HASA        5.3070   -0.3800    0.3880 hc        1 PJ2      0.045200
     50 HAW         2.4910    0.9480    0.3150 h1        1 PJ2      0.083700
     51 HAX        -0.8760   -3.1100    1.6400 hc        1 PJ2      0.070700
     52 CAJ         1.2970   -1.4810    0.6090 c2        1 PJ2     -0.070200
     53 OAC         1.9220   -3.4990   -1.5690 o         1 PJ2     -0.548100
@<TRIPOS>BOND
     1    1    9 1   
     2    1   23 1   
     3    1   24 1   
     4    1   25 1   
     5    2   18 1   
     6    3   18 1   
     7    4   21 1   
     8    4   26 1   
     9    5    6 2   
    10    5   10 1   
    11    5   27 1   
    12    6   11 1   
    13    6   28 1   
    14    7    8 2   
    15    7   19 1   
    16    7   29 1   
    17    8   22 1   
    18    8   30 1   
    19    9   13 1   
    20    9   32 1   
    21    9   33 1   
    22   10   14 1   
    23   10   34 1   
    24   10   35 1   
    25   11   22 1   
    26   11   36 1   
    27   11   37 1   
    28   12   21 1   
    29   12   38 1   
    30   12   39 1   
    31   12   52 1   
    32   13   15 1   
    33   13   40 1   
    34   13   41 1   
    35   14   16 1   
    36   14   42 1   
    37   14   43 1   
    38   15   17 1   
    39   15   44 1   
    40   15   45 1   
    41   16   18 1   
    42   16   46 1   
    43   16   47 1   
    44   17   21 1   
    45   17   48 1   
    46   17   49 1   
    47   19   20 1   
    48   19   53 2   
    49   20   22 1   
    50   20   52 2   
    51   21   50 1   
    52   22   51 1   
    53   31   52 1   
@<TRIPOS>SUBSTRUCTURE
     1 PJ2         1 TEMP              0 ****  ****    0 ROOT
