@<TRIPOS>MOLECULE
PJ2
   53    47     1     0     0
SMALL
bcc


@<TRIPOS>ATOM
      1 CAA         4.9020    2.3010   -1.7200 c3        1 PJ2     -0.203000
      2 OAB         7.8070    1.6040    1.5840 o         1 PJ2     -0.558500
      3 OAD         8.9670   -0.2780    1.8300 o         1 PJ2     -0.558500
      4 OAE         8.3720   -2.3570    3.8710 oh        1 PJ2     -0.360000
      5 CAF        12.6590    2.9090   -1.1930 c2        1 PJ2     -0.477000
      6 CAG        13.4560    3.2930   -2.1720 c1        1 PJ2      0.270000
      7 CAH         7.6510    2.1400    7.9030 c1        1 PJ2      0.020000
      8 CAI         8.3030    3.0590    6.9550 c3        1 PJ2     -0.241000
      9 CAK         5.3530    1.3670   -0.6280 c3        1 PJ2     -0.177000
     10 CAL        11.4600    2.1660   -1.4120 c1        1 PJ2      0.035000
     11 CAM         8.6040    3.0790    4.4560 c2        1 PJ2     -0.206000
     12 CAN         6.5790   -0.9460    4.7260 c3        1 PJ2     -0.212000
     13 CAO         4.3660    1.3290    0.5200 c3        1 PJ2     -0.159000
     14 CAP        10.6300    1.7750   -0.4180 c1        1 PJ2     -0.245000
     15 CAQ         4.8460    0.3970    1.6140 c3        1 PJ2     -0.281000
     16 CAR         9.7960    1.3580    0.3680 c1        1 PJ2     -0.025000
     17 CAS         4.1740    0.4400    2.8780 c1        1 PJ2     -0.093000
     18 CAT         8.8000    0.8630    1.3120 c2        1 PJ2      0.412000
     19 CAU         7.1050    0.9870    7.0860 c2        1 PJ2      0.180000
     20 CAV         7.4970    1.1840    5.6720 c2        1 PJ2     -0.242000
     21 CAW         7.0370   -1.9420    3.6690 c3        1 PJ2     -0.008000
     22 CAX         8.1790    2.4820    5.5680 c2        1 PJ2     -0.107000
     23 HAA         3.9130    1.9850   -2.1320 hc        1 PJ2      0.061333
     24 HAAA        4.8000    3.3430   -1.3290 hc        1 PJ2      0.061333
     25 HAAB        5.6450    2.3100   -2.5530 hc        1 PJ2      0.061333
     26 HOAE        8.9410   -1.6710    3.4870 ho        1 PJ2      0.236000
     27 HAF        12.9530    3.1870   -0.1540 ha        1 PJ2      0.176000
     28 HAG         9.0990    4.0580    4.4810 ha        1 PJ2      0.134000
     29 HAH         7.8210    4.0720    7.0290 hc        1 PJ2      0.141000
     30 HAI         9.3800    3.1850    7.2530 hc        1 PJ2      0.141000
     31 HAJ         6.6780   -1.3990    5.7480 hc        1 PJ2      0.128500
     32 HAK         6.3580    1.6880   -0.2320 hc        1 PJ2      0.103500
     33 HAKA        5.4810    0.3320   -1.0420 hc        1 PJ2      0.103500
     34 HAL        10.1740   -4.4340    3.6000 ha        1 PJ2      0.000375
     35 HALA       10.0080   -3.8740    3.2570 ha        1 PJ2      0.000375
     36 HAM        11.1490   -1.9090    2.8270 ha        1 PJ2      0.000375
     37 HAMA       10.7190   -1.7030    2.3440 ha        1 PJ2      0.000375
     38 HAN         7.6920    0.5950    3.6290 ha        1 PJ2      0.189000
     39 HANA        5.4830   -0.7270    4.5450 hc        1 PJ2      0.128500
     40 HAO         4.2370    2.3630    0.9340 hc        1 PJ2      0.063000
     41 HAOA        3.3630    0.9910    0.1490 hc        1 PJ2      0.063000
     42 HAP         7.1700   -0.9280    0.4140 ha        1 PJ2      0.000375
     43 HAPA        6.8280   -1.4060    0.0740 ha        1 PJ2      0.000375
     44 HAQ         4.8960   -0.6600    1.2310 hc        1 PJ2      0.181000
     45 HAQA        5.9400    0.6560    1.8790 hc        1 PJ2      0.181000
     46 HAR         8.6310   -2.5240    1.3350 ha        1 PJ2      0.000375
     47 HARA        9.0260   -3.0710    1.4010 ha        1 PJ2      0.000375
     48 HAS         6.9180   -1.4990    2.6410 h1        1 PJ2      0.084000
     49 HASA        6.4240   -2.8800    3.7520 h1        1 PJ2      0.084000
     50 HAW         3.5640    1.3360    3.0830 ha        1 PJ2      0.023000
     51 HAX         8.4770    2.6320    3.4550 ha        1 PJ2      0.134000
     52 CAJ         7.3040    0.3360    4.6430 c2        1 PJ2      0.001000
     53 OAC         6.4430    0.0600    7.5590 o         1 PJ2     -0.249000
@<TRIPOS>BOND
     1    1    9 1   
     2    1   23 1   
     3    1   24 1   
     4    1   25 1   
     5    2   18 1   
     6    3   18 1   
     7    4   21 1   
     8    4   26 1   
     9    5    6 1   
    10    5   10 1   
    11    5   27 1   
    12    7    8 1   
    13    7   19 1   
    14    8   22 1   
    15    8   29 1   
    16    8   30 1   
    17    9   13 1   
    18    9   32 1   
    19    9   33 1   
    20   10   14 1   
    21   11   22 1   
    22   11   28 1   
    23   11   51 1   
    24   12   21 1   
    25   12   31 1   
    26   12   39 1   
    27   12   52 1   
    28   13   15 1   
    29   13   40 1   
    30   13   41 1   
    31   14   16 1   
    32   15   17 1   
    33   15   44 1   
    34   15   45 1   
    35   16   18 1   
    36   17   50 1   
    37   19   20 1   
    38   19   53 1   
    39   20   22 1   
    40   20   52 1   
    41   21   48 1   
    42   21   49 1   
    43   34   35 1   
    44   36   37 1   
    45   38   52 1   
    46   42   43 1   
    47   46   47 1   
@<TRIPOS>SUBSTRUCTURE
     1 PJ2         1 TEMP              0 ****  ****    0 ROOT
