@<TRIPOS>MOLECULE
PJ2
   53    48     1     0     0
SMALL
bcc


@<TRIPOS>ATOM
      1 CAA         3.2480    0.0540   -6.2900 c3        1 PJ2     -0.209000
      2 OAB         1.6120   -7.0640    2.8930 o         1 PJ2     -0.584500
      3 OAC        -0.3170    4.2230    1.7270 o         1 PJ2     -0.301000
      4 OAD         2.3060   -6.3980    4.8650 o         1 PJ2     -0.584500
      5 OAE        -2.0660    2.9930   -2.8880 oh        1 PJ2     -0.329000
      6 CAF        -1.4050   -2.3150    4.1450 c1        1 PJ2     -0.170000
      7 CAG        -1.9510   -1.1130    3.8010 c1        1 PJ2     -0.170000
      8 CAH        -1.3550    3.1380    3.5160 c1        1 PJ2     -0.170000
      9 CAI        -1.8520    1.8880    3.7870 c1        1 PJ2     -0.170000
     10 CAJ        -1.3350    1.7140    0.0850 c1        1 PJ2     -0.079000
     11 CAK         1.7730    0.4600   -6.0550 c3        1 PJ2     -0.159000
     12 CAL        -0.0750   -2.7490    3.5460 c2        1 PJ2     -0.146000
     13 CAM        -1.2270   -0.1970    2.8080 c2        1 PJ2     -0.109000
     14 CAN        -0.7900    2.7720   -0.8910 c2        1 PJ2     -0.189000
     15 CAO         1.7050    1.5680   -4.9700 c3        1 PJ2     -0.156000
     16 CAP         0.2250   -4.2130    3.9640 c3        1 PJ2     -0.144000
     17 CAQ         0.2840    1.6230   -4.3830 c3        1 PJ2     -0.159000
     18 CAR         1.5520   -4.6700    3.3310 c3        1 PJ2     -0.226000
     19 CAS         0.2700    2.5550   -3.1420 c3        1 PJ2     -0.151000
     20 CAT         1.8290   -6.1300    3.7250 c2        1 PJ2      0.329000
     21 CAU        -1.0620    3.3740    2.1560 c1        1 PJ2      0.289000
     22 CAV        -1.4450    2.0050    1.4270 c2        1 PJ2     -0.197000
     23 CAW        -1.0040    2.2980   -2.3230 c3        1 PJ2      0.031000
     24 CAX        -1.9990    1.0160    2.6200 c2        1 PJ2     -0.059000
     25 HAA         3.7240    0.7920   -6.7500 hc        1 PJ2      0.069000
     26 HAAA        3.2800   -0.7620   -6.8530 hc        1 PJ2      0.069000
     27 HAAB        3.6790   -0.1270   -5.4270 hc        1 PJ2      0.069000
     28 HOAE       -2.7080    2.4270   -3.1010 ho        1 PJ2      0.200000
     29 HAF        -1.8690   -2.8990    4.7790 ha        1 PJ2      0.133250
     30 HAG        -2.7990   -0.8380    4.1840 ha        1 PJ2      0.133250
     31 HAH        -1.5650    3.8880    4.1090 ha        1 PJ2      0.133250
     32 HAI        -2.4040    1.7440    4.5730 ha        1 PJ2      0.133250
     33 HAJ        -1.6020    0.8360   -0.2470 ha        1 PJ2      0.132000
     34 HAK         1.3900    0.7980   -6.8920 hc        1 PJ2      0.080000
     35 HAKA        1.2590   -0.3260   -5.7540 hc        1 PJ2      0.080000
     36 HAL         0.6400   -2.1620    3.8750 ha        1 PJ2      0.079500
     37 HALA       -0.1220   -2.6920    2.5810 ha        1 PJ2      0.079500
     38 HAM        -0.3440    0.0300    3.1590 ha        1 PJ2      0.093000
     39 HAMA       -1.1290   -0.6570    1.9520 ha        1 PJ2      0.093000
     40 HAN        -1.2620    3.6150   -0.7530 ha        1 PJ2      0.121500
     41 HANA        0.1680    2.9030   -0.7290 ha        1 PJ2      0.121500
     42 HAO         1.9250    2.4310   -5.3720 hc        1 PJ2      0.076000
     43 HAOA        2.3370    1.3700   -4.2680 hc        1 PJ2      0.076000
     44 HAP         0.2950   -4.2660    4.9440 hc        1 PJ2      0.087000
     45 HAPA       -0.5010   -4.7960    3.6560 hc        1 PJ2      0.087000
     46 HAQ        -0.3360    1.9710   -5.0600 hc        1 PJ2      0.088500
     47 HAQA        0.0050    0.7210   -4.1180 hc        1 PJ2      0.088500
     48 HAR         1.4890   -4.6000    2.3470 hc        1 PJ2      0.059000
     49 HARA        2.2760   -4.1040    3.6520 hc        1 PJ2      0.059000
     50 HAS         0.2870    3.4880   -3.4350 hc        1 PJ2      0.088500
     51 HASA        1.0520    2.3730   -2.5920 hc        1 PJ2      0.088500
     52 HAW        -1.2010    1.3520   -2.3230 h1        1 PJ2      0.078000
     53 HAX        -2.8870    0.6550    2.4120 ha        1 PJ2      0.118000
@<TRIPOS>BOND
     1    1   11 1   
     2    1   25 1   
     3    1   26 1   
     4    1   27 1   
     5    2   20 1   
     6    3   21 1   
     7    4   20 1   
     8    5   23 1   
     9    5   28 1   
    10    6    7 1   
    11    6   29 1   
    12    7   30 1   
    13    8    9 1   
    14    8   31 1   
    15    9   32 1   
    16   10   22 1   
    17   10   33 1   
    18   11   15 1   
    19   11   34 1   
    20   11   35 1   
    21   12   16 1   
    22   12   36 1   
    23   12   37 1   
    24   13   24 1   
    25   13   38 1   
    26   13   39 1   
    27   14   23 1   
    28   14   40 1   
    29   14   41 1   
    30   15   17 1   
    31   15   42 1   
    32   15   43 1   
    33   16   18 1   
    34   16   44 1   
    35   16   45 1   
    36   17   19 1   
    37   17   46 1   
    38   17   47 1   
    39   18   20 1   
    40   18   48 1   
    41   18   49 1   
    42   19   23 1   
    43   19   50 1   
    44   19   51 1   
    45   21   22 1   
    46   22   24 1   
    47   23   52 1   
    48   24   53 1   
@<TRIPOS>SUBSTRUCTURE
     1 PJ2         1 TEMP              0 ****  ****    0 ROOT
