@<TRIPOS>MOLECULE
PJ2
   53    47     1     0     0
SMALL
bcc


@<TRIPOS>ATOM
      1 CAA         3.2050    0.7740   -1.8040 c3        1 PJ2     -0.203000
      2 OAB         7.2130    2.0560    1.1080 o         1 PJ2     -0.551500
      3 OAD         7.1230   -0.0420    0.3740 o         1 PJ2     -0.551500
      4 OAE         8.7020   -1.8780    3.3890 oh        1 PJ2     -0.350000
      5 CAF        12.6280    1.0660   -0.5280 c2        1 PJ2     -0.484000
      6 CAG        13.8010    1.2800   -1.0900 c1        1 PJ2      0.263000
      7 CAH         9.0070    2.5540    7.5150 c1        1 PJ2      0.019000
      8 CAI         9.2540    3.3310    6.2960 c3        1 PJ2     -0.239000
      9 CAK         3.8880    0.2490   -0.5700 c3        1 PJ2     -0.172000
     10 CAL        11.3870    1.4590   -1.1210 c1        1 PJ2      0.041000
     11 CAM         8.4300    3.2130    3.9240 c2        1 PJ2     -0.173000
     12 CAN         7.0470   -0.2690    4.1670 c2        1 PJ2     -0.170000
     13 CAO         3.5340    1.0630    0.6570 c3        1 PJ2     -0.155000
     14 CAP        10.1970    1.2940   -0.4970 c1        1 PJ2     -0.258000
     15 CAQ         4.3570    0.6220    1.8480 c3        1 PJ2     -0.278000
     16 CAR         9.0650    1.1980   -0.0520 c1        1 PJ2     -0.022000
     17 CAS         4.2890    1.3880    3.0520 c1        1 PJ2     -0.108000
     18 CAT         7.7190    1.0680    0.5020 c2        1 PJ2      0.405000
     19 CAU         7.9650    1.5150    7.1720 c2        1 PJ2      0.146000
     20 CAV         7.6240    1.5980    5.6860 c3        1 PJ2     -0.107000
     21 CAW         7.3410   -1.4810    3.3570 c3        1 PJ2     -0.018000
     22 CAX         8.4370    2.7600    5.1740 c2        1 PJ2     -0.176000
     23 HAA         2.0940    0.7640   -1.6800 hc        1 PJ2      0.060000
     24 HAAA        3.5230    1.8240   -2.0120 hc        1 PJ2      0.060000
     25 HAAB        3.4660    0.1460   -2.6900 hc        1 PJ2      0.060000
     26 HOAE        9.1980   -1.2080    2.9000 ho        1 PJ2      0.207000
     27 HAF        12.6160    0.5430    0.4580 ha        1 PJ2      0.181000
     28 HAG         9.0390    4.0740    3.6170 ha        1 PJ2      0.143500
     29 HAH         9.0010    4.4100    6.4920 hc        1 PJ2      0.147000
     30 HAI        10.3550    3.2980    6.0620 hc        1 PJ2      0.147000
     31 HAJ         6.5250    1.8370    5.5870 hc        1 PJ2      0.142000
     32 HAK         5.0060    0.2640   -0.7060 hc        1 PJ2      0.100500
     33 HAKA        3.5940   -0.8210   -0.4030 hc        1 PJ2      0.100500
     34 HAL        10.8860   -2.9890    2.8410 ha        1 PJ2      0.000750
     35 HALA       10.5010   -3.1530    2.3080 ha        1 PJ2      0.000750
     36 HAM        11.0800   -1.0490    4.2740 ha        1 PJ2      0.000750
     37 HAMA       10.7690   -1.5000    4.6730 ha        1 PJ2      0.000750
     38 HAN         6.0210    0.1310    4.0260 ha        1 PJ2      0.170000
     39 HANA        8.9530   -0.0570    5.0920 ha        1 PJ2      0.122000
     40 HAO         3.7240    2.1490    0.4530 hc        1 PJ2      0.064000
     41 HAOA        2.4410    0.9510    0.8850 hc        1 PJ2      0.064000
     42 HAP        10.8190   -0.4390    1.5180 ha        1 PJ2      0.000750
     43 HAPA       11.1750   -0.7540    2.0020 ha        1 PJ2      0.000750
     44 HAQ         5.4840    0.7170    1.5750 hc        1 PJ2      0.185500
     45 HAQA        4.2020   -0.4720    2.0490 hc        1 PJ2      0.185500
     46 HAR         8.6860   -1.7020    0.6840 ha        1 PJ2      0.000750
     47 HARA        9.1980   -2.1320    0.8070 ha        1 PJ2      0.000750
     48 HAS         6.7790   -2.3640    3.7690 h1        1 PJ2      0.111500
     49 HASA        7.0230   -1.2910    2.2880 h1        1 PJ2      0.111500
     50 HAW         3.9230    2.4240    2.9630 ha        1 PJ2      0.026000
     51 HAX         7.8280    2.7530    3.1180 ha        1 PJ2      0.143500
     52 CAJ         7.9320    0.3380    4.9620 c2        1 PJ2     -0.175000
     53 OAC         7.4490    0.7500    7.9840 o         1 PJ2     -0.222000
@<TRIPOS>BOND
     1    1    9 1   
     2    1   23 1   
     3    1   24 1   
     4    1   25 1   
     5    2   18 1   
     6    3   18 1   
     7    4   21 1   
     8    4   26 1   
     9    5    6 1   
    10    5   10 1   
    11    5   27 1   
    12    7    8 1   
    13    7   19 1   
    14    8   22 1   
    15    8   29 1   
    16    8   30 1   
    17    9   13 1   
    18    9   32 1   
    19    9   33 1   
    20   10   14 1   
    21   11   22 1   
    22   11   28 1   
    23   11   51 1   
    24   12   21 1   
    25   12   38 1   
    26   12   52 1   
    27   13   15 1   
    28   13   40 1   
    29   13   41 1   
    30   14   16 1   
    31   15   17 1   
    32   15   44 1   
    33   15   45 1   
    34   16   18 1   
    35   17   50 1   
    36   19   20 1   
    37   19   53 1   
    38   20   22 1   
    39   20   31 1   
    40   20   52 1   
    41   21   48 1   
    42   21   49 1   
    43   34   35 1   
    44   36   37 1   
    45   39   52 1   
    46   42   43 1   
    47   46   47 1   
@<TRIPOS>SUBSTRUCTURE
     1 PJ2         1 TEMP              0 ****  ****    0 ROOT
