@<TRIPOS>MOLECULE
PJ7
   13    13     1     0     0
SMALL
bcc


@<TRIPOS>ATOM
      1 N1          3.2380   -0.6830   -0.2130 nh        1 PJ7     -0.763200
      2 O1         -2.2490   -1.3710    0.1130 o         1 PJ7     -0.806800
      3 O2         -2.5650    0.8440    0.0380 o         1 PJ7     -0.806800
      4 O3          0.1840    1.2890   -0.0090 os        1 PJ7     -0.330800
      5 C5          1.9430   -0.1590   -0.0940 cc        1 PJ7     -0.069700
      6 C6          1.5730    1.1820   -0.0560 cd        1 PJ7      0.136600
      7 C7          0.7040   -0.9230   -0.0650 cc        1 PJ7     -0.327300
      8 C8         -0.3310   -0.0050   -0.0150 cd        1 PJ7      0.262200
      9 C9         -1.8370   -0.1810    0.0490 c         1 PJ7      0.827100
     10 HN1         3.8780   -0.1860    0.3770 hn        1 PJ7      0.347800
     11 HN1A        3.2420   -1.6550    0.0310 hn        1 PJ7      0.347800
     12 H6          2.1050    2.1220   -0.0640 h4        1 PJ7      0.028100
     13 H7          0.6090   -2.0030   -0.0890 ha        1 PJ7      0.156000
@<TRIPOS>BOND
     1    1    5 1   
     2    1   10 1   
     3    1   11 1   
     4    2    9 1   
     5    3    9 1   
     6    4    6 1   
     7    4    8 1   
     8    5    6 2   
     9    5    7 1   
    10    6   12 1   
    11    7    8 2   
    12    7   13 1   
    13    8    9 1   
@<TRIPOS>SUBSTRUCTURE
     1 PJ7         1 TEMP              0 ****  ****    0 ROOT
