@<TRIPOS>MOLECULE
PJ7
   13    13     1     0     0
SMALL
bcc


@<TRIPOS>ATOM
      1 N1         -0.0220    0.2260   -0.0890 nh        1 PJ7     -0.763200
      2 O1          3.0270    0.1170    4.5350 o         1 PJ7     -0.806800
      3 O2          4.9040   -0.0850    3.3320 o         1 PJ7     -0.806800
      4 O3          3.4420   -0.1590    0.9630 os        1 PJ7     -0.330800
      5 C5          1.2090    0.0710    0.5620 cc        1 PJ7     -0.069700
      6 C6          2.4570   -0.1300   -0.0220 cd        1 PJ7      0.136600
      7 C7          1.4440    0.1690    1.9960 cc        1 PJ7     -0.327300
      8 C8          2.8080    0.0240    2.1890 cd        1 PJ7      0.262200
      9 C9          3.6560    0.0180    3.4470 c         1 PJ7      0.827100
     10 HN1        -0.1160   -0.4370   -0.8340 hn        1 PJ7      0.347800
     11 HN1A       -0.7750    0.1090    0.5610 hn        1 PJ7      0.347800
     12 H6          2.8150   -0.2550   -1.0340 h4        1 PJ7      0.028100
     13 H7          0.6970    0.3320    2.7640 ha        1 PJ7      0.156000
@<TRIPOS>BOND
     1    1    5 1   
     2    1   10 1   
     3    1   11 1   
     4    2    9 1   
     5    3    9 1   
     6    4    6 1   
     7    4    8 1   
     8    5    6 2   
     9    5    7 1   
    10    6   12 1   
    11    7    8 2   
    12    7   13 1   
    13    8    9 1   
@<TRIPOS>SUBSTRUCTURE
     1 PJ7         1 TEMP              0 ****  ****    0 ROOT
