@<TRIPOS>MOLECULE
PJA
   39    41     1     0     0
SMALL
bcc


@<TRIPOS>ATOM
      1 O          -3.1070    3.2880   -0.5120 o         1 PJA     -0.600100
      2 CAN        -2.2110    2.4370   -0.6120 c         1 PJA      0.584500
      3 CBB        -2.4330    1.0370   -0.1980 ca        1 PJA     -0.302600
      4 CBF        -1.4850    0.0530   -0.5520 ca        1 PJA      0.247100
      5 OAS        -0.3880    0.4720   -1.2960 os        1 PJA     -0.223200
      6 CBE         0.8330    0.1660   -0.6750 ca        1 PJA      0.035100
      7 CBA         1.6550    1.1990   -0.2120 ca        1 PJA     -0.060600
      8 CAU         1.2860    2.6810   -0.2530 c         1 PJA      0.911200
      9 OAH         0.7750    3.1440   -1.3080 o         1 PJA     -0.806800
     10 OAE         1.5420    3.3550    0.7810 o         1 PJA     -0.806800
     11 CAL         2.9010    0.8630    0.3280 ca        1 PJA     -0.179000
     12 CAZ         3.3090   -0.4690    0.4110 ca        1 PJA      0.113100
     13 OAQ         4.5290   -0.8700    0.9370 os        1 PJA     -0.338900
     14 CAA         5.3370    0.1680    1.4770 c3        1 PJA      0.115700
     15 CAY         2.4860   -1.5250   -0.0390 ca        1 PJA     -0.116300
     16 CAD         2.9400   -2.9290    0.0470 c3        1 PJA     -0.030800
     17 CBD         1.2430   -1.1760   -0.5890 ca        1 PJA      0.094100
     18 OAR         0.5040   -2.2200   -1.1320 os        1 PJA     -0.332200
     19 CBC        -0.8390   -2.3610   -0.8460 c         1 PJA      0.759200
     20 OAG        -1.2210   -3.4830   -1.1990 o         1 PJA     -0.609500
     21 CBG        -1.6820   -1.3100   -0.2680 ca        1 PJA     -0.260600
     22 CAW        -2.8080   -1.6900    0.4980 ca        1 PJA      0.051700
     23 CAC        -3.0350   -3.1100    0.8610 c3        1 PJA     -0.068800
     24 CAK        -3.7260   -0.7320    0.9070 ca        1 PJA     -0.229000
     25 CAX        -3.5610    0.6190    0.5350 ca        1 PJA      0.238100
     26 OAJ        -4.5620    1.4460    0.9530 oh        1 PJA     -0.511100
     27 H2         -1.1940    2.6770   -1.0220 h4        1 PJA      0.126200
     28 H5          3.5260    1.6880    0.7040 ha        1 PJA      0.163000
     29 H6          6.2320   -0.3760    1.8720 h1        1 PJA      0.040700
     30 H7          5.6370    0.8900    0.6780 h1        1 PJA      0.040700
     31 H8          4.8030    0.7000    2.3010 h1        1 PJA      0.040700
     32 H9          3.4290   -3.1160    1.0350 hc        1 PJA      0.042700
     33 H10         2.0850   -3.6370   -0.0800 hc        1 PJA      0.042700
     34 H11         3.6930   -3.1350   -0.7560 hc        1 PJA      0.042700
     35 H12        -2.0890   -3.5760    1.2330 hc        1 PJA      0.056700
     36 H13        -3.8200   -3.2060    1.6490 hc        1 PJA      0.056700
     37 H14        -3.3600   -3.6800   -0.0480 hc        1 PJA      0.056700
     38 H15        -4.6010   -1.0090    1.5100 ha        1 PJA      0.148000
     39 H16        -4.3750    2.3630    0.6830 ho        1 PJA      0.467000
@<TRIPOS>BOND
     1    1    2 2   
     2    2    3 1   
     3    2   27 1   
     4    3    4 ar  
     5    3   25 ar  
     6    4    5 1   
     7    4   21 ar  
     8    5    6 1   
     9    6    7 ar  
    10    6   17 ar  
    11    7    8 1   
    12    7   11 ar  
    13    8    9 1   
    14    8   10 1   
    15   11   12 ar  
    16   11   28 1   
    17   12   13 1   
    18   12   15 ar  
    19   13   14 1   
    20   14   29 1   
    21   14   30 1   
    22   14   31 1   
    23   15   16 1   
    24   15   17 ar  
    25   16   32 1   
    26   16   33 1   
    27   16   34 1   
    28   17   18 1   
    29   18   19 1   
    30   19   20 2   
    31   19   21 1   
    32   21   22 ar  
    33   22   23 1   
    34   22   24 ar  
    35   23   35 1   
    36   23   36 1   
    37   23   37 1   
    38   24   25 ar  
    39   24   38 1   
    40   25   26 1   
    41   26   39 1   
@<TRIPOS>SUBSTRUCTURE
     1 PJA         1 TEMP              0 ****  ****    0 ROOT
