@<TRIPOS>MOLECULE
PJA
   39    41     1     0     0
SMALL
bcc


@<TRIPOS>ATOM
      1 O           0.2590   -1.4030   -0.0530 o         1 PJA     -0.546100
      2 CAN         1.3670   -0.8620   -0.0830 c         1 PJA      0.575500
      3 CBB         2.0270   -0.3730    1.1520 ca        1 PJA     -0.232600
      4 CBF         3.4300   -0.2900    1.2220 ca        1 PJA      0.233100
      5 OAS         4.1420   -0.6580    0.0860 os        1 PJA     -0.218200
      6 CBE         5.0010    0.3570   -0.3610 ca        1 PJA      0.035100
      7 CBA         4.7500    0.9970   -1.5800 ca        1 PJA     -0.058600
      8 CAU         3.5180    0.7510   -2.4510 c         1 PJA      0.911200
      9 OAH         3.1700   -0.4380   -2.6780 o         1 PJA     -0.805800
     10 OAE         2.9400    1.7750   -2.9070 o         1 PJA     -0.805800
     11 CAL         5.6800    1.9380   -2.0380 ca        1 PJA     -0.179000
     12 CAZ         6.8200    2.2390   -1.2930 ca        1 PJA      0.112100
     13 OAQ         7.7800    3.1590   -1.6900 os        1 PJA     -0.338900
     14 CAA         7.4990    3.8590   -2.8960 c3        1 PJA      0.115700
     15 CAY         7.0780    1.6180   -0.0510 ca        1 PJA     -0.117300
     16 CAD         8.2950    1.9460    0.7220 c3        1 PJA     -0.030800
     17 CBD         6.1450    0.6700    0.3940 ca        1 PJA      0.093100
     18 OAR         6.4710   -0.0050    1.5650 os        1 PJA     -0.331200
     19 CBC         5.5460   -0.1360    2.5790 c         1 PJA      0.759200
     20 OAG         6.1170   -0.4830    3.6210 o         1 PJA     -0.610500
     21 CBG         4.1000    0.0460    2.4170 ca        1 PJA     -0.253600
     22 CAW         3.3380    0.4450    3.5350 ca        1 PJA      0.052700
     23 CAC         3.9960    0.8490    4.8010 c3        1 PJA     -0.067800
     24 CAK         1.9480    0.4500    3.4610 ca        1 PJA     -0.277000
     25 CAX         1.2990    0.0150    2.2930 ca        1 PJA      0.211100
     26 OAJ        -0.0680   -0.0250    2.2110 oh        1 PJA     -0.457100
     27 H2          1.9570   -0.7210   -1.0260 h4        1 PJA      0.111200
     28 H5          5.4550    2.4440   -2.9900 ha        1 PJA      0.163000
     29 H6          8.3670    4.5580   -3.0020 h1        1 PJA      0.040367
     30 H7          7.4570    3.1520   -3.7600 h1        1 PJA      0.040367
     31 H8          6.5420    4.4280   -2.8120 h1        1 PJA      0.040367
     32 H9          9.1840    1.4510    0.2570 hc        1 PJA      0.042367
     33 H10         8.4700    3.0500    0.7160 hc        1 PJA      0.042367
     34 H11         8.2070    1.5940    1.7790 hc        1 PJA      0.042367
     35 H12         4.4080   -0.0590    5.3140 hc        1 PJA      0.055700
     36 H13         3.2770    1.3580    5.4880 hc        1 PJA      0.055700
     37 H14         4.8520    1.5390    4.5970 hc        1 PJA      0.055700
     38 H15         1.3530    0.7790    4.3240 ha        1 PJA      0.131000
     39 H16        -0.4270    0.2830    3.0580 ho        1 PJA      0.410000
@<TRIPOS>BOND
     1    1    2 2   
     2    2    3 1   
     3    2   27 1   
     4    3    4 ar  
     5    3   25 ar  
     6    4    5 1   
     7    4   21 ar  
     8    5    6 1   
     9    6    7 ar  
    10    6   17 ar  
    11    7    8 1   
    12    7   11 ar  
    13    8    9 1   
    14    8   10 1   
    15   11   12 ar  
    16   11   28 1   
    17   12   13 1   
    18   12   15 ar  
    19   13   14 1   
    20   14   29 1   
    21   14   30 1   
    22   14   31 1   
    23   15   16 1   
    24   15   17 ar  
    25   16   32 1   
    26   16   33 1   
    27   16   34 1   
    28   17   18 1   
    29   18   19 1   
    30   19   20 2   
    31   19   21 1   
    32   21   22 ar  
    33   22   23 1   
    34   22   24 ar  
    35   23   35 1   
    36   23   36 1   
    37   23   37 1   
    38   24   25 ar  
    39   24   38 1   
    40   25   26 1   
    41   26   39 1   
@<TRIPOS>SUBSTRUCTURE
     1 PJA         1 TEMP              0 ****  ****    0 ROOT
