@<TRIPOS>MOLECULE
PJA
   39    41     1     0     0
SMALL
bcc


@<TRIPOS>ATOM
      1 O           0.2310   -1.3460   -0.0720 o         1 PJA     -0.546100
      2 CAN         1.3440   -0.8160   -0.0990 c         1 PJA      0.575500
      3 CBB         2.0170   -0.3570    1.1410 ca        1 PJA     -0.232600
      4 CBF         3.4210   -0.2900    1.2040 ca        1 PJA      0.233100
      5 OAS         4.1220   -0.6420    0.0560 os        1 PJA     -0.218200
      6 CBE         4.9880    0.3730   -0.3770 ca        1 PJA      0.035100
      7 CBA         4.7360    1.0400   -1.5810 ca        1 PJA     -0.058600
      8 CAU         3.4960    0.8230   -2.4480 c         1 PJA      0.911200
      9 OAH         3.1350   -0.3580   -2.6970 o         1 PJA     -0.805800
     10 OAE         2.9260    1.8610   -2.8800 o         1 PJA     -0.805800
     11 CAL         5.6720    1.9800   -2.0260 ca        1 PJA     -0.179000
     12 CAZ         6.8200    2.2550   -1.2830 ca        1 PJA      0.112100
     13 OAQ         7.7870    3.1740   -1.6680 os        1 PJA     -0.338900
     14 CAA         7.5050    3.9000   -2.8580 c3        1 PJA      0.115700
     15 CAY         7.0800    1.6070   -0.0540 ca        1 PJA     -0.117300
     16 CAD         8.3040    1.9080    0.7170 c3        1 PJA     -0.030800
     17 CBD         6.1400    0.6600    0.3770 ca        1 PJA      0.093100
     18 OAR         6.4670   -0.0420    1.5330 os        1 PJA     -0.331200
     19 CBC         5.5470   -0.1830    2.5500 c         1 PJA      0.759200
     20 OAG         6.1210   -0.5560    3.5820 o         1 PJA     -0.610500
     21 CBG         4.1010    0.0160    2.4010 ca        1 PJA     -0.253600
     22 CAW         3.3510    0.4010    3.5310 ca        1 PJA      0.052700
     23 CAC         4.0200    0.7730    4.8010 c3        1 PJA     -0.067800
     24 CAK         1.9600    0.4200    3.4660 ca        1 PJA     -0.277000
     25 CAX         1.3000    0.0150    2.2940 ca        1 PJA      0.211100
     26 OAJ        -0.0680   -0.0100    2.2210 oh        1 PJA     -0.457100
     27 H2          1.9300   -0.6620   -1.0430 h4        1 PJA      0.111200
     28 H5          5.4470    2.5070   -2.9670 ha        1 PJA      0.163000
     29 H6          8.3800    4.5920   -2.9560 h1        1 PJA      0.040367
     30 H7          7.4500    3.2100   -3.7360 h1        1 PJA      0.040367
     31 H8          6.5540    4.4770   -2.7570 h1        1 PJA      0.040367
     32 H9          9.1860    1.4150    0.2350 hc        1 PJA      0.042367
     33 H10         8.4890    3.0110    0.7320 hc        1 PJA      0.042367
     34 H11         8.2200    1.5350    1.7670 hc        1 PJA      0.042367
     35 H12         4.4270   -0.1490    5.2930 hc        1 PJA      0.055700
     36 H13         3.3110    1.2760    5.5020 hc        1 PJA      0.055700
     37 H14         4.8820    1.4580    4.6050 hc        1 PJA      0.055700
     38 H15         1.3730    0.7380    4.3400 ha        1 PJA      0.131000
     39 H16        -0.4180    0.2840    3.0750 ho        1 PJA      0.410000
@<TRIPOS>BOND
     1    1    2 2   
     2    2    3 1   
     3    2   27 1   
     4    3    4 ar  
     5    3   25 ar  
     6    4    5 1   
     7    4   21 ar  
     8    5    6 1   
     9    6    7 ar  
    10    6   17 ar  
    11    7    8 1   
    12    7   11 ar  
    13    8    9 1   
    14    8   10 1   
    15   11   12 ar  
    16   11   28 1   
    17   12   13 1   
    18   12   15 ar  
    19   13   14 1   
    20   14   29 1   
    21   14   30 1   
    22   14   31 1   
    23   15   16 1   
    24   15   17 ar  
    25   16   32 1   
    26   16   33 1   
    27   16   34 1   
    28   17   18 1   
    29   18   19 1   
    30   19   20 2   
    31   19   21 1   
    32   21   22 ar  
    33   22   23 1   
    34   22   24 ar  
    35   23   35 1   
    36   23   36 1   
    37   23   37 1   
    38   24   25 ar  
    39   24   38 1   
    40   25   26 1   
    41   26   39 1   
@<TRIPOS>SUBSTRUCTURE
     1 PJA         1 TEMP              0 ****  ****    0 ROOT
