@<TRIPOS>MOLECULE
PJC
   49    53     1     0     0
SMALL
bcc


@<TRIPOS>ATOM
      1 C5          0.1450   -0.3810    0.1190 ca        1 PJC     -0.455900
      2 C6          1.5360   -0.1210    0.1890 ca        1 PJC      0.624100
      3 C8          1.4110   -0.0180    2.5330 ca        1 PJC      0.892900
      4 C10        -0.5460   -0.4410    1.3520 ca        1 PJC      0.508200
      5 N12         2.0370    0.2950    3.7610 nh        1 PJC     -0.706300
      6 C13         3.4900    0.2760    3.8400 c3        1 PJC      0.192300
      7 C20         1.8940   -1.5630    5.4340 c3        1 PJC     -0.215900
      8 C28         3.3400   -0.7900   -1.5230 cc        1 PJC      0.054800
      9 F1         -0.5970    0.4310   -2.0630 f         1 PJC     -0.233633
     10 C2         -0.6230   -0.6070   -1.1660 c3        1 PJC      0.711200
     11 F3         -0.2070   -1.6960   -1.8960 f         1 PJC     -0.233633
     12 F4         -1.9670   -0.8420   -0.9810 f         1 PJC     -0.233633
     13 N7          2.1700    0.0450    1.3710 nb        1 PJC     -0.738000
     14 N9          0.0380   -0.2800    2.5390 nb        1 PJC     -0.740000
     15 C16         4.0780   -1.0880    4.2010 c3        1 PJC     -0.215900
     16 C19         3.3900   -1.7030    5.3870 c         1 PJC      0.566100
     17 C23         1.4300   -0.1720    4.9990 c3        1 PJC      0.192300
     18 O26         4.0150   -2.3140    6.2590 o         1 PJC     -0.524100
     19 C27         2.3640    0.0150   -1.0090 cd        1 PJC     -0.289000
     20 C29         3.9500   -0.0480   -2.7210 c         1 PJC      0.693700
     21 N30         3.2730    1.1770   -2.8340 n         1 PJC     -0.619500
     22 C32         2.3010    1.2960   -1.8090 c         1 PJC      0.719700
     23 O33         1.5930    2.2870   -1.6370 o         1 PJC     -0.548500
     24 O34         4.8710   -0.4160   -3.4560 o         1 PJC     -0.581500
     25 C35         3.8600   -2.0570   -1.1590 cc        1 PJC     -0.150200
     26 C36         5.1730   -2.4730   -1.4740 cd        1 PJC     -0.021100
     27 N38         5.4170   -3.7300   -0.9570 na        1 PJC     -0.171400
     28 C40         4.2540   -4.1830   -0.3150 ca        1 PJC     -0.065200
     29 C41         3.2450   -3.1530   -0.4290 ca        1 PJC     -0.049800
     30 C42         1.9750   -3.4010    0.0910 ca        1 PJC     -0.094000
     31 C44         1.7270   -4.6060    0.7320 ca        1 PJC     -0.141000
     32 C46         2.7250   -5.5870    0.8610 ca        1 PJC     -0.116000
     33 C48         3.9950   -5.3960    0.3380 ca        1 PJC     -0.132000
     34 H10        -1.6380   -0.6370    1.3770 h4        1 PJC      0.050100
     35 H13         3.7620    1.0170    4.6490 h1        1 PJC      0.080450
     36 H13A        3.9560    0.6400    2.8840 h1        1 PJC      0.080450
     37 H20         1.5230   -1.7570    6.4750 hc        1 PJC      0.084450
     38 H20A        1.4520   -2.3470    4.7640 hc        1 PJC      0.084450
     39 H16         3.9750   -1.7950    3.3340 hc        1 PJC      0.084450
     40 H16A        5.1730   -0.9660    4.4120 hc        1 PJC      0.084450
     41 H23         1.7290    0.5770    5.7890 h1        1 PJC      0.080450
     42 H23A        0.3080   -0.1610    4.9350 h1        1 PJC      0.080450
     43 HN30        3.4450    1.8590   -3.5290 hn        1 PJC      0.353500
     44 H36         5.9330   -1.9290   -2.0480 h4        1 PJC      0.197000
     45 H42         1.1750   -2.6540   -0.0300 ha        1 PJC      0.141000
     46 H44         0.7260   -4.8080    1.1420 ha        1 PJC      0.135000
     47 H46         2.4880   -6.5290    1.3790 ha        1 PJC      0.136000
     48 H48         4.7690   -6.1700    0.4270 ha        1 PJC      0.138000
     49 HN38        6.2520   -4.2460   -1.0510 hn        1 PJC      0.308700
@<TRIPOS>BOND
     1    1    2 ar  
     2    1    4 ar  
     3    1   10 1   
     4    2   13 ar  
     5    2   19 1   
     6    3    5 1   
     7    3   13 ar  
     8    3   14 ar  
     9    4   14 ar  
    10    4   34 1   
    11    5    6 1   
    12    5   17 1   
    13    6   15 1   
    14    6   35 1   
    15    6   36 1   
    16    7   16 1   
    17    7   17 1   
    18    7   37 1   
    19    7   38 1   
    20    8   19 2   
    21    8   20 1   
    22    8   25 1   
    23    9   10 1   
    24   10   11 1   
    25   10   12 1   
    26   15   16 1   
    27   15   39 1   
    28   15   40 1   
    29   16   18 2   
    30   17   41 1   
    31   17   42 1   
    32   19   22 1   
    33   20   21 1   
    34   20   24 2   
    35   21   22 1   
    36   21   43 1   
    37   22   23 2   
    38   25   26 2   
    39   25   29 1   
    40   26   27 1   
    41   26   44 1   
    42   27   28 1   
    43   27   49 1   
    44   28   29 ar  
    45   28   33 ar  
    46   29   30 ar  
    47   30   31 ar  
    48   30   45 1   
    49   31   32 ar  
    50   31   46 1   
    51   32   33 ar  
    52   32   47 1   
    53   33   48 1   
@<TRIPOS>SUBSTRUCTURE
     1 PJC         1 TEMP              0 ****  ****    0 ROOT
