@<TRIPOS>MOLECULE
PJC
   49    53     1     0     0
SMALL
bcc


@<TRIPOS>ATOM
      1 C5          0.1470   -0.3760    0.1140 ca        1 PJC     -0.455900
      2 C6          1.5390   -0.1190    0.1840 ca        1 PJC      0.624100
      3 C8          1.4110   -0.0090    2.5270 ca        1 PJC      0.892900
      4 C10        -0.5450   -0.4300    1.3450 ca        1 PJC      0.508200
      5 N12         2.0360    0.3070    3.7550 nh        1 PJC     -0.706300
      6 C13         3.4900    0.2870    3.8360 c3        1 PJC      0.192300
      7 C20         1.8910   -1.5470    5.4330 c3        1 PJC     -0.215900
      8 C28         3.3430   -0.7990   -1.5230 cc        1 PJC      0.054800
      9 F1         -0.5900    0.4310   -2.0720 f         1 PJC     -0.233633
     10 C2         -0.6200   -0.6040   -1.1720 c3        1 PJC      0.711200
     11 F3         -0.2050   -1.6960   -1.8980 f         1 PJC     -0.233633
     12 F4         -1.9650   -0.8350   -0.9880 f         1 PJC     -0.233633
     13 N7          2.1720    0.0490    1.3660 nb        1 PJC     -0.738000
     14 N9          0.0380   -0.2670    2.5330 nb        1 PJC     -0.740000
     15 C16         4.0760   -1.0770    4.2000 c3        1 PJC     -0.215900
     16 C19         3.3870   -1.6890    5.3860 c         1 PJC      0.566100
     17 C23         1.4280   -0.1580    4.9940 c3        1 PJC      0.192300
     18 O26         4.0100   -2.2990    6.2600 o         1 PJC     -0.524100
     19 C27         2.3690    0.0100   -1.0130 cd        1 PJC     -0.289000
     20 C29         3.9570   -0.0620   -2.7240 c         1 PJC      0.693700
     21 N30         3.2830    1.1640   -2.8410 ns        1 PJC     -0.619500
     22 C32         2.3100    1.2900   -1.8180 c         1 PJC      0.719700
     23 O33         1.6040    2.2830   -1.6490 o         1 PJC     -0.548500
     24 O34         4.8780   -0.4340   -3.4550 o         1 PJC     -0.581500
     25 C35         3.8590   -2.0660   -1.1540 cc        1 PJC     -0.150200
     26 C36         5.1720   -2.4860   -1.4660 cd        1 PJC     -0.021100
     27 N38         5.4120   -3.7420   -0.9450 na        1 PJC     -0.171400
     28 C40         4.2470   -4.1900   -0.3030 ca        1 PJC     -0.065200
     29 C41         3.2410   -3.1570   -0.4210 ca        1 PJC     -0.049800
     30 C42         1.9690   -3.4010    0.0970 ca        1 PJC     -0.094000
     31 C44         1.7170   -4.6030    0.7420 ca        1 PJC     -0.141000
     32 C46         2.7120   -5.5860    0.8750 ca        1 PJC     -0.116000
     33 C48         3.9840   -5.4000    0.3530 ca        1 PJC     -0.132000
     34 H10        -1.6370   -0.6230    1.3690 h4        1 PJC      0.050100
     35 H13         3.7610    1.0290    4.6430 h1        1 PJC      0.080450
     36 H13A        3.9570    0.6480    2.8790 h1        1 PJC      0.080450
     37 H20         1.4490   -2.3330    4.7630 hc        1 PJC      0.084450
     38 H20A        1.5190   -1.7400    6.4730 hc        1 PJC      0.084450
     39 H16         5.1710   -0.9560    4.4110 hc        1 PJC      0.084450
     40 H16A        3.9740   -1.7860    3.3340 hc        1 PJC      0.084450
     41 H23         1.7270    0.5930    5.7830 h1        1 PJC      0.080450
     42 H23A        0.3060   -0.1450    4.9290 h1        1 PJC      0.080450
     43 HN30        3.4570    1.8430   -3.5380 hn        1 PJC      0.353500
     44 H36         5.9340   -1.9450   -2.0420 h4        1 PJC      0.197000
     45 H42         1.1710   -2.6520   -0.0270 ha        1 PJC      0.141000
     46 H44         0.7150   -4.8010    1.1510 ha        1 PJC      0.135000
     47 H46         2.4730   -6.5260    1.3970 ha        1 PJC      0.136000
     48 H48         4.7560   -6.1760    0.4460 ha        1 PJC      0.138000
     49 HN38        6.2450   -4.2610   -1.0360 hn        1 PJC      0.308700
@<TRIPOS>BOND
     1    1    2 ar  
     2    1    4 ar  
     3    1   10 1   
     4    2   13 ar  
     5    2   19 1   
     6    3    5 1   
     7    3   13 ar  
     8    3   14 ar  
     9    4   14 ar  
    10    4   34 1   
    11    5    6 1   
    12    5   17 1   
    13    6   15 1   
    14    6   35 1   
    15    6   36 1   
    16    7   16 1   
    17    7   17 1   
    18    7   37 1   
    19    7   38 1   
    20    8   19 2   
    21    8   20 1   
    22    8   25 1   
    23    9   10 1   
    24   10   11 1   
    25   10   12 1   
    26   15   16 1   
    27   15   39 1   
    28   15   40 1   
    29   16   18 2   
    30   17   41 1   
    31   17   42 1   
    32   19   22 1   
    33   20   21 1   
    34   20   24 2   
    35   21   22 1   
    36   21   43 1   
    37   22   23 2   
    38   25   26 2   
    39   25   29 1   
    40   26   27 1   
    41   26   44 1   
    42   27   28 1   
    43   27   49 1   
    44   28   29 ar  
    45   28   33 ar  
    46   29   30 ar  
    47   30   31 ar  
    48   30   45 1   
    49   31   32 ar  
    50   31   46 1   
    51   32   33 ar  
    52   32   47 1   
    53   33   48 1   
@<TRIPOS>SUBSTRUCTURE
     1 PJC         1 TEMP              0 ****  ****    0 ROOT
