@<TRIPOS>MOLECULE
PJC
   49    53     1     0     0
SMALL
bcc


@<TRIPOS>ATOM
      1 C5          7.1000   -5.2830    8.6400 ca        1 PJC     -0.455900
      2 C6          7.8540   -4.4820    9.5330 ca        1 PJC      0.624100
      3 C8          6.3040   -4.9120   11.2450 ca        1 PJC      0.892900
      4 C10         5.9260   -5.8730    9.1640 ca        1 PJC      0.508200
      5 N12         5.8290   -4.6160   12.5430 nh        1 PJC     -0.706300
      6 C13         6.7420   -4.0360   13.5170 c3        1 PJC      0.192300
      7 C20         5.5550   -6.6540   13.9730 c3        1 PJC     -0.215900
      8 C28        10.3760   -3.9720    9.4290 cc        1 PJC      0.054800
      9 F1          7.5720   -4.4420    6.3950 f         1 PJC     -0.233633
     10 C2          7.4780   -5.5500    7.1980 c3        1 PJC      0.711200
     11 F3          8.6820   -6.1920    7.0330 f         1 PJC     -0.233633
     12 F4          6.5890   -6.3610    6.5280 f         1 PJC     -0.233633
     13 N7          7.4780   -4.3030   10.8190 nb        1 PJC     -0.738000
     14 N9          5.5170   -5.7220   10.4230 nb        1 PJC     -0.740000
     15 C16         7.5220   -5.0670   14.3320 c3        1 PJC     -0.215900
     16 C19         6.6280   -6.1380   14.8910 c         1 PJC      0.566100
     17 C23         4.8900   -5.5320   13.1740 c3        1 PJC      0.192300
     18 O26         6.7840   -6.5900   16.0290 o         1 PJC     -0.524100
     19 C27         9.0620   -3.7740    9.1130 cd        1 PJC     -0.289000
     20 C29        11.1700   -2.8190    8.7960 c         1 PJC      0.693700
     21 N30        10.2440   -1.9980    8.1330 n         1 PJC     -0.619500
     22 C32         8.9310   -2.5060    8.2980 c         1 PJC      0.719700
     23 O33         7.9160   -1.9620    7.8640 o         1 PJC     -0.548500
     24 O34        12.3840   -2.6100    8.8540 o         1 PJC     -0.581500
     25 C35        11.0650   -4.9470   10.1920 cc        1 PJC     -0.150200
     26 C36        12.3050   -4.6990   10.8240 cd        1 PJC     -0.021100
     27 N38        12.7160   -5.8110   11.5300 na        1 PJC     -0.171400
     28 C40        11.7670   -6.8300   11.3530 ca        1 PJC     -0.065200
     29 C41        10.7110   -6.3210   10.5060 ca        1 PJC     -0.049800
     30 C42         9.6740   -7.1790   10.1400 ca        1 PJC     -0.094000
     31 C44         9.6640   -8.4780   10.6280 ca        1 PJC     -0.141000
     32 C46        10.6810   -8.9510   11.4750 ca        1 PJC     -0.116000
     33 C48        11.7460   -8.1430   11.8440 ca        1 PJC     -0.132000
     34 H10         5.2830   -6.5120    8.5230 h4        1 PJC      0.050100
     35 H13         7.4650   -3.3270   13.0280 h1        1 PJC      0.080450
     36 H13A        6.0970   -3.4280   14.2170 h1        1 PJC      0.080450
     37 H20         4.7680   -7.1900   14.5660 hc        1 PJC      0.084450
     38 H20A        6.0240   -7.4000   13.2780 hc        1 PJC      0.084450
     39 H16         8.2980   -5.5630   13.6890 hc        1 PJC      0.084450
     40 H16A        8.0570   -4.5400   15.1650 hc        1 PJC      0.084450
     41 H23         4.2700   -4.9020   13.8770 h1        1 PJC      0.080450
     42 H23A        4.1870   -5.9820   12.4210 h1        1 PJC      0.080450
     43 HN30       10.4720   -1.1840    7.6210 hn        1 PJC      0.353500
     44 H36        12.9070   -3.7820   10.7900 h4        1 PJC      0.197000
     45 H42         8.8870   -6.8310    9.4540 ha        1 PJC      0.141000
     46 H44         8.8490   -9.1590   10.3420 ha        1 PJC      0.135000
     47 H46        10.6340   -9.9870   11.8430 ha        1 PJC      0.136000
     48 H48        12.5480   -8.5190   12.4940 ha        1 PJC      0.138000
     49 HN38       13.5520   -5.8980   12.0450 hn        1 PJC      0.308700
@<TRIPOS>BOND
     1    1    2 ar  
     2    1    4 ar  
     3    1   10 1   
     4    2   13 ar  
     5    2   19 1   
     6    3    5 1   
     7    3   13 ar  
     8    3   14 ar  
     9    4   14 ar  
    10    4   34 1   
    11    5    6 1   
    12    5   17 1   
    13    6   15 1   
    14    6   35 1   
    15    6   36 1   
    16    7   16 1   
    17    7   17 1   
    18    7   37 1   
    19    7   38 1   
    20    8   19 2   
    21    8   20 1   
    22    8   25 1   
    23    9   10 1   
    24   10   11 1   
    25   10   12 1   
    26   15   16 1   
    27   15   39 1   
    28   15   40 1   
    29   16   18 2   
    30   17   41 1   
    31   17   42 1   
    32   19   22 1   
    33   20   21 1   
    34   20   24 2   
    35   21   22 1   
    36   21   43 1   
    37   22   23 2   
    38   25   26 2   
    39   25   29 1   
    40   26   27 1   
    41   26   44 1   
    42   27   28 1   
    43   27   49 1   
    44   28   29 ar  
    45   28   33 ar  
    46   29   30 ar  
    47   30   31 ar  
    48   30   45 1   
    49   31   32 ar  
    50   31   46 1   
    51   32   33 ar  
    52   32   47 1   
    53   33   48 1   
@<TRIPOS>SUBSTRUCTURE
     1 PJC         1 TEMP              0 ****  ****    0 ROOT
