@<TRIPOS>MOLECULE
PJC
   49    53     1     0     0
SMALL
bcc


@<TRIPOS>ATOM
      1 C5          0.1410   -0.3950    0.1080 ca        1 PJC     -0.455900
      2 C6          1.5310   -0.1280    0.1800 ca        1 PJC      0.624100
      3 C8          1.3970   -0.0150    2.5230 ca        1 PJC      0.892900
      4 C10        -0.5530   -0.4530    1.3380 ca        1 PJC      0.508200
      5 N12         2.0180    0.3070    3.7520 nh        1 PJC     -0.706300
      6 C13         3.4710    0.2970    3.8360 c3        1 PJC      0.192300
      7 C20         1.8820   -1.5460    5.4320 c3        1 PJC     -0.215900
      8 C28         3.3430   -0.7950   -1.5220 cc        1 PJC      0.054800
      9 F1         -0.5980    0.4030   -2.0810 f         1 PJC     -0.233633
     10 C2         -0.6220   -0.6300   -1.1790 c3        1 PJC      0.711200
     11 F3         -0.1980   -1.7200   -1.9030 f         1 PJC     -0.233633
     12 F4         -1.9650   -0.8710   -0.9970 f         1 PJC     -0.233633
     13 N7          2.1600    0.0470    1.3630 nb        1 PJC     -0.738000
     14 N9          0.0260   -0.2840    2.5260 nb        1 PJC     -0.740000
     15 C16         4.0660   -1.0620    4.2030 c3        1 PJC     -0.215900
     16 C19         3.3790   -1.6770    5.3890 c         1 PJC      0.566100
     17 C23         1.4110   -0.1600    4.9900 c3        1 PJC      0.192300
     18 O26         4.0050   -2.2810    6.2650 o         1 PJC     -0.524100
     19 C27         2.3620    0.0070   -1.0150 cd        1 PJC     -0.289000
     20 C29         3.9540   -0.0550   -2.7220 c         1 PJC      0.693700
     21 N30         3.2710    1.1660   -2.8430 n         1 PJC     -0.619500
     22 C32         2.2950    1.2850   -1.8210 c         1 PJC      0.719700
     23 O33         1.5810    2.2730   -1.6550 o         1 PJC     -0.548500
     24 O34         4.8790   -0.4210   -3.4520 o         1 PJC     -0.581500
     25 C35         3.8690   -2.0570   -1.1510 cc        1 PJC     -0.150200
     26 C36         5.1860   -2.4680   -1.4600 cd        1 PJC     -0.021100
     27 N38         5.4340   -3.7210   -0.9370 na        1 PJC     -0.171400
     28 C40         4.2710   -4.1780   -0.2970 ca        1 PJC     -0.065200
     29 C41         3.2570   -3.1530   -0.4180 ca        1 PJC     -0.049800
     30 C42         1.9860   -3.4050    0.0980 ca        1 PJC     -0.094000
     31 C44         1.7420   -4.6090    0.7440 ca        1 PJC     -0.141000
     32 C46         2.7450   -5.5840    0.8800 ca        1 PJC     -0.116000
     33 C48         4.0160   -5.3890    0.3610 ca        1 PJC     -0.132000
     34 H10        -1.6440   -0.6550    1.3610 h4        1 PJC      0.050100
     35 H13         3.7360    1.0420    4.6430 h1        1 PJC      0.080450
     36 H13A        3.9380    0.6600    2.8790 h1        1 PJC      0.080450
     37 H20         1.4470   -2.3360    4.7630 hc        1 PJC      0.084450
     38 H20A        1.5100   -1.7390    6.4720 hc        1 PJC      0.084450
     39 H16         5.1600   -0.9330    4.4160 hc        1 PJC      0.084450
     40 H16A        3.9710   -1.7730    3.3380 hc        1 PJC      0.084450
     41 H23         0.2880   -0.1560    4.9230 h1        1 PJC      0.080450
     42 H23A        1.7020    0.5940    5.7790 h1        1 PJC      0.080450
     43 HN30        3.4410    1.8450   -3.5400 hn        1 PJC      0.353500
     44 H36         5.9450   -1.9220   -2.0340 h4        1 PJC      0.197000
     45 H42         1.1830   -2.6630   -0.0290 ha        1 PJC      0.141000
     46 H44         0.7410   -4.8140    1.1510 ha        1 PJC      0.135000
     47 H46         2.5120   -6.5250    1.4020 ha        1 PJC      0.136000
     48 H48         4.7940   -6.1590    0.4560 ha        1 PJC      0.138000
     49 HN38        6.2710   -4.2340   -1.0260 hn        1 PJC      0.308700
@<TRIPOS>BOND
     1    1    2 ar  
     2    1    4 ar  
     3    1   10 1   
     4    2   13 ar  
     5    2   19 1   
     6    3    5 1   
     7    3   13 ar  
     8    3   14 ar  
     9    4   14 ar  
    10    4   34 1   
    11    5    6 1   
    12    5   17 1   
    13    6   15 1   
    14    6   35 1   
    15    6   36 1   
    16    7   16 1   
    17    7   17 1   
    18    7   37 1   
    19    7   38 1   
    20    8   19 2   
    21    8   20 1   
    22    8   25 1   
    23    9   10 1   
    24   10   11 1   
    25   10   12 1   
    26   15   16 1   
    27   15   39 1   
    28   15   40 1   
    29   16   18 2   
    30   17   41 1   
    31   17   42 1   
    32   19   22 1   
    33   20   21 1   
    34   20   24 2   
    35   21   22 1   
    36   21   43 1   
    37   22   23 2   
    38   25   26 2   
    39   25   29 1   
    40   26   27 1   
    41   26   44 1   
    42   27   28 1   
    43   27   49 1   
    44   28   29 ar  
    45   28   33 ar  
    46   29   30 ar  
    47   30   31 ar  
    48   30   45 1   
    49   31   32 ar  
    50   31   46 1   
    51   32   33 ar  
    52   32   47 1   
    53   33   48 1   
@<TRIPOS>SUBSTRUCTURE
     1 PJC         1 TEMP              0 ****  ****    0 ROOT
