@<TRIPOS>MOLECULE
PJJ
   45    46     1     0     0
SMALL
bcc


@<TRIPOS>ATOM
      1 N          -2.3010    1.7050    0.3700 n3        1 PJJ     -0.903800
      2 C1         -2.1340    0.2730    0.1970 c3        1 PJJ      0.170500
      3 C2         -0.7400   -0.1290   -0.3550 c3        1 PJJ      0.145100
      4 O1         -0.5550    0.5620   -1.5820 oh        1 PJJ     -0.657800
      5 C3         -3.1890   -0.3980   -0.7080 c3        1 PJJ     -0.080100
      6 C4         -4.5790   -0.1660   -0.2350 ca        1 PJJ     -0.057300
      7 C5         -5.3790    0.8190   -0.8280 ca        1 PJJ     -0.131000
      8 C6         -5.1090   -0.9360    0.8090 ca        1 PJJ     -0.131000
      9 C7         -6.6850    1.0280   -0.3860 ca        1 PJJ     -0.132500
     10 C8         -6.4140   -0.7250    1.2490 ca        1 PJJ     -0.132500
     11 C9         -7.2050    0.2570    0.6520 ca        1 PJJ     -0.147000
     12 C10         0.3670    0.1870    0.6450 c3        1 PJJ     -0.079400
     13 CA          1.7540   -0.0840    0.0820 c3        1 PJJ     -0.185700
     14 C           1.8060   -1.4700   -0.6060 c         1 PJJ      0.908600
     15 O           2.3220   -2.4520   -0.0050 o         1 PJJ     -0.844800
     16 C13         2.7850    0.0400    1.1950 c3        1 PJJ     -0.029100
     17 C14         4.1440    0.3860    0.6960 ca        1 PJJ     -0.049300
     18 C15         4.7250    1.6250    0.9880 ca        1 PJJ     -0.129000
     19 C16         4.8700   -0.5500   -0.0570 ca        1 PJJ     -0.129000
     20 C17         6.0110    1.9260    0.5380 ca        1 PJJ     -0.144500
     21 C18         6.1520   -0.2450   -0.5050 ca        1 PJJ     -0.144500
     22 C19         6.7270    0.9920   -0.2080 ca        1 PJJ     -0.156000
     23 OXT         1.3150   -1.5470   -1.7740 o         1 PJJ     -0.844800
     24 H1         -1.6760    2.2000   -0.2380 hn        1 PJJ      0.346300
     25 H3         -2.2280   -0.1820    1.2280 h1        1 PJJ      0.049700
     26 H4         -0.7390   -1.2410   -0.5520 h1        1 PJJ      0.069700
     27 H5          0.1850    0.1110   -2.0290 ho        1 PJJ      0.461000
     28 H6         -3.0570   -0.0160   -1.7550 hc        1 PJJ      0.065700
     29 H7         -2.9800   -1.5010   -0.7260 hc        1 PJJ      0.065700
     30 H8         -4.9720    1.4280   -1.6490 ha        1 PJJ      0.133500
     31 H9         -4.4830   -1.7070    1.2830 ha        1 PJJ      0.133500
     32 H10        -7.3040    1.8040   -0.8580 ha        1 PJJ      0.121000
     33 H11        -6.8200   -1.3330    2.0700 ha        1 PJJ      0.121000
     34 H12        -8.2340    0.4230    1.0000 ha        1 PJJ      0.119000
     35 H13         0.3050    1.2620    0.9560 hc        1 PJJ      0.032700
     36 H14         0.2040   -0.4430    1.5580 hc        1 PJJ      0.032700
     37 H15         1.9670    0.6820   -0.7140 hc        1 PJJ      0.047700
     38 H16         2.4510    0.8160    1.9350 hc        1 PJJ      0.047700
     39 H17         2.8370   -0.9500    1.7290 hc        1 PJJ      0.047700
     40 H18         4.1640    2.3680    1.5720 ha        1 PJJ      0.155000
     41 H19         4.3900   -1.5210   -0.2910 ha        1 PJJ      0.155000
     42 H20         6.4570    2.9020    0.7710 ha        1 PJJ      0.113000
     43 H21         6.7120   -0.9820   -1.0990 ha        1 PJJ      0.113000
     44 H22         7.7390    1.2290   -0.5640 ha        1 PJJ      0.108000
     45 H2         -3.2410    1.9740    0.1460 hn        1 PJJ      0.346300
@<TRIPOS>BOND
     1    1    2 1   
     2    1   24 1   
     3    1   45 1   
     4    2    3 1   
     5    2    5 1   
     6    2   25 1   
     7    3    4 1   
     8    3   12 1   
     9    3   26 1   
    10    4   27 1   
    11    5    6 1   
    12    5   28 1   
    13    5   29 1   
    14    6    7 ar  
    15    6    8 ar  
    16    7    9 ar  
    17    7   30 1   
    18    8   10 ar  
    19    8   31 1   
    20    9   11 ar  
    21    9   32 1   
    22   10   11 ar  
    23   10   33 1   
    24   11   34 1   
    25   12   13 1   
    26   12   35 1   
    27   12   36 1   
    28   13   14 1   
    29   13   16 1   
    30   13   37 1   
    31   14   15 1   
    32   14   23 1   
    33   16   17 1   
    34   16   38 1   
    35   16   39 1   
    36   17   18 ar  
    37   17   19 ar  
    38   18   20 ar  
    39   18   40 1   
    40   19   21 ar  
    41   19   41 1   
    42   20   22 ar  
    43   20   42 1   
    44   21   22 ar  
    45   21   43 1   
    46   22   44 1   
@<TRIPOS>SUBSTRUCTURE
     1 PJJ         1 TEMP              0 ****  ****    0 ROOT
