@<TRIPOS>MOLECULE
PJJ
   45    42     1     0     0
SMALL
bcc


@<TRIPOS>ATOM
      1 N           1.9490    1.4650   -2.4550 n3        1 PJJ     -0.311000
      2 C1          1.4030    0.3350   -1.8190 c3        1 PJJ     -0.039000
      3 C2          1.8740    0.2850   -0.3870 c3        1 PJJ     -0.024000
      4 O1          3.2410    0.4370   -0.3460 oh        1 PJJ     -0.360000
      5 C3          1.8610   -0.9330   -2.5480 c3        1 PJJ     -0.125000
      6 C4          0.6890   -1.5260   -3.3430 c2        1 PJJ     -0.047000
      7 C5          0.0550   -0.7570   -4.3370 c1        1 PJJ     -0.135000
      8 C6          0.3250   -2.8810   -3.1560 c2        1 PJJ     -0.107000
      9 C7         -0.9170   -1.3240   -5.1280 c1        1 PJJ     -0.152750
     10 C8         -0.6480   -3.4470   -3.9480 c1        1 PJJ     -0.138000
     11 C9         -1.2820   -2.6770   -4.9440 c1        1 PJJ     -0.152750
     12 C10         1.2030    1.4270    0.4130 c3        1 PJJ     -0.163000
     13 CA          0.4430    0.8440    1.6020 c3        1 PJJ     -0.170000
     14 C          -0.6430   -0.0610    1.1040 c2        1 PJJ      0.322000
     15 O          -0.6700   -1.2680    1.4590 o         1 PJJ     -0.578000
     16 C13        -0.1740    1.9700    2.4150 c3        1 PJJ     -0.117000
     17 C14        -0.9960    1.3700    3.5590 c2        1 PJJ     -0.044000
     18 C15        -2.2380    0.7870    3.2890 c2        1 PJJ     -0.107000
     19 C16        -0.5540    1.4970    4.8780 c1        1 PJJ     -0.147000
     20 C17        -3.0430    0.3280    4.3410 c1        1 PJJ     -0.137000
     21 C18        -1.3600    1.0370    5.9350 c1        1 PJJ     -0.152750
     22 C19        -2.6040    0.4530    5.6620 c1        1 PJJ     -0.152750
     23 OXT        -1.5830    0.4150    0.3060 o         1 PJJ     -0.578000
     24 H1          2.2070    1.2420   -3.3230 hn        1 PJJ      0.127500
     25 H3          0.4540    0.3890   -1.8380 h1        1 PJJ      0.151000
     26 H4          1.6190   -0.6180    0.0250 h1        1 PJJ      0.124000
     27 H5          3.5850   -0.2210    0.0570 ho        1 PJJ      0.190000
     28 H6          2.5710   -0.7170   -3.1450 hc        1 PJJ      0.102500
     29 H7          2.1730   -1.5850   -1.8970 hc        1 PJJ      0.102500
     30 H8          0.2270    0.2450   -4.3880 ha        1 PJJ      0.115000
     31 H9          0.8250   -3.4450   -2.5030 ha        1 PJJ      0.209000
     32 H10        -1.3510   -0.7950   -5.8100 ha        1 PJJ      0.107500
     33 H11        -0.9150   -4.4400   -3.8110 ha        1 PJJ      0.123000
     34 H12        -1.8860   -3.1090   -5.5830 ha        1 PJJ      0.107500
     35 H13         0.5880    1.8970   -0.1580 hc        1 PJJ      0.065000
     36 H14         1.9050    2.0630    0.7440 hc        1 PJJ      0.065000
     37 H15         1.0280    0.3610    2.1390 hc        1 PJJ      0.084000
     38 H16        -0.7860    2.5350    1.8140 hc        1 PJJ      0.087000
     39 H17         0.5390    2.5370    2.7820 hc        1 PJJ      0.087000
     40 H18        -2.5800    0.7740    2.3750 ha        1 PJJ      0.187000
     41 H19         0.2840    1.9870    5.0710 ha        1 PJJ      0.116000
     42 H20        -3.8820   -0.1720    4.1410 ha        1 PJJ      0.121000
     43 H21        -1.0910    1.2070    6.8710 ha        1 PJJ      0.107500
     44 H22        -3.1920   -0.0160    6.3740 ha        1 PJJ      0.107500
     45 H2          1.3450    2.1070   -2.4840 hn        1 PJJ      0.127500
@<TRIPOS>BOND
     1    1    2 1   
     2    1   24 1   
     3    1   45 1   
     4    2    3 1   
     5    2    5 1   
     6    2   25 1   
     7    3    4 1   
     8    3   12 1   
     9    3   26 1   
    10    4   27 1   
    11    5    6 1   
    12    5   28 1   
    13    5   29 1   
    14    6    7 1   
    15    6    8 1   
    16    7   30 1   
    17    8   10 1   
    18    8   31 1   
    19    9   11 1   
    20    9   32 1   
    21   10   33 1   
    22   11   34 1   
    23   12   13 1   
    24   12   35 1   
    25   12   36 1   
    26   13   14 1   
    27   13   16 1   
    28   13   37 1   
    29   14   15 1   
    30   14   23 1   
    31   16   17 1   
    32   16   38 1   
    33   16   39 1   
    34   17   18 1   
    35   17   19 1   
    36   18   20 1   
    37   18   40 1   
    38   19   41 1   
    39   20   42 1   
    40   21   22 1   
    41   21   43 1   
    42   22   44 1   
@<TRIPOS>SUBSTRUCTURE
     1 PJJ         1 TEMP              0 ****  ****    0 ROOT
