@<TRIPOS>MOLECULE
PJZ
   82    79     1     0     0
SMALL
bcc


@<TRIPOS>ATOM
      1 C1          1.0790   -1.4430   -0.1160 c3        1 PJZ     -0.114100
      2 C2          2.4940   -1.0710    0.2700 c3        1 PJZ      0.148100
      3 O2          2.9090    0.1060   -0.4510 os        1 PJZ     -0.439900
      4 C3          2.6410   -0.7230    1.7500 c3        1 PJZ      0.135400
      5 O3          1.5740    0.1710    2.0990 os        1 PJZ     -0.434900
      6 C12        -5.0800    8.1390   16.1010 c3        1 PJZ     -0.091100
      7 C13        -4.2720    8.4100   14.8550 c3        1 PJZ     -0.055200
      8 C14        -3.1830    7.4220   14.6780 c2        1 PJZ     -0.138200
      9 C15        -2.8610    6.8840   13.4920 ce        1 PJZ     -0.148000
     10 C16        -1.7790    5.9360   13.3330 ce        1 PJZ     -0.102100
     11 C17        -1.4500    5.4040   12.1780 c1        1 PJZ     -0.033900
     12 C18        -1.1290    4.8900   11.0720 c1        1 PJZ     -0.031000
     13 C19        -0.8160    4.3780    9.9460 c1        1 PJZ     -0.045000
     14 C20        -0.5180    3.8800    8.8270 c1        1 PJZ     -0.018900
     15 C21        -0.2030    3.3570    7.6640 ce        1 PJZ     -0.121100
     16 C22        -0.9000    3.6770    6.4370 ce        1 PJZ     -0.132000
     17 C23        -0.6070    3.1470    5.2400 c2        1 PJZ     -0.154200
     18 C24         0.4680    2.1580    4.9970 c3        1 PJZ     -0.054200
     19 C25         0.5540    1.7740    3.5340 c3        1 PJZ     -0.126400
     20 C26         1.6900    0.8280    3.2950 c         1 PJZ      0.633100
     21 O28         2.6670    0.5860    4.0050 o         1 PJZ     -0.542000
     22 C35         4.8940    7.6320  -13.0110 c3        1 PJZ     -0.092100
     23 C36         4.3430    6.3950  -12.3500 c3        1 PJZ     -0.080400
     24 C37         4.6810    6.3550  -10.8750 c3        1 PJZ     -0.079400
     25 C38         4.1260    5.1110  -10.2160 c3        1 PJZ     -0.079400
     26 C39         4.4660    5.0720   -8.7410 c3        1 PJZ     -0.078400
     27 C40         3.9110    3.8270   -8.0820 c3        1 PJZ     -0.079400
     28 C41         4.2500    3.7890   -6.6080 c3        1 PJZ     -0.079400
     29 C42         3.6960    2.5430   -5.9500 c3        1 PJZ     -0.079400
     30 C43         4.0360    2.5060   -4.4750 c3        1 PJZ     -0.078400
     31 C44         3.4840    1.2560   -3.8220 c3        1 PJZ     -0.079400
     32 C45         3.8120    1.2340   -2.3440 c3        1 PJZ     -0.127400
     33 C46         3.3920   -0.0610   -1.7200 c         1 PJZ      0.635100
     34 O47         3.4480   -1.2000   -2.1880 o         1 PJZ     -0.545000
     35 H1          1.0450   -1.7180   -1.1980 hc        1 PJZ      0.053700
     36 H2          0.7420   -2.3110    0.4970 hc        1 PJZ      0.053700
     37 H3          0.3900   -0.5830    0.0640 hc        1 PJZ      0.053700
     38 H4          3.2030   -1.9160    0.0340 h1        1 PJZ      0.076700
     39 H5          2.5390   -1.6490    2.3730 h1        1 PJZ      0.065700
     40 H6          3.6270   -0.2290    1.9510 h1        1 PJZ      0.065700
     41 H7         -5.8820    8.9080   16.2130 hc        1 PJZ      0.036700
     42 H8         -4.4300    8.1700   17.0090 hc        1 PJZ      0.036700
     43 H9         -5.5610    7.1320   16.0480 hc        1 PJZ      0.036700
     44 H10        -3.8130    9.4350   14.9240 hc        1 PJZ      0.050700
     45 H11        -4.9520    8.4150   13.9610 hc        1 PJZ      0.050700
     46 H12        -2.6320    7.1540   15.5950 ha        1 PJZ      0.123000
     47 H13        -3.4170    7.1500   12.5750 ha        1 PJZ      0.135000
     48 H14        -1.2140    5.6570   14.2420 ha        1 PJZ      0.143000
     49 H15        -4.1830    7.3300   10.4070 ha        1 PJZ      0.000500
     50 H16        -4.0670    7.0990    9.7810 ha        1 PJZ      0.000500
     51 H17        -3.3070    5.9130    7.2330 ha        1 PJZ      0.000500
     52 H18        -3.5040    6.2030    7.8120 ha        1 PJZ      0.000500
     53 H19         0.6340    2.6350    7.5980 ha        1 PJZ      0.147000
     54 H20        -1.7230    4.4100    6.5270 ha        1 PJZ      0.135000
     55 H21        -1.1930    3.4500    4.3550 ha        1 PJZ      0.126000
     56 H22         0.2850    1.2350    5.6140 hc        1 PJZ      0.069700
     57 H23         1.4600    2.5740    5.3290 hc        1 PJZ      0.069700
     58 H24        -0.4010    1.2960    3.1920 hc        1 PJZ      0.082200
     59 H25         0.7280    2.6820    2.8970 hc        1 PJZ      0.082200
     60 H26         4.6330    7.6410  -14.0970 hc        1 PJZ      0.032700
     61 H27         6.0060    7.6680  -12.9150 hc        1 PJZ      0.032700
     62 H28         4.4730    8.5520  -12.5390 hc        1 PJZ      0.032700
     63 H29         4.7580    5.4820  -12.8540 hc        1 PJZ      0.038700
     64 H30         4.2660    7.2660  -10.3700 hc        1 PJZ      0.039700
     65 H31         3.0120    5.0810  -10.3460 hc        1 PJZ      0.039700
     66 H32         5.5800    5.1020   -8.6110 hc        1 PJZ      0.039700
     67 H33         2.7970    3.7980   -8.2130 hc        1 PJZ      0.040200
     68 H34         5.3640    3.8190   -6.4780 hc        1 PJZ      0.039700
     69 H35         2.5820    2.5130   -6.0800 hc        1 PJZ      0.042700
     70 H36         3.6150    3.4140   -3.9680 hc        1 PJZ      0.041200
     71 H37         2.3720    1.2150   -3.9620 hc        1 PJZ      0.057700
     72 H38         3.9140    0.3430   -4.3140 hc        1 PJZ      0.057700
     73 H39         3.3100    2.0870   -1.8150 hc        1 PJZ      0.078700
     74 H40         4.9190    1.3370   -2.1880 hc        1 PJZ      0.078700
     75 H41         3.2280    6.3640  -12.4780 hc        1 PJZ      0.038700
     76 H42         5.7950    6.3850  -10.7450 hc        1 PJZ      0.039700
     77 H43         4.5420    4.2000  -10.7220 hc        1 PJZ      0.039700
     78 H44         4.0500    5.9830   -8.2350 hc        1 PJZ      0.039700
     79 H45         4.3270    2.9170   -8.5880 hc        1 PJZ      0.040200
     80 H46         3.8340    4.6990   -6.1020 hc        1 PJZ      0.039700
     81 H47         4.1130    1.6330   -6.4550 hc        1 PJZ      0.042700
     82 H48         5.1500    2.5390   -4.3450 hc        1 PJZ      0.041200
@<TRIPOS>BOND
     1    1    2 1   
     2    1   35 1   
     3    1   36 1   
     4    1   37 1   
     5    2    3 1   
     6    2    4 1   
     7    2   38 1   
     8    3   33 1   
     9    4    5 1   
    10    4   39 1   
    11    4   40 1   
    12    5   20 1   
    13    6    7 1   
    14    6   41 1   
    15    6   42 1   
    16    6   43 1   
    17    7    8 1   
    18    7   44 1   
    19    7   45 1   
    20    8    9 2   
    21    8   46 1   
    22    9   10 1   
    23    9   47 1   
    24   10   11 2   
    25   10   48 1   
    26   11   12 2   
    27   12   13 2   
    28   13   14 2   
    29   14   15 2   
    30   15   16 1   
    31   15   53 1   
    32   16   17 2   
    33   16   54 1   
    34   17   18 1   
    35   17   55 1   
    36   18   19 1   
    37   18   56 1   
    38   18   57 1   
    39   19   20 1   
    40   19   58 1   
    41   19   59 1   
    42   20   21 2   
    43   22   23 1   
    44   22   60 1   
    45   22   61 1   
    46   22   62 1   
    47   23   24 1   
    48   23   63 1   
    49   23   75 1   
    50   24   25 1   
    51   24   64 1   
    52   24   76 1   
    53   25   26 1   
    54   25   65 1   
    55   25   77 1   
    56   26   27 1   
    57   26   66 1   
    58   26   78 1   
    59   27   28 1   
    60   27   67 1   
    61   27   79 1   
    62   28   29 1   
    63   28   68 1   
    64   28   80 1   
    65   29   30 1   
    66   29   69 1   
    67   29   81 1   
    68   30   31 1   
    69   30   70 1   
    70   30   82 1   
    71   31   32 1   
    72   31   71 1   
    73   31   72 1   
    74   32   33 1   
    75   32   73 1   
    76   32   74 1   
    77   33   34 2   
    78   49   50 1   
    79   51   52 1   
@<TRIPOS>SUBSTRUCTURE
     1 PJZ         1 TEMP              0 ****  ****    0 ROOT
