@<TRIPOS>MOLECULE
PK0
   42    44     1     0     0
SMALL
bcc


@<TRIPOS>ATOM
      1 N4         -0.1170   -0.3830    0.0900 n         1 PK0     -0.434800
      2 C31        -1.2460   -1.3140    2.0970 c3        1 PK0     -0.091100
      3 C4         -0.9920   -0.0910   -1.0050 c3        1 PK0      0.073300
      4 O2          0.9870    0.1580    3.4550 o         1 PK0     -0.549500
      5 C2          0.8360    0.0520    2.2400 c         1 PK0      0.699500
      6 O5          1.9140   -0.2110   -1.1070 o         1 PK0     -0.603500
      7 C5          1.2810   -0.1710   -0.0400 c         1 PK0      0.796500
      8 C3         -0.5350   -0.1050    1.4860 c3        1 PK0      0.094700
      9 C1B        -1.3120    1.1780    1.6460 ca        1 PK0     -0.154300
     10 C2B        -2.5700    1.2050    2.2550 ca        1 PK0     -0.071000
     11 C3B        -3.2630    2.4040    2.4050 ca        1 PK0     -0.185000
     12 C4B        -2.6920    3.5950    1.9380 ca        1 PK0      0.146100
     13 C5B        -1.4270    3.5870    1.3230 ca        1 PK0     -0.185000
     14 C6B        -0.7530    2.3820    1.1850 ca        1 PK0     -0.071000
     15 O4         -3.3130    4.8140    2.0460 oh        1 PK0     -0.489100
     16 N1          1.8630    0.0320    1.2620 n         1 PK0     -0.429600
     17 C1A         3.2490    0.0810    1.5090 ca        1 PK0      0.087600
     18 C2A         4.1490    0.5220    0.5140 ca        1 PK0     -0.122000
     19 C3A         5.5130    0.5750    0.7760 ca        1 PK0     -0.084000
     20 C4A         6.0220    0.2000    2.0260 ca        1 PK0      0.022000
     21 C5A         5.1330   -0.2400    3.0190 ca        1 PK0     -0.115300
     22 C6A         3.7650   -0.3030    2.7690 ca        1 PK0     -0.112000
     23 C41         7.4230    0.2760    2.2520 cg        1 PK0      0.217800
     24 N41         8.5720    0.3410    2.4240 n1        1 PK0     -0.326800
     25 C51         5.6450   -0.6580    4.4000 c3        1 PK0      0.688200
     26 F1          6.1460    0.3780    5.1490 f         1 PK0     -0.229300
     27 F2          4.6950   -1.2270    5.2130 f         1 PK0     -0.229300
     28 F3          6.6550   -1.5870    4.3750 f         1 PK0     -0.229300
     29 H1         -2.2260   -1.4860    1.5930 hc        1 PK0      0.061700
     30 H2         -0.6230   -2.2350    1.9840 hc        1 PK0      0.061700
     31 H3         -1.4060   -1.1260    3.1870 hc        1 PK0      0.061700
     32 H4         -0.4770   -0.3710   -1.9630 h1        1 PK0      0.057700
     33 H5         -1.2780    0.9960   -1.0420 h1        1 PK0      0.057700
     34 H6         -1.9210   -0.7080   -0.8810 h1        1 PK0      0.057700
     35 H7         -3.0380    0.2820    2.6320 ha        1 PK0      0.140000
     36 H8         -4.2500    2.4140    2.8890 ha        1 PK0      0.150000
     37 H9         -0.9900    4.5310    0.9650 ha        1 PK0      0.150000
     38 H10         0.2400    2.3800    0.7090 ha        1 PK0      0.140000
     39 H11        -4.1540    4.6850    2.5080 ho        1 PK0      0.425000
     40 H12         3.7840    0.8150   -0.4860 ha        1 PK0      0.178000
     41 H13         6.2020    0.9190   -0.0120 ha        1 PK0      0.158000
     42 H14         3.0870   -0.6450    3.5730 ha        1 PK0      0.186000
@<TRIPOS>BOND
     1    1    3 1   
     2    1    7 1   
     3    1    8 1   
     4    2    8 1   
     5    2   29 1   
     6    2   30 1   
     7    2   31 1   
     8    3   32 1   
     9    3   33 1   
    10    3   34 1   
    11    4    5 2   
    12    5    8 1   
    13    5   16 1   
    14    6    7 2   
    15    7   16 1   
    16    8    9 1   
    17    9   10 ar  
    18    9   14 ar  
    19   10   11 ar  
    20   10   35 1   
    21   11   12 ar  
    22   11   36 1   
    23   12   13 ar  
    24   12   15 1   
    25   13   14 ar  
    26   13   37 1   
    27   14   38 1   
    28   15   39 1   
    29   16   17 1   
    30   17   18 ar  
    31   17   22 ar  
    32   18   19 ar  
    33   18   40 1   
    34   19   20 ar  
    35   19   41 1   
    36   20   21 ar  
    37   20   23 1   
    38   21   22 ar  
    39   21   25 1   
    40   22   42 1   
    41   23   24 3   
    42   25   26 1   
    43   25   27 1   
    44   25   28 1   
@<TRIPOS>SUBSTRUCTURE
     1 PK0         1 TEMP              0 ****  ****    0 ROOT
