@<TRIPOS>MOLECULE
PK0
   42    44     1     0     0
SMALL
bcc


@<TRIPOS>ATOM
      1 N4         -0.1180   -0.3400    0.1430 n         1 PK0     -0.434800
      2 C31        -1.2230   -1.2810    2.1590 c3        1 PK0     -0.091100
      3 C4         -1.0080   -0.0310   -0.9360 c3        1 PK0      0.073300
      4 O2          1.0420    0.1610    3.4950 o         1 PK0     -0.549500
      5 C2          0.8720    0.0680    2.2820 c         1 PK0      0.699500
      6 O5          1.8950   -0.1730   -1.0840 o         1 PK0     -0.603500
      7 C5          1.2790   -0.1380   -0.0070 c         1 PK0      0.796500
      8 C3         -0.5120   -0.0720    1.5480 c3        1 PK0      0.094700
      9 C1B        -1.2770    1.2160    1.7320 ca        1 PK0     -0.154300
     10 C2B        -2.5250    1.2460    2.3600 ca        1 PK0     -0.071000
     11 C3B        -3.2070    2.4490    2.5320 ca        1 PK0     -0.185000
     12 C4B        -2.6330    3.6400    2.0680 ca        1 PK0      0.146100
     13 C5B        -1.3780    3.6280    1.4330 ca        1 PK0     -0.185000
     14 C6B        -0.7160    2.4190    1.2730 ca        1 PK0     -0.071000
     15 O4         -3.2430    4.8630    2.1960 oh        1 PK0     -0.489100
     16 N1          1.8830    0.0490    1.2870 n         1 PK0     -0.429600
     17 C1A         3.2730    0.0840    1.5130 ca        1 PK0      0.087600
     18 C2A         4.1610    0.5270    0.5080 ca        1 PK0     -0.122000
     19 C3A         5.5290    0.5670    0.7490 ca        1 PK0     -0.084000
     20 C4A         6.0550    0.1760    1.9880 ca        1 PK0      0.022000
     21 C5A         5.1780   -0.2660    2.9900 ca        1 PK0     -0.115300
     22 C6A         3.8050   -0.3150    2.7610 ca        1 PK0     -0.112000
     23 C41         7.4600    0.2390    2.1920 cg        1 PK0      0.217800
     24 N41         8.6110    0.2930    2.3460 n1        1 PK0     -0.326800
     25 C51         5.7070   -0.7000    4.3590 c3        1 PK0      0.688200
     26 F1          6.2290    0.3250    5.1090 f         1 PK0     -0.229300
     27 F2          4.7660   -1.2690    5.1830 f         1 PK0     -0.229300
     28 F3          6.7090   -1.6380    4.3090 f         1 PK0     -0.229300
     29 H1         -1.3650   -1.1020    3.2520 hc        1 PK0      0.061700
     30 H2         -2.2120   -1.4410    1.6680 hc        1 PK0      0.061700
     31 H3         -0.6100   -2.2060    2.0270 hc        1 PK0      0.061700
     32 H4         -0.5100   -0.3060   -1.9050 h1        1 PK0      0.057700
     33 H5         -1.9400   -0.6420   -0.8030 h1        1 PK0      0.057700
     34 H6         -1.2860    1.0590   -0.9580 h1        1 PK0      0.057700
     35 H7         -2.9950    0.3230    2.7350 ha        1 PK0      0.140000
     36 H8         -4.1860    2.4620    3.0310 ha        1 PK0      0.150000
     37 H9         -0.9390    4.5720    1.0770 ha        1 PK0      0.150000
     38 H10         0.2710    2.4140    0.7820 ha        1 PK0      0.140000
     39 H11        -4.0780    4.7360    2.6710 ho        1 PK0      0.425000
     40 H12         3.7830    0.8330   -0.4830 ha        1 PK0      0.178000
     41 H13         6.2090    0.9120   -0.0460 ha        1 PK0      0.158000
     42 H14         3.1380   -0.6590    3.5730 ha        1 PK0      0.186000
@<TRIPOS>BOND
     1    1    3 1   
     2    1    7 1   
     3    1    8 1   
     4    2    8 1   
     5    2   29 1   
     6    2   30 1   
     7    2   31 1   
     8    3   32 1   
     9    3   33 1   
    10    3   34 1   
    11    4    5 2   
    12    5    8 1   
    13    5   16 1   
    14    6    7 2   
    15    7   16 1   
    16    8    9 1   
    17    9   10 ar  
    18    9   14 ar  
    19   10   11 ar  
    20   10   35 1   
    21   11   12 ar  
    22   11   36 1   
    23   12   13 ar  
    24   12   15 1   
    25   13   14 ar  
    26   13   37 1   
    27   14   38 1   
    28   15   39 1   
    29   16   17 1   
    30   17   18 ar  
    31   17   22 ar  
    32   18   19 ar  
    33   18   40 1   
    34   19   20 ar  
    35   19   41 1   
    36   20   21 ar  
    37   20   23 1   
    38   21   22 ar  
    39   21   25 1   
    40   22   42 1   
    41   23   24 3   
    42   25   26 1   
    43   25   27 1   
    44   25   28 1   
@<TRIPOS>SUBSTRUCTURE
     1 PK0         1 TEMP              0 ****  ****    0 ROOT
