@<TRIPOS>MOLECULE
PK0
   42    44     1     0     0
SMALL
bcc


@<TRIPOS>ATOM
      1 N4         -0.1240   -0.4220    0.1350 n         1 PK0     -0.434800
      2 C31        -1.2320   -1.3360    2.1620 c3        1 PK0     -0.091100
      3 C4         -1.0110   -0.1390   -0.9540 c3        1 PK0      0.073300
      4 O2          1.0160    0.1450    3.4830 o         1 PK0     -0.549500
      5 C2          0.8520    0.0300    2.2710 c         1 PK0      0.699500
      6 O5          1.8940   -0.2630   -1.0850 o         1 PK0     -0.603500
      7 C5          1.2720   -0.2130   -0.0130 c         1 PK0      0.796500
      8 C3         -0.5270   -0.1330    1.5320 c3        1 PK0      0.094700
      9 C1B        -1.3020    1.1530    1.6900 ca        1 PK0     -0.154300
     10 C2B        -2.5530    1.1860    2.3130 ca        1 PK0     -0.071000
     11 C3B        -3.2430    2.3870    2.4600 ca        1 PK0     -0.185000
     12 C4B        -2.6750    3.5740    1.9770 ca        1 PK0      0.146100
     13 C5B        -1.4180    3.5590    1.3470 ca        1 PK0     -0.185000
     14 C6B        -0.7470    2.3520    1.2120 ca        1 PK0     -0.071000
     15 O4         -3.2950    4.7940    2.0810 oh        1 PK0     -0.489100
     16 N1          1.8690    0.0000    1.2820 n         1 PK0     -0.429600
     17 C1A         3.2570    0.0490    1.5130 ca        1 PK0      0.087600
     18 C2A         4.1470    0.4810    0.5050 ca        1 PK0     -0.122000
     19 C3A         5.5130    0.5340    0.7520 ca        1 PK0     -0.084000
     20 C4A         6.0360    0.1690    1.9990 ca        1 PK0      0.022000
     21 C5A         5.1570   -0.2620    3.0050 ca        1 PK0     -0.115300
     22 C6A         3.7860   -0.3240    2.7710 ca        1 PK0     -0.112000
     23 C41         7.4390    0.2440    2.2090 cg        1 PK0      0.217800
     24 N41         8.5900    0.3100    2.3680 n1        1 PK0     -0.326800
     25 C51         5.6830   -0.6680    4.3840 c3        1 PK0      0.688200
     26 F1          6.1940    0.3730    5.1190 f         1 PK0     -0.229300
     27 F2          4.7410   -1.2290    5.2130 f         1 PK0     -0.229300
     28 F3          6.6910   -1.6000    4.3560 f         1 PK0     -0.229300
     29 H1         -0.6120   -2.2580    2.0490 hc        1 PK0      0.061700
     30 H2         -1.3810   -1.1380    3.2510 hc        1 PK0      0.061700
     31 H3         -2.2180   -1.5110    1.6690 hc        1 PK0      0.061700
     32 H4         -1.2960    0.9480   -0.9970 h1        1 PK0      0.057700
     33 H5         -1.9390   -0.7540   -0.8140 h1        1 PK0      0.057700
     34 H6         -0.5070   -0.4270   -1.9150 h1        1 PK0      0.057700
     35 H7         -3.0170    0.2670    2.7030 ha        1 PK0      0.140000
     36 H8         -4.2240    2.4030    2.9560 ha        1 PK0      0.150000
     37 H9         -0.9850    4.4990    0.9770 ha        1 PK0      0.150000
     38 H10         0.2410    2.3450    0.7250 ha        1 PK0      0.140000
     39 H11        -4.1310    4.6700    2.5540 ho        1 PK0      0.425000
     40 H12         3.7710    0.7660   -0.4930 ha        1 PK0      0.178000
     41 H13         6.1950    0.8700   -0.0470 ha        1 PK0      0.158000
     42 H14         3.1170   -0.6590    3.5850 ha        1 PK0      0.186000
@<TRIPOS>BOND
     1    1    3 1   
     2    1    7 1   
     3    1    8 1   
     4    2    8 1   
     5    2   29 1   
     6    2   30 1   
     7    2   31 1   
     8    3   32 1   
     9    3   33 1   
    10    3   34 1   
    11    4    5 2   
    12    5    8 1   
    13    5   16 1   
    14    6    7 2   
    15    7   16 1   
    16    8    9 1   
    17    9   10 ar  
    18    9   14 ar  
    19   10   11 ar  
    20   10   35 1   
    21   11   12 ar  
    22   11   36 1   
    23   12   13 ar  
    24   12   15 1   
    25   13   14 ar  
    26   13   37 1   
    27   14   38 1   
    28   15   39 1   
    29   16   17 1   
    30   17   18 ar  
    31   17   22 ar  
    32   18   19 ar  
    33   18   40 1   
    34   19   20 ar  
    35   19   41 1   
    36   20   21 ar  
    37   20   23 1   
    38   21   22 ar  
    39   21   25 1   
    40   22   42 1   
    41   23   24 3   
    42   25   26 1   
    43   25   27 1   
    44   25   28 1   
@<TRIPOS>SUBSTRUCTURE
     1 PK0         1 TEMP              0 ****  ****    0 ROOT
