@<TRIPOS>MOLECULE
PK0
   42    37     1     0     0
SMALL
bcc


@<TRIPOS>ATOM
      1 N4         -1.5650   -0.6050   -1.6880 n         1 PK0     -0.292000
      2 C31        -3.3100   -1.2100    0.0360 c3        1 PK0     -0.228000
      3 C4         -2.4150   -0.8240   -2.8380 c3        1 PK0     -0.086000
      4 O2         -0.7690   -1.1720    1.6270 o         1 PK0     -0.288000
      5 C2         -0.7890   -0.8760    0.4470 c1        1 PK0      0.310000
      6 O5          0.5770   -0.4100   -2.7040 o         1 PK0     -0.323000
      7 C5         -0.1260   -0.5240   -1.7050 c2        1 PK0      0.391000
      8 C3         -1.9890   -0.5500   -0.3420 c3        1 PK0      0.100000
      9 C1B        -2.2160    0.8390   -0.0940 c2        1 PK0     -0.134000
     10 C2B        -2.6280    1.2640    1.1690 c1        1 PK0     -0.074000
     11 C3B        -2.7770    2.6180    1.4310 c1        1 PK0     -0.213000
     12 C4B        -2.5190    3.5500    0.4390 c1        1 PK0      0.095000
     13 C5B        -2.1080    3.1270   -0.8210 c1        1 PK0     -0.165000
     14 C6B        -1.9580    1.7680   -1.0860 c2        1 PK0     -0.065000
     15 O4         -2.5650    4.9560    0.7470 oh        1 PK0     -0.246000
     16 N1          0.3360   -0.7290   -0.3920 n2        1 PK0     -0.298000
     17 C1A         1.7060   -0.6930    0.0340 c1        1 PK0      0.096000
     18 C2A         2.3960    0.5100    0.0480 c1        1 PK0     -0.102000
     19 C3A         3.7140    0.5490    0.4780 c1        1 PK0     -0.102000
     20 C4A         4.3470   -0.6210    0.8960 c1        1 PK0      0.026000
     21 C5A         3.6580   -1.8250    0.8820 c1        1 PK0     -0.108000
     22 C6A         2.3370   -1.8630    0.4510 c1        1 PK0     -0.111000
     23 C41         5.7710   -0.5620    1.4440 c1        1 PK0     -0.112000
     24 N41         6.8540   -0.5160    1.8600 n1        1 PK0     -0.000000
     25 C51         4.3310   -3.1000    1.4060 c3        1 PK0      0.467000
     26 F1          4.6750   -2.9280    2.6880 f         1 PK0     -0.158000
     27 F2          5.4280   -3.3550    0.6800 f         1 PK0     -0.158000
     28 F3          3.4770   -4.1320    1.3050 f         1 PK0     -0.158000
     29 H1         -3.9200   -1.1830   -0.7310 hc        1 PK0      0.101333
     30 H2         -3.1500   -2.1370    0.2910 hc        1 PK0      0.101333
     31 H3         -3.7130   -0.7260    0.7930 hc        1 PK0      0.101333
     32 H4         -2.6420   -1.7780   -2.8990 h1        1 PK0      0.096333
     33 H5         -1.9370   -0.5430   -3.6590 h1        1 PK0      0.096333
     34 H6         -3.2360   -0.2980   -2.7420 h1        1 PK0      0.096333
     35 H7         -2.8110    0.6080    1.8700 ha        1 PK0      0.156000
     36 H8         -3.0650    2.9150    2.3170 ha        1 PK0      0.141000
     37 H9         -1.9280    3.7750   -1.5110 ha        1 PK0      0.156000
     38 H10        -1.6690    1.4710   -1.9690 ha        1 PK0      0.147000
     39 H11        -1.8050    5.1970    1.1630 ho        1 PK0      0.223000
     40 H12         1.9530    1.3290   -0.2450 ha        1 PK0      0.168500
     41 H13         4.2000    1.3980    0.4880 ha        1 PK0      0.168500
     42 H14         1.8500   -2.7120    0.4400 ha        1 PK0      0.185000
@<TRIPOS>BOND
     1    1    3 1   
     2    1    7 1   
     3    1    8 1   
     4    2    8 1   
     5    2   29 1   
     6    2   30 1   
     7    2   31 1   
     8    3   32 1   
     9    3   33 1   
    10    3   34 1   
    11    4    5 1   
    12    5    8 1   
    13    6    7 1   
    14    7   16 1   
    15    8    9 1   
    16    9   10 1   
    17    9   14 1   
    18   10   35 1   
    19   11   12 1   
    20   11   36 1   
    21   12   15 1   
    22   13   14 1   
    23   13   37 1   
    24   14   38 1   
    25   15   39 1   
    26   16   17 1   
    27   17   22 1   
    28   18   19 1   
    29   18   40 1   
    30   19   41 1   
    31   20   21 1   
    32   21   25 1   
    33   22   42 1   
    34   23   24 1   
    35   25   26 1   
    36   25   27 1   
    37   25   28 1   
@<TRIPOS>SUBSTRUCTURE
     1 PK0         1 TEMP              0 ****  ****    0 ROOT
