@<TRIPOS>MOLECULE
PK0
   42    44     1     0     0
SMALL
bcc


@<TRIPOS>ATOM
      1 N4          2.2310    1.9340    0.9350 n         1 PK0     -0.433800
      2 C31         2.5930    0.2470    2.7240 c3        1 PK0     -0.090100
      3 C4          3.3760    2.7360    0.6240 c3        1 PK0      0.073300
      4 O2          0.5740   -1.2400    1.0780 o         1 PK0     -0.548500
      5 C2          0.9620   -0.0930    0.8690 c         1 PK0      0.698500
      6 O5          0.6350    3.2480   -0.2120 o         1 PK0     -0.604500
      7 C5          1.0000    2.1620    0.2650 c         1 PK0      0.796500
      8 C3          2.3790    0.4870    1.2280 c3        1 PK0      0.095700
      9 C1B         3.4090   -0.2040    0.3680 ca        1 PK0     -0.154300
     10 C2B         4.5030   -0.8760    0.9270 ca        1 PK0     -0.070500
     11 C3B         5.4350   -1.5180    0.1180 ca        1 PK0     -0.185000
     12 C4B         5.2730   -1.4880   -1.2760 ca        1 PK0      0.145100
     13 C5B         4.1830   -0.8170   -1.8530 ca        1 PK0     -0.185000
     14 C6B         3.2630   -0.1820   -1.0260 ca        1 PK0     -0.070500
     15 O4          6.2260   -2.1370   -2.0210 oh        1 PK0     -0.489100
     16 N1          0.2110    0.9560    0.2790 n         1 PK0     -0.430600
     17 C1A        -1.1360    0.8890   -0.1250 ca        1 PK0      0.087600
     18 C2A        -1.6490    1.7800   -1.0940 ca        1 PK0     -0.123000
     19 C3A        -2.9780    1.6950   -1.4910 ca        1 PK0     -0.084000
     20 C4A        -3.8320    0.7250   -0.9490 ca        1 PK0      0.021000
     21 C5A        -3.3290   -0.1620    0.0150 ca        1 PK0     -0.114300
     22 C6A        -2.0010   -0.0850    0.4260 ca        1 PK0     -0.112000
     23 C41        -5.1820    0.6700   -1.3900 cg        1 PK0      0.217800
     24 N41        -6.2850    0.6360   -1.7580 n1        1 PK0     -0.326800
     25 C51        -4.2250   -1.2390    0.6320 c3        1 PK0      0.688200
     26 F1         -4.6000   -2.2270   -0.2440 f         1 PK0     -0.228967
     27 F2         -3.6590   -1.9210    1.6820 f         1 PK0     -0.228967
     28 F3         -5.4070   -0.7670    1.1480 f         1 PK0     -0.228967
     29 H1          1.7770    0.7240    3.3190 hc        1 PK0      0.061700
     30 H2          2.5800   -0.8530    2.9180 hc        1 PK0      0.061700
     31 H3          3.5680    0.6790    3.0540 hc        1 PK0      0.061700
     32 H4          3.9320    2.3510   -0.2740 h1        1 PK0      0.057367
     33 H5          3.0380    3.7890    0.4280 h1        1 PK0      0.057367
     34 H6          4.0620    2.7190    1.5120 h1        1 PK0      0.057367
     35 H7          4.6460   -0.9130    2.0180 ha        1 PK0      0.140000
     36 H8          6.2930   -2.0500    0.5530 ha        1 PK0      0.150000
     37 H9          4.0560   -0.7980   -2.9440 ha        1 PK0      0.150000
     38 H10         2.4060    0.3380   -1.4840 ha        1 PK0      0.140000
     39 H11         5.9820   -2.0630   -2.9550 ho        1 PK0      0.425000
     40 H12        -1.0080    2.5630   -1.5350 ha        1 PK0      0.178000
     41 H13        -3.3640    2.4000   -2.2450 ha        1 PK0      0.158000
     42 H14        -1.6310   -0.8030    1.1810 ha        1 PK0      0.186000
@<TRIPOS>BOND
     1    1    3 1   
     2    1    7 1   
     3    1    8 1   
     4    2    8 1   
     5    2   29 1   
     6    2   30 1   
     7    2   31 1   
     8    3   32 1   
     9    3   33 1   
    10    3   34 1   
    11    4    5 2   
    12    5    8 1   
    13    5   16 1   
    14    6    7 2   
    15    7   16 1   
    16    8    9 1   
    17    9   10 ar  
    18    9   14 ar  
    19   10   11 ar  
    20   10   35 1   
    21   11   12 ar  
    22   11   36 1   
    23   12   13 ar  
    24   12   15 1   
    25   13   14 ar  
    26   13   37 1   
    27   14   38 1   
    28   15   39 1   
    29   16   17 1   
    30   17   18 ar  
    31   17   22 ar  
    32   18   19 ar  
    33   18   40 1   
    34   19   20 ar  
    35   19   41 1   
    36   20   21 ar  
    37   20   23 1   
    38   21   22 ar  
    39   21   25 1   
    40   22   42 1   
    41   23   24 3   
    42   25   26 1   
    43   25   27 1   
    44   25   28 1   
@<TRIPOS>SUBSTRUCTURE
     1 PK0         1 TEMP              0 ****  ****    0 ROOT
