@<TRIPOS>MOLECULE
PK1
   38    40     1     0     0
SMALL
bcc


@<TRIPOS>ATOM
      1 N4         -0.0030    0.0460   -0.1450 n         1 PK1     -0.411800
      2 C31        -1.3780   -1.1490    1.5920 c3        1 PK1     -0.105100
      3 C4         -0.8340   -0.4280   -1.2110 c3        1 PK1      0.068300
      4 O2          0.8980   -0.0310    3.3100 o         1 PK1     -0.559500
      5 C2          0.8070   -0.0150    2.0830 c         1 PK1      0.696500
      6 S5          2.2600   -0.2390   -1.5000 s         1 PK1     -0.432400
      7 C5          1.3960   -0.1140   -0.1780 c         1 PK1      0.530400
      8 C3         -0.5130    0.0670    1.2430 c3        1 PK1      0.087700
      9 C1B        -1.2500    1.3360    1.6060 ca        1 PK1     -0.139300
     10 C2B        -1.6010    1.5330    2.9530 ca        1 PK1     -0.071000
     11 C3B        -2.3050    2.6600    3.3520 ca        1 PK1     -0.189000
     12 C4B        -2.6670    3.6170    2.3880 ca        1 PK1      0.139100
     13 C5B        -2.3150    3.4410    1.0440 ca        1 PK1     -0.189000
     14 C6B        -1.6070    2.3020    0.6610 ca        1 PK1     -0.071000
     15 O4         -3.3680    4.7090    2.8390 oh        1 PK1     -0.492100
     16 N1          1.8810   -0.1050    1.1600 n         1 PK1     -0.382600
     17 C1A         3.2470   -0.0570    1.5280 ca        1 PK1      0.056600
     18 C2A         3.6480    0.7310    2.6310 ca        1 PK1     -0.120000
     19 C3A         4.9820    0.7660    3.0160 ca        1 PK1     -0.110000
     20 C4A         5.9460    0.0310    2.3180 ca        1 PK1      0.015400
     21 C5A         5.5560   -0.7510    1.2230 ca        1 PK1      0.025400
     22 C6A         4.2160   -0.8010    0.8280 ca        1 PK1     -0.110000
     23 CL1         6.6910   -1.6610    0.3500 cl        1 PK1     -0.062400
     24 CL2         7.5640    0.1060    2.8170 cl        1 PK1     -0.064400
     25 H1         -0.8590   -2.1010    1.3270 hc        1 PK1      0.061033
     26 H2         -2.3480   -1.0980    1.0420 hc        1 PK1      0.061033
     27 H3         -1.5810   -1.1460    2.6910 hc        1 PK1      0.061033
     28 H4         -0.3140   -0.2420   -2.1910 h1        1 PK1      0.062033
     29 H5         -1.8030    0.1360   -1.1810 h1        1 PK1      0.062033
     30 H6         -1.0480   -1.5280   -1.1110 h1        1 PK1      0.062033
     31 H7         -1.2940    0.7920    3.7110 ha        1 PK1      0.151000
     32 H8         -2.5790    2.8170    4.4040 ha        1 PK1      0.148000
     33 H9         -2.5900    4.1960    0.2930 ha        1 PK1      0.148000
     34 H10        -1.3340    2.1950   -0.4000 ha        1 PK1      0.151000
     35 H11        -3.5340    5.2930    2.0840 ho        1 PK1      0.423000
     36 H12         2.9060    1.3080    3.2060 ha        1 PK1      0.160000
     37 H13         5.2800    1.3810    3.8800 ha        1 PK1      0.156000
     38 H14         3.9310   -1.4050   -0.0530 ha        1 PK1      0.184000
@<TRIPOS>BOND
     1    1    3 1   
     2    1    7 1   
     3    1    8 1   
     4    2    8 1   
     5    2   25 1   
     6    2   26 1   
     7    2   27 1   
     8    3   28 1   
     9    3   29 1   
    10    3   30 1   
    11    4    5 2   
    12    5    8 1   
    13    5   16 1   
    14    6    7 2   
    15    7   16 1   
    16    8    9 1   
    17    9   10 ar  
    18    9   14 ar  
    19   10   11 ar  
    20   10   31 1   
    21   11   12 ar  
    22   11   32 1   
    23   12   13 ar  
    24   12   15 1   
    25   13   14 ar  
    26   13   33 1   
    27   14   34 1   
    28   15   35 1   
    29   16   17 1   
    30   17   18 ar  
    31   17   22 ar  
    32   18   19 ar  
    33   18   36 1   
    34   19   20 ar  
    35   19   37 1   
    36   20   21 ar  
    37   20   24 1   
    38   21   22 ar  
    39   21   23 1   
    40   22   38 1   
@<TRIPOS>SUBSTRUCTURE
     1 PK1         1 TEMP              0 ****  ****    0 ROOT
