@<TRIPOS>MOLECULE
PK1
   38    40     1     0     0
SMALL
bcc


@<TRIPOS>ATOM
      1 N4          0.0000    0.0430   -0.1450 n         1 PK1     -0.411800
      2 C31        -1.3770   -1.1520    1.5910 c3        1 PK1     -0.105100
      3 C4         -0.8290   -0.4320   -1.2130 c3        1 PK1      0.068300
      4 O2          0.8960   -0.0310    3.3110 o         1 PK1     -0.559500
      5 C2          0.8060   -0.0150    2.0840 c         1 PK1      0.696500
      6 S5          2.2640   -0.2390   -1.4980 s         1 PK1     -0.432400
      7 C5          1.3990   -0.1150   -0.1770 c         1 PK1      0.530400
      8 C3         -0.5130    0.0650    1.2410 c3        1 PK1      0.087700
      9 C1B        -1.2510    1.3330    1.6030 ca        1 PK1     -0.139300
     10 C2B        -1.6040    1.5310    2.9490 ca        1 PK1     -0.071000
     11 C3B        -2.3090    2.6570    3.3470 ca        1 PK1     -0.189000
     12 C4B        -2.6700    3.6140    2.3810 ca        1 PK1      0.139100
     13 C5B        -2.3170    3.4370    1.0380 ca        1 PK1     -0.189000
     14 C6B        -1.6070    2.2990    0.6570 ca        1 PK1     -0.071000
     15 O4         -3.3730    4.7050    2.8310 oh        1 PK1     -0.492100
     16 N1          1.8820   -0.1050    1.1630 n         1 PK1     -0.382600
     17 C1A         3.2470   -0.0530    1.5320 ca        1 PK1      0.056600
     18 C2A         3.6460    0.7360    2.6350 ca        1 PK1     -0.120000
     19 C3A         4.9790    0.7730    3.0220 ca        1 PK1     -0.110000
     20 C4A         5.9450    0.0400    2.3260 ca        1 PK1      0.015400
     21 C5A         5.5580   -0.7440    1.2300 ca        1 PK1      0.025400
     22 C6A         4.2190   -0.7960    0.8330 ca        1 PK1     -0.110000
     23 CL1         6.6960   -1.6520    0.3600 cl        1 PK1     -0.062400
     24 CL2         7.5620    0.1180    2.8260 cl        1 PK1     -0.064400
     25 H1         -1.5810   -1.1480    2.6890 hc        1 PK1      0.061033
     26 H2         -0.8570   -2.1040    1.3270 hc        1 PK1      0.061033
     27 H3         -2.3460   -1.1020    1.0390 hc        1 PK1      0.061033
     28 H4         -1.7990    0.1310   -1.1840 h1        1 PK1      0.062033
     29 H5         -1.0430   -1.5320   -1.1120 h1        1 PK1      0.062033
     30 H6         -0.3080   -0.2470   -2.1920 h1        1 PK1      0.062033
     31 H7         -1.2970    0.7910    3.7090 ha        1 PK1      0.151000
     32 H8         -2.5850    2.8160    4.3990 ha        1 PK1      0.148000
     33 H9         -2.5910    4.1910    0.2870 ha        1 PK1      0.148000
     34 H10        -1.3330    2.1910   -0.4040 ha        1 PK1      0.151000
     35 H11        -3.5380    5.2890    2.0750 ho        1 PK1      0.423000
     36 H12         2.9010    1.3120    3.2090 ha        1 PK1      0.160000
     37 H13         5.2750    1.3890    3.8860 ha        1 PK1      0.156000
     38 H14         3.9360   -1.4020   -0.0470 ha        1 PK1      0.184000
@<TRIPOS>BOND
     1    1    3 1   
     2    1    7 1   
     3    1    8 1   
     4    2    8 1   
     5    2   25 1   
     6    2   26 1   
     7    2   27 1   
     8    3   28 1   
     9    3   29 1   
    10    3   30 1   
    11    4    5 2   
    12    5    8 1   
    13    5   16 1   
    14    6    7 2   
    15    7   16 1   
    16    8    9 1   
    17    9   10 ar  
    18    9   14 ar  
    19   10   11 ar  
    20   10   31 1   
    21   11   12 ar  
    22   11   32 1   
    23   12   13 ar  
    24   12   15 1   
    25   13   14 ar  
    26   13   33 1   
    27   14   34 1   
    28   15   35 1   
    29   16   17 1   
    30   17   18 ar  
    31   17   22 ar  
    32   18   19 ar  
    33   18   36 1   
    34   19   20 ar  
    35   19   37 1   
    36   20   21 ar  
    37   20   24 1   
    38   21   22 ar  
    39   21   23 1   
    40   22   38 1   
@<TRIPOS>SUBSTRUCTURE
     1 PK1         1 TEMP              0 ****  ****    0 ROOT
