@<TRIPOS>MOLECULE
PK1
   38    40     1     0     0
SMALL
bcc


@<TRIPOS>ATOM
      1 N4         -0.0000    0.0440   -0.1450 n         1 PK1     -0.411800
      2 C31        -1.3810   -1.1470    1.5920 c3        1 PK1     -0.105100
      3 C4         -0.8300   -0.4320   -1.2120 c3        1 PK1      0.068300
      4 O2          0.8930   -0.0280    3.3120 o         1 PK1     -0.559500
      5 C2          0.8040   -0.0140    2.0850 c         1 PK1      0.696500
      6 S5          2.2640   -0.2460   -1.4950 s         1 PK1     -0.432400
      7 C5          1.3980   -0.1180   -0.1750 c         1 PK1      0.530400
      8 C3         -0.5140    0.0680    1.2420 c3        1 PK1      0.087700
      9 C1B        -1.2500    1.3390    1.6010 ca        1 PK1     -0.139300
     10 C2B        -1.6030    1.5380    2.9470 ca        1 PK1     -0.071000
     11 C3B        -2.3070    2.6670    3.3420 ca        1 PK1     -0.189000
     12 C4B        -2.6650    3.6230    2.3750 ca        1 PK1      0.139100
     13 C5B        -2.3110    3.4440    1.0320 ca        1 PK1     -0.189000
     14 C6B        -1.6030    2.3040    0.6540 ca        1 PK1     -0.071000
     15 O4         -3.3650    4.7160    2.8230 oh        1 PK1     -0.492100
     16 N1          1.8800   -0.1070    1.1640 n         1 PK1     -0.382600
     17 C1A         3.2450   -0.0590    1.5350 ca        1 PK1      0.056600
     18 C2A         3.6460    0.7300    2.6360 ca        1 PK1     -0.120000
     19 C3A         4.9790    0.7640    3.0250 ca        1 PK1     -0.110000
     20 C4A         5.9430    0.0270    2.3300 ca        1 PK1      0.015400
     21 C5A         5.5540   -0.7570    1.2360 ca        1 PK1      0.025400
     22 C6A         4.2150   -0.8060    0.8380 ca        1 PK1     -0.110000
     23 Cl1         6.6900   -1.6700    0.3670 cl        1 PK1     -0.062400
     24 Cl2         7.5610    0.1010    2.8310 cl        1 PK1     -0.064400
     25 H1         -0.8630   -2.1000    1.3290 hc        1 PK1      0.061033
     26 H2         -1.5860   -1.1410    2.6900 hc        1 PK1      0.061033
     27 H3         -2.3500   -1.0950    1.0400 hc        1 PK1      0.061033
     28 H4         -0.3080   -0.2480   -2.1910 h1        1 PK1      0.062033
     29 H5         -1.0460   -1.5310   -1.1100 h1        1 PK1      0.062033
     30 H6         -1.7990    0.1340   -1.1850 h1        1 PK1      0.062033
     31 H7         -1.2980    0.7990    3.7070 ha        1 PK1      0.151000
     32 H8         -2.5830    2.8270    4.3940 ha        1 PK1      0.148000
     33 H9         -2.5830    4.1970    0.2800 ha        1 PK1      0.148000
     34 H10        -1.3290    2.1930   -0.4070 ha        1 PK1      0.151000
     35 H11        -3.5290    5.2990    2.0660 ho        1 PK1      0.423000
     36 H12         2.9030    1.3090    3.2090 ha        1 PK1      0.160000
     37 H13         5.2760    1.3810    3.8880 ha        1 PK1      0.156000
     38 H14         3.9320   -1.4130   -0.0420 ha        1 PK1      0.184000
@<TRIPOS>BOND
     1    1    3 1   
     2    1    7 1   
     3    1    8 1   
     4    2    8 1   
     5    2   25 1   
     6    2   26 1   
     7    2   27 1   
     8    3   28 1   
     9    3   29 1   
    10    3   30 1   
    11    4    5 2   
    12    5    8 1   
    13    5   16 1   
    14    6    7 2   
    15    7   16 1   
    16    8    9 1   
    17    9   10 ar  
    18    9   14 ar  
    19   10   11 ar  
    20   10   31 1   
    21   11   12 ar  
    22   11   32 1   
    23   12   13 ar  
    24   12   15 1   
    25   13   14 ar  
    26   13   33 1   
    27   14   34 1   
    28   15   35 1   
    29   16   17 1   
    30   17   18 ar  
    31   17   22 ar  
    32   18   19 ar  
    33   18   36 1   
    34   19   20 ar  
    35   19   37 1   
    36   20   21 ar  
    37   20   24 1   
    38   21   22 ar  
    39   21   23 1   
    40   22   38 1   
@<TRIPOS>SUBSTRUCTURE
     1 PK1         1 TEMP              0 ****  ****    0 ROOT
