@<TRIPOS>MOLECULE
PK1
   38    40     1     0     0
SMALL
bcc


@<TRIPOS>ATOM
      1 N4          1.6490    1.8910    0.2350 n         1 PK1     -0.416800
      2 C31         2.3570    1.1870    2.5170 c3        1 PK1     -0.092100
      3 C4          2.5790    2.8270   -0.3160 c3        1 PK1      0.074300
      4 O2          0.7130   -1.2200    1.7090 o         1 PK1     -0.548500
      5 C2          0.8520   -0.1790    1.0720 c         1 PK1      0.693500
      6 S5         -0.3460    2.5870   -1.3700 s         1 PK1     -0.449400
      7 C5          0.3920    1.6400   -0.3320 c         1 PK1      0.534400
      8 C3          2.1100    0.7580    1.0690 c3        1 PK1      0.093700
      9 C1B         3.2740    0.0100    0.4680 ca        1 PK1     -0.149300
     10 C2B         4.4630   -0.1950    1.1790 ca        1 PK1     -0.070500
     11 C3B         5.5210   -0.8980    0.6120 ca        1 PK1     -0.185500
     12 C4B         5.3900   -1.4050   -0.6910 ca        1 PK1      0.144100
     13 C5B         4.2060   -1.2080   -1.4170 ca        1 PK1     -0.185500
     14 C6B         3.1600   -0.5030   -0.8320 ca        1 PK1     -0.070500
     15 O4          6.4690   -2.0880   -1.1960 oh        1 PK1     -0.490100
     16 N1         -0.1080    0.4230    0.2150 n         1 PK1     -0.389600
     17 C1A        -1.4000   -0.1030   -0.0180 ca        1 PK1      0.059600
     18 C2A        -1.5810   -1.5040   -0.0780 ca        1 PK1     -0.123000
     19 C3A        -2.8460   -2.0370   -0.2890 ca        1 PK1     -0.110000
     20 C4A        -3.9550   -1.2010   -0.4530 ca        1 PK1      0.012400
     21 C5A        -3.7840    0.1890   -0.3950 ca        1 PK1      0.027400
     22 C6A        -2.5180    0.7390   -0.1770 ca        1 PK1     -0.114000
     23 CL1        -5.1030    1.2390   -0.5840 cl        1 PK1     -0.061400
     24 CL2        -5.4810   -1.8920   -0.7170 cl        1 PK1     -0.065400
     25 H1          1.4580    1.7050    2.9330 hc        1 PK1      0.061367
     26 H2          2.5570    0.2760    3.1330 hc        1 PK1      0.061367
     27 H3          3.2260    1.8840    2.5760 hc        1 PK1      0.061367
     28 H4          3.3190    2.3130   -0.9890 h1        1 PK1      0.063700
     29 H5          2.0190    3.6060   -0.9040 h1        1 PK1      0.063700
     30 H6          3.1310    3.3160    0.5310 h1        1 PK1      0.063700
     31 H7          4.5840    0.1930    2.2020 ha        1 PK1      0.141500
     32 H8          6.4550   -1.0640    1.1680 ha        1 PK1      0.149500
     33 H9          4.1050   -1.6080   -2.4360 ha        1 PK1      0.149500
     34 H10         2.2310   -0.3550   -1.4050 ha        1 PK1      0.141500
     35 H11         6.2420   -2.3940   -2.0870 ho        1 PK1      0.425000
     36 H12        -0.7270   -2.1860    0.0650 ha        1 PK1      0.161000
     37 H13        -2.9730   -3.1310   -0.3290 ha        1 PK1      0.156000
     38 H14        -2.4010    1.8380   -0.1570 ha        1 PK1      0.184000
@<TRIPOS>BOND
     1    1    3 1   
     2    1    7 1   
     3    1    8 1   
     4    2    8 1   
     5    2   25 1   
     6    2   26 1   
     7    2   27 1   
     8    3   28 1   
     9    3   29 1   
    10    3   30 1   
    11    4    5 2   
    12    5    8 1   
    13    5   16 1   
    14    6    7 2   
    15    7   16 1   
    16    8    9 1   
    17    9   10 ar  
    18    9   14 ar  
    19   10   11 ar  
    20   10   31 1   
    21   11   12 ar  
    22   11   32 1   
    23   12   13 ar  
    24   12   15 1   
    25   13   14 ar  
    26   13   33 1   
    27   14   34 1   
    28   15   35 1   
    29   16   17 1   
    30   17   18 ar  
    31   17   22 ar  
    32   18   19 ar  
    33   18   36 1   
    34   19   20 ar  
    35   19   37 1   
    36   20   21 ar  
    37   20   24 1   
    38   21   22 ar  
    39   21   23 1   
    40   22   38 1   
@<TRIPOS>SUBSTRUCTURE
     1 PK1         1 TEMP              0 ****  ****    0 ROOT
