@<TRIPOS>MOLECULE
PK2
   56    59     1     0     0
SMALL
bcc


@<TRIPOS>ATOM
      1 C2         -0.9300   -0.4390   -0.3110 c         1 PK2      0.724100
      2 O14        -1.9780   -0.5260   -0.9540 o         1 PK2     -0.519500
      3 N3          0.2890   -0.5810   -1.0350 ns        1 PK2     -0.504400
      4 C4          1.4900   -0.4790   -0.3350 cc        1 PK2      0.544800
      5 N15         2.7560   -0.6470   -1.1300 nz        1 PK2     -0.804600
      6 N5          1.6390   -0.2480    0.9570 nd        1 PK2     -0.582100
      7 C6          0.4830   -0.1070    1.7450 ca        1 PK2      0.169400
      8 C10         0.6130    0.1150    3.1390 ca        1 PK2     -0.054300
      9 C18         1.9260    0.1520    3.8380 c3        1 PK2     -0.042100
     10 C19         2.2130    1.4910    4.5190 c3        1 PK2      0.115800
     11 N20         1.8240    1.5310    5.9570 ny        1 PK2     -0.775000
     12 C21         2.1900    2.8290    6.5970 c3        1 PK2      0.102800
     13 C22         1.8380    2.8800    8.0870 c3        1 PK2     -0.086700
     14 C27         2.0460    4.3150    8.5650 c3        1 PK2     -0.078900
     15 C26         1.7450    4.4360   10.0450 c3        1 PK2     -0.077900
     16 C25         2.5800    3.4700   10.8590 c3        1 PK2     -0.085400
     17 C24         2.3960    2.0460   10.3790 c3        1 PK2     -0.077900
     18 C23         2.6930    1.9170    8.8980 c3        1 PK2     -0.078900
     19 C9         -0.5720    0.2330    3.8850 ca        1 PK2      0.145400
     20 N11        -0.7430    0.4430    5.2560 nc        1 PK2     -0.755100
     21 C12        -2.1170    0.4460    5.4640 cd        1 PK2      0.718700
     22 N16        -2.7350    0.6800    6.6730 nu        1 PK2     -0.795200
     23 C17        -4.1520    0.5090    6.8350 c3        1 PK2      0.169100
     24 N13        -2.8310    0.2350    4.2520 na        1 PK2     -0.284300
     25 C8         -1.8730    0.1140    3.2400 ca        1 PK2     -0.058200
     26 C7         -1.9940   -0.0980    1.8730 ca        1 PK2     -0.024000
     27 C1         -0.8090   -0.2040    1.1400 ca        1 PK2     -0.168600
     28 HN3         0.2410   -0.7580   -2.0170 hn        1 PK2      0.362500
     29 HN15        2.7990    0.0700   -1.8650 hn        1 PK2      0.486133
     30 HN1A        2.7710   -1.5840   -1.5550 hn        1 PK2      0.486133
     31 H18         1.9530   -0.6970    4.5800 hc        1 PK2      0.090200
     32 H18A        2.7750   -0.0310    3.1260 hc        1 PK2      0.090200
     33 H19         1.6630    2.3220    3.9920 hx        1 PK2      0.101700
     34 H19A        3.3200    1.7040    4.4650 hx        1 PK2      0.101700
     35 HN20        0.7980    1.3750    6.0400 hn        1 PK2      0.468300
     36 H21         3.2990    2.9860    6.4650 hx        1 PK2      0.100200
     37 H21A        1.6400    3.6470    6.0490 hx        1 PK2      0.100200
     38 H22         0.7520    2.6150    8.2290 hc        1 PK2      0.064700
     39 H27         1.3770    5.0050    7.9880 hc        1 PK2      0.045700
     40 H27A        3.1080    4.6220    8.3730 hc        1 PK2      0.045700
     41 H26         0.6550    4.2390   10.2250 hc        1 PK2      0.058450
     42 H26A        1.9550    5.4870   10.3760 hc        1 PK2      0.058450
     43 H25         3.6630    3.7550   10.7880 hc        1 PK2      0.063200
     44 H25A        2.2860    3.5400   11.9400 hc        1 PK2      0.063200
     45 H24         3.0790    1.3650   10.9510 hc        1 PK2      0.058450
     46 H24A        1.3430    1.7140   10.5800 hc        1 PK2      0.058450
     47 H23         2.4980    0.8590    8.5820 hc        1 PK2      0.045700
     48 H23A        3.7790    2.1360    8.7170 hc        1 PK2      0.045700
     49 HN16       -2.1650    0.5810    7.4870 hn        1 PK2      0.463800
     50 H17        -4.4130    0.7460    7.9030 h1        1 PK2      0.071700
     51 H17A       -4.7040    1.2240    6.1670 h1        1 PK2      0.071700
     52 H17B       -4.4790   -0.5410    6.6060 h1        1 PK2      0.071700
     53 HN13       -3.8140    0.2390    4.1340 hn        1 PK2      0.341700
     54 H7         -2.9710   -0.1880    1.3670 ha        1 PK2      0.195000
     55 H153        3.5750   -0.5460   -0.5120 hn        1 PK2      0.486133
     56 H202        2.2910    0.7660    6.4580 hn        1 PK2      0.468300
@<TRIPOS>BOND
     1    1    2 2   
     2    1    3 1   
     3    1   27 1   
     4    3    4 1   
     5    3   28 1   
     6    4    5 1   
     7    4    6 2   
     8    5   29 1   
     9    5   30 1   
    10    5   55 1   
    11    6    7 1   
    12    7    8 ar  
    13    7   27 ar  
    14    8    9 1   
    15    8   19 ar  
    16    9   10 1   
    17    9   31 1   
    18    9   32 1   
    19   10   11 1   
    20   10   33 1   
    21   10   34 1   
    22   11   12 1   
    23   11   35 1   
    24   11   56 1   
    25   12   13 1   
    26   12   36 1   
    27   12   37 1   
    28   13   14 1   
    29   13   18 1   
    30   13   38 1   
    31   14   15 1   
    32   14   39 1   
    33   14   40 1   
    34   15   16 1   
    35   15   41 1   
    36   15   42 1   
    37   16   17 1   
    38   16   43 1   
    39   16   44 1   
    40   17   18 1   
    41   17   45 1   
    42   17   46 1   
    43   18   47 1   
    44   18   48 1   
    45   19   20 1   
    46   19   25 ar  
    47   20   21 2   
    48   21   22 1   
    49   21   24 1   
    50   22   23 1   
    51   22   49 1   
    52   23   50 1   
    53   23   51 1   
    54   23   52 1   
    55   24   25 1   
    56   24   53 1   
    57   25   26 ar  
    58   26   27 ar  
    59   26   54 1   
@<TRIPOS>SUBSTRUCTURE
     1 PK2         1 TEMP              0 ****  ****    0 ROOT
