@<TRIPOS>MOLECULE
PK2
   54    57     1     0     0
SMALL
bcc


@<TRIPOS>ATOM
      1 C2         -3.8950    2.6360    0.5780 c         1 PK2      0.719100
      2 O14        -5.0460    2.7790    1.0300 o         1 PK2     -0.632500
      3 N3         -3.1350    3.7890    0.3300 n         1 PK2     -0.504400
      4 C4         -1.8350    3.6810   -0.2170 cc        1 PK2      0.654800
      5 N15        -1.1880    4.8960   -0.5730 nh        1 PK2     -0.880800
      6 N5         -1.2280    2.5150   -0.4560 nd        1 PK2     -0.671100
      7 C6         -1.9240    1.3260   -0.2300 ca        1 PK2      0.202400
      8 C10        -1.2840    0.0890   -0.5190 ca        1 PK2     -0.040300
      9 C18         0.0910    0.0210   -1.0820 c3        1 PK2     -0.025100
     10 C19         1.1280    0.0440    0.0460 c3        1 PK2      0.168800
     11 N20         2.4900   -0.0850   -0.4400 n3        1 PK2     -0.823200
     12 C21         3.4520   -0.2570    0.6290 c3        1 PK2      0.166800
     13 C22         4.8530   -0.6500    0.1430 c3        1 PK2     -0.064700
     14 C27         5.7250   -0.9690    1.3500 c3        1 PK2     -0.072400
     15 C26         7.1350   -1.3270    0.9290 c3        1 PK2     -0.076900
     16 C25         7.7570   -0.2280    0.0930 c3        1 PK2     -0.076400
     17 C24         6.8910    0.1040   -1.1050 c3        1 PK2     -0.076900
     18 C23         5.4790    0.4600   -0.6870 c3        1 PK2     -0.072400
     19 C9         -1.9990   -1.0840   -0.2590 ca        1 PK2      0.138400
     20 N11        -1.6170   -2.4300   -0.4400 nc        1 PK2     -0.623100
     21 C12        -2.6880   -3.1700   -0.0240 cd        1 PK2      0.609700
     22 N16        -2.7050   -4.5750    0.0860 nh        1 PK2     -0.773200
     23 C17        -3.9620   -5.2470   -0.1040 c3        1 PK2      0.165100
     24 N13        -3.8170   -2.3620    0.3430 na        1 PK2     -0.283300
     25 C8         -3.3560   -1.0310    0.2660 ca        1 PK2     -0.115200
     26 C7         -3.9820    0.1730    0.5370 ca        1 PK2     -0.052000
     27 C1         -3.2530    1.3410    0.2910 ca        1 PK2     -0.199600
     28 HN3        -3.5690    4.6770    0.4450 hn        1 PK2      0.336500
     29 HN15       -1.2550    5.6090    0.1220 hn        1 PK2      0.410300
     30 HN1A       -0.2540    4.7660   -0.9060 hn        1 PK2      0.410300
     31 H18         0.2050   -0.9210   -1.6850 hc        1 PK2      0.066200
     32 H18A        0.2750    0.8800   -1.7820 hc        1 PK2      0.066200
     33 H19         1.0580    1.0300    0.5870 h1        1 PK2      0.034700
     34 H19A        0.8640   -0.7680    0.7870 h1        1 PK2      0.034700
     35 HN20        2.5580   -0.8370   -1.1000 hn        1 PK2      0.353800
     36 H21         3.5190    0.7240    1.1800 h1        1 PK2      0.027700
     37 H21A        3.1160   -1.0360    1.3790 h1        1 PK2      0.027700
     38 H22         4.7810   -1.5760   -0.4950 hc        1 PK2      0.045700
     39 H27         5.7510   -0.0810    2.0340 hc        1 PK2      0.043450
     40 H27A        5.2770   -1.8230    1.9220 hc        1 PK2      0.043450
     41 H26         7.7620   -1.5060    1.8410 hc        1 PK2      0.037700
     42 H26A        7.1180   -2.2800    0.3390 hc        1 PK2      0.037700
     43 H25         7.8900    0.6910    0.7230 hc        1 PK2      0.037700
     44 H25A        8.7740   -0.5480   -0.2540 hc        1 PK2      0.037700
     45 H24         7.3420    0.9630   -1.6670 hc        1 PK2      0.037700
     46 H24A        6.8640   -0.7760   -1.8000 hc        1 PK2      0.037700
     47 H23         4.8550    0.6480   -1.5990 hc        1 PK2      0.043450
     48 H23A        5.4920    1.4080   -0.0880 hc        1 PK2      0.043450
     49 HN16       -1.9440   -4.9970   -0.4130 hn        1 PK2      0.425800
     50 H17        -4.4690   -4.9810   -1.0710 h1        1 PK2      0.046367
     51 H17A       -3.7700   -6.3530   -0.0880 h1        1 PK2      0.046367
     52 H17B       -4.6540   -4.9960    0.7430 h1        1 PK2      0.046367
     53 HN13       -4.5010   -2.6530    0.9950 hn        1 PK2      0.295700
     54 H7         -5.0090    0.2370    0.9280 ha        1 PK2      0.162000
@<TRIPOS>BOND
     1    1    2 2   
     2    1    3 1   
     3    1   27 1   
     4    3    4 1   
     5    3   28 1   
     6    4    5 1   
     7    4    6 2   
     8    5   29 1   
     9    5   30 1   
    10    6    7 1   
    11    7    8 ar  
    12    7   27 ar  
    13    8    9 1   
    14    8   19 ar  
    15    9   10 1   
    16    9   31 1   
    17    9   32 1   
    18   10   11 1   
    19   10   33 1   
    20   10   34 1   
    21   11   12 1   
    22   11   35 1   
    23   12   13 1   
    24   12   36 1   
    25   12   37 1   
    26   13   14 1   
    27   13   18 1   
    28   13   38 1   
    29   14   15 1   
    30   14   39 1   
    31   14   40 1   
    32   15   16 1   
    33   15   41 1   
    34   15   42 1   
    35   16   17 1   
    36   16   43 1   
    37   16   44 1   
    38   17   18 1   
    39   17   45 1   
    40   17   46 1   
    41   18   47 1   
    42   18   48 1   
    43   19   20 1   
    44   19   25 ar  
    45   20   21 2   
    46   21   22 1   
    47   21   24 1   
    48   22   23 1   
    49   22   49 1   
    50   23   50 1   
    51   23   51 1   
    52   23   52 1   
    53   24   25 1   
    54   24   53 1   
    55   25   26 ar  
    56   26   27 ar  
    57   26   54 1   
@<TRIPOS>SUBSTRUCTURE
     1 PK2         1 TEMP              0 ****  ****    0 ROOT
