@<TRIPOS>MOLECULE
PK2
   57    60     1     0     0
SMALL
bcc


@<TRIPOS>ATOM
      1 C2         -0.2530   -0.0040   -0.3090 c         1 PK2      0.714100
      2 O14        -0.9140    0.0560   -1.3440 o         1 PK2     -0.476500
      3 N3          1.1480   -0.2250   -0.4230 n         1 PK2     -0.496400
      4 C4          1.9130   -0.2740    0.7380 cc        1 PK2      0.588800
      5 N15         3.3860   -0.5310    0.5610 n4        1 PK2     -0.808600
      6 N5          1.4840   -0.1180    1.9800 nd        1 PK2     -0.608100
      7 C6          0.1040    0.0760    2.1910 ca        1 PK2      0.174400
      8 C10        -0.3930    0.1930    3.5070 ca        1 PK2      0.008700
      9 C18         0.4630    0.0900    4.7240 c3        1 PK2     -0.057100
     10 C19         0.7630    1.4770    5.3000 c3        1 PK2      0.107800
     11 N20         1.5100    1.4170    6.5890 n4        1 PK2     -0.765000
     12 C21         1.8250    2.7820    7.1250 c3        1 PK2      0.104800
     13 C22         2.5580    2.7300    8.4690 c3        1 PK2     -0.093700
     14 C27         2.6500    4.1600    9.0000 c3        1 PK2     -0.077400
     15 C26         3.3860    4.1890   10.3250 c3        1 PK2     -0.079400
     16 C25         4.7620    3.5690   10.2060 c3        1 PK2     -0.087400
     17 C24         4.6840    2.1610    9.6560 c3        1 PK2     -0.079400
     18 C23         3.9460    2.1230    8.3300 c3        1 PK2     -0.077400
     19 C9         -1.7900    0.3450    3.6570 ca        1 PK2      0.089400
     20 N11        -2.5650    0.4510    4.8250 nc        1 PK2     -0.520100
     21 C12        -3.8560    0.5330    4.3860 cd        1 PK2      0.463700
     22 N16        -5.0210    0.6350    5.2770 n4        1 PK2     -0.686000
     23 C17        -5.8940   -0.5710    5.2110 c3        1 PK2      0.078100
     24 N13        -3.9730    0.4980    2.9780 na        1 PK2     -0.225300
     25 C8         -2.6680    0.3780    2.4990 ca        1 PK2     -0.038200
     26 C7         -2.1640    0.2780    1.1960 ca        1 PK2     -0.011000
     27 C1         -0.7910    0.1280    1.0670 ca        1 PK2     -0.133600
     28 HN3         1.5310   -0.3430   -1.3420 hn        1 PK2      0.379500
     29 HN15        3.8030    0.2140   -0.0180 hn        1 PK2      0.496133
     30 HN1A        3.5230   -1.4440    0.1010 hn        1 PK2      0.496133
     31 H18        -0.0770   -0.5380    5.4890 hc        1 PK2      0.093200
     32 H18A        1.4250   -0.4430    4.4930 hc        1 PK2      0.093200
     33 H19        -0.2000    2.0330    5.4880 hx        1 PK2      0.109200
     34 H19A        1.3820    2.0720    4.5690 hx        1 PK2      0.109200
     35 HN20        0.9580    0.9040    7.2870 hn        1 PK2      0.454800
     36 H21         0.8500    3.3370    7.2430 hx        1 PK2      0.105200
     37 H21A        2.4610    3.3140    6.3620 hx        1 PK2      0.105200
     38 H22         1.9620    2.1210    9.2060 hc        1 PK2      0.073700
     39 H27         3.1920    4.8020    8.2570 hc        1 PK2      0.042700
     40 H27A        1.6190    4.5800    9.1350 hc        1 PK2      0.042700
     41 H26         2.7890    3.6410   11.1010 hc        1 PK2      0.066200
     42 H26A        3.4810    5.2540   10.6650 hc        1 PK2      0.066200
     43 H25         5.2490    3.5460   11.2170 hc        1 PK2      0.069700
     44 H25A        5.4060    4.2010    9.5400 hc        1 PK2      0.069700
     45 H24         4.1630    1.4950   10.3930 hc        1 PK2      0.066200
     46 H24A        5.7210    1.7560    9.5100 hc        1 PK2      0.066200
     47 H23         3.8760    1.0580    7.9870 hc        1 PK2      0.042700
     48 H23A        4.5330    2.6960    7.5640 hc        1 PK2      0.042700
     49 HN16       -4.6760    0.7530    6.2470 hn        1 PK2      0.491800
     50 H17        -6.3310   -0.6740    4.1820 hx        1 PK2      0.130033
     51 H17A       -5.2940   -1.4880    5.4640 hx        1 PK2      0.130033
     52 H17B       -6.7260   -0.4430    5.9620 hx        1 PK2      0.130033
     53 HN13       -4.8000    0.5420    2.4290 hn        1 PK2      0.358700
     54 H7         -2.8170    0.3090    0.3020 ha        1 PK2      0.215000
     55 H153        3.8590   -0.5470    1.4780 hn        1 PK2      0.496133
     56 H202        2.3930    0.9050    6.4580 hn        1 PK2      0.454800
     57 H162       -5.5620    1.4790    5.0230 hn        1 PK2      0.491800
@<TRIPOS>BOND
     1    1    2 2   
     2    1    3 1   
     3    1   27 1   
     4    3    4 1   
     5    3   28 1   
     6    4    5 1   
     7    4    6 2   
     8    5   29 1   
     9    5   30 1   
    10    5   55 1   
    11    6    7 1   
    12    7    8 ar  
    13    7   27 ar  
    14    8    9 1   
    15    8   19 ar  
    16    9   10 1   
    17    9   31 1   
    18    9   32 1   
    19   10   11 1   
    20   10   33 1   
    21   10   34 1   
    22   11   12 1   
    23   11   35 1   
    24   11   56 1   
    25   12   13 1   
    26   12   36 1   
    27   12   37 1   
    28   13   14 1   
    29   13   18 1   
    30   13   38 1   
    31   14   15 1   
    32   14   39 1   
    33   14   40 1   
    34   15   16 1   
    35   15   41 1   
    36   15   42 1   
    37   16   17 1   
    38   16   43 1   
    39   16   44 1   
    40   17   18 1   
    41   17   45 1   
    42   17   46 1   
    43   18   47 1   
    44   18   48 1   
    45   19   20 1   
    46   19   25 ar  
    47   20   21 2   
    48   21   22 1   
    49   21   24 1   
    50   22   23 1   
    51   22   49 1   
    52   22   57 1   
    53   23   50 1   
    54   23   51 1   
    55   23   52 1   
    56   24   25 1   
    57   24   53 1   
    58   25   26 ar  
    59   26   27 ar  
    60   26   54 1   
@<TRIPOS>SUBSTRUCTURE
     1 PK2         1 TEMP              0 ****  ****    0 ROOT
