@<TRIPOS>MOLECULE
PK2
   54    50     1     0     0
SMALL
bcc


@<TRIPOS>ATOM
      1 C2          0.4540   -1.3630   -5.8580 c1        1 PK2      0.356000
      2 O14        -0.1560   -1.3540   -6.8910 o         1 PK2     -0.357000
      3 N3          1.8270   -1.6040   -5.8610 n2        1 PK2     -0.344000
      4 C4          2.5450   -1.7030   -4.6110 c2        1 PK2      0.208000
      5 N15         3.9200   -1.8950   -4.6130 n3        1 PK2     -0.319000
      6 N5          1.8420   -1.5540   -3.3600 n1        1 PK2     -0.244000
      7 C6          0.3920   -1.3070   -3.3570 c1        1 PK2      0.064000
      8 C10        -0.3100   -1.2190   -2.1410 c2        1 PK2     -0.033000
      9 C18         0.4170   -1.4540   -0.7670 c3        1 PK2     -0.111000
     10 C19         0.8360   -0.0550   -0.1420 c3        1 PK2     -0.069000
     11 N20         1.0600   -0.2110    1.3110 n3        1 PK2     -0.302000
     12 C21         1.2580    1.0980    1.9190 c3        1 PK2     -0.069000
     13 C22         1.3610    0.9620    3.2470 c3        1 PK2     -0.106000
     14 C27         0.2910    1.8480    4.0300 c3        1 PK2     -0.152500
     15 C26         0.4160    1.7300    5.5690 c3        1 PK2     -0.152500
     16 C25         1.6410    1.2500    5.9340 c3        1 PK2     -0.154000
     17 C24         2.8280    1.5820    5.3420 c3        1 PK2     -0.152500
     18 C23         2.6870    1.7080    3.8290 c3        1 PK2     -0.152500
     19 C9         -1.7170   -1.0230   -2.1460 c1        1 PK2     -0.001000
     20 N11        -2.6210   -0.9040   -1.1410 n1        1 PK2     -0.196000
     21 C12        -3.8280   -0.7300   -1.6890 c1        1 PK2      0.131000
     22 N16        -4.9670   -0.5190   -0.7540 n2        1 PK2     -0.258000
     23 C17        -5.9740    0.3950   -1.0770 c3        1 PK2     -0.110000
     24 N13        -3.6850   -0.7400   -3.0330 n2        1 PK2     -0.239000
     25 C8         -2.3780   -0.9220   -3.3120 c1        1 PK2     -0.071000
     26 C7         -1.6690   -1.0110   -4.5460 c1        1 PK2     -0.051000
     27 C1         -0.2860   -1.2030   -4.5440 c1        1 PK2     -0.179000
     28 HN3         2.2730   -1.6810   -6.6490 hn        1 PK2      0.250000
     29 HN15        4.3600   -2.0190   -3.8320 hn        1 PK2      0.205500
     30 HN1A        4.3870   -1.9310   -5.4240 hn        1 PK2      0.205500
     31 H18        -0.1880   -1.9150   -0.1540 hc        1 PK2      0.106000
     32 H18A        1.2290   -2.0110   -0.9120 hc        1 PK2      0.106000
     33 H19         1.6470    0.2550   -0.5620 h1        1 PK2      0.074000
     34 H19A        0.1390    0.5810   -0.2880 h1        1 PK2      0.074000
     35 HN20        0.3360   -0.6130    1.6870 hn        1 PK2      0.150000
     36 H21         0.4910    1.6820    1.7050 h1        1 PK2      0.066500
     37 H21A        2.0680    1.4910    1.5750 h1        1 PK2      0.066500
     38 H22         1.3250    0.0130    3.5270 hc        1 PK2      0.102000
     39 H27        -0.6090    1.5610    3.7630 hc        1 PK2      0.078500
     40 H27A        0.4130    2.8150    3.7690 hc        1 PK2      0.078500
     41 H26        -0.2790    1.1270    5.9030 hc        1 PK2      0.076750
     42 H26A        0.2910    2.6130    5.9660 hc        1 PK2      0.076750
     43 H25         1.7470    1.4760    6.9150 hc        1 PK2      0.078000
     44 H25A        1.5730    0.2490    5.8740 hc        1 PK2      0.078000
     45 H24         3.1440    2.4530    5.7150 hc        1 PK2      0.076750
     46 H24A        3.5120    0.8690    5.5480 hc        1 PK2      0.076750
     47 H23         2.6430    2.6680    3.5910 hc        1 PK2      0.078500
     48 H23A        3.4660    1.3200    3.4130 hc        1 PK2      0.078500
     49 HN16       -5.0280   -1.0070   -0.0060 hn        1 PK2      0.221000
     50 H17        -6.5320    0.0280   -1.7610 h1        1 PK2      0.085333
     51 H17A       -6.5130    0.5830   -0.2860 h1        1 PK2      0.085333
     52 H17B       -5.5730    1.2100   -1.3930 h1        1 PK2      0.085333
     53 HN13       -4.3710   -0.6390   -3.6590 DU        1 PK2      0.245000
     54 H7         -2.1370   -0.9850   -5.3600 ha        1 PK2      0.162000
@<TRIPOS>BOND
     1    1    2 1   
     2    1   27 1   
     3    3    4 1   
     4    3   28 1   
     5    4    5 1   
     6    4    6 1   
     7    5   29 1   
     8    5   30 1   
     9    7    8 1   
    10    7   27 1   
    11    8    9 1   
    12    8   19 1   
    13    9   10 1   
    14    9   31 1   
    15    9   32 1   
    16   10   11 1   
    17   10   33 1   
    18   10   34 1   
    19   11   12 1   
    20   11   35 1   
    21   12   13 1   
    22   12   36 1   
    23   12   37 1   
    24   13   14 1   
    25   13   18 1   
    26   13   38 1   
    27   14   15 1   
    28   14   39 1   
    29   14   40 1   
    30   15   16 1   
    31   15   41 1   
    32   15   42 1   
    33   16   17 1   
    34   16   43 1   
    35   16   44 1   
    36   17   18 1   
    37   17   45 1   
    38   17   46 1   
    39   18   47 1   
    40   18   48 1   
    41   20   21 1   
    42   21   24 1   
    43   22   23 1   
    44   22   49 1   
    45   23   50 1   
    46   23   51 1   
    47   23   52 1   
    48   24   25 1   
    49   25   26 1   
    50   26   54 1   
@<TRIPOS>SUBSTRUCTURE
     1 PK2         1 TEMP              0 ****  ****    0 ROOT
