@<TRIPOS>MOLECULE
PK2
   56    59     1     0     0
SMALL
bcc


@<TRIPOS>ATOM
      1 C2         -0.9390   -0.3570   -0.3320 c         1 PK2      0.724100
      2 O14        -1.9880   -0.4290   -0.9770 o         1 PK2     -0.519500
      3 N3          0.2790   -0.4990   -1.0580 n         1 PK2     -0.504400
      4 C4          1.4800   -0.4130   -0.3550 cc        1 PK2      0.544800
      5 N15         2.7450   -0.5810   -1.1520 n4        1 PK2     -0.804600
      6 N5          1.6290   -0.1980    0.9390 nd        1 PK2     -0.582100
      7 C6          0.4740   -0.0580    1.7280 ca        1 PK2      0.169400
      8 C10         0.6050    0.1460    3.1250 ca        1 PK2     -0.054300
      9 C18         1.9180    0.1660    3.8250 c3        1 PK2     -0.042100
     10 C19         2.2130    1.4950    4.5220 c3        1 PK2      0.115800
     11 N20         1.8250    1.5190    5.9610 n4        1 PK2     -0.775000
     12 C21         2.1990    2.8060    6.6170 c3        1 PK2      0.102800
     13 C22         1.8480    2.8400    8.1080 c3        1 PK2     -0.086700
     14 C27         2.0650    4.2670    8.6040 c3        1 PK2     -0.078900
     15 C26         1.7660    4.3710   10.0860 c3        1 PK2     -0.077900
     16 C25         2.5960    3.3900   10.8870 c3        1 PK2     -0.085400
     17 C24         2.4040    1.9740   10.3890 c3        1 PK2     -0.077900
     18 C23         2.6990    1.8620    8.9050 c3        1 PK2     -0.078900
     19 C9         -0.5790    0.2630    3.8710 ca        1 PK2      0.145400
     20 N11        -0.7490    0.4590    5.2450 nc        1 PK2     -0.755100
     21 C12        -2.1240    0.4690    5.4520 cd        1 PK2      0.718700
     22 N16        -2.7410    0.6940    6.6630 nh        1 PK2     -0.795200
     23 C17        -4.1590    0.5310    6.8230 c3        1 PK2      0.169100
     24 N13        -2.8390    0.2770    4.2370 na        1 PK2     -0.284300
     25 C8         -1.8810    0.1610    3.2240 ca        1 PK2     -0.058200
     26 C7         -2.0020   -0.0340    1.8550 ca        1 PK2     -0.024000
     27 C1         -0.8180   -0.1390    1.1210 ca        1 PK2     -0.168600
     28 HN3         0.2300   -0.6640   -2.0410 hn        1 PK2      0.362500
     29 HN15        2.7530   -1.5120   -1.5890 hn        1 PK2      0.486133
     30 HN1A        3.5650   -0.4940   -0.5320 hn        1 PK2      0.486133
     31 H18         1.9390   -0.6920    4.5560 hc        1 PK2      0.090200
     32 H18A        2.7660   -0.0130    3.1100 hc        1 PK2      0.090200
     33 H19         1.6680    2.3360    4.0060 hx        1 PK2      0.101700
     34 H19A        3.3210    1.7020    4.4700 hx        1 PK2      0.101700
     35 HN20        2.2870    0.7450    6.4520 hn        1 PK2      0.468300
     36 H21         3.3080    2.9580    6.4860 hx        1 PK2      0.100200
     37 H21A        1.6530    3.6340    6.0800 hx        1 PK2      0.100200
     38 H22         0.7610    2.5800    8.2480 hc        1 PK2      0.064700
     39 H27         3.1280    4.5720    8.4150 hc        1 PK2      0.045700
     40 H27A        1.3990    4.9690    8.0370 hc        1 PK2      0.045700
     41 H26         1.9820    5.4170   10.4300 hc        1 PK2      0.058450
     42 H26A        0.6750    4.1770   10.2640 hc        1 PK2      0.058450
     43 H25         3.6800    3.6700   10.8190 hc        1 PK2      0.063200
     44 H25A        2.3030    3.4480   11.9690 hc        1 PK2      0.063200
     45 H24         3.0840    1.2810   10.9510 hc        1 PK2      0.058450
     46 H24A        1.3490    1.6450   10.5860 hc        1 PK2      0.058450
     47 H23         2.4980    0.8090    8.5760 hc        1 PK2      0.045700
     48 H23A        3.7850    2.0770    8.7260 hc        1 PK2      0.045700
     49 HN16       -2.1720    0.5810    7.4760 hn        1 PK2      0.463800
     50 H17        -4.4940   -0.5150    6.5820 h1        1 PK2      0.071700
     51 H17A       -4.4190    0.7570    7.8930 h1        1 PK2      0.071700
     52 H17B       -4.7060    1.2570    6.1620 h1        1 PK2      0.071700
     53 HN13       -3.8210    0.2900    4.1190 hn        1 PK2      0.341700
     54 H7         -2.9800   -0.1120    1.3470 ha        1 PK2      0.195000
     55 H153        2.7940    0.1450   -1.8790 hn        1 PK2      0.486133
     56 H202        0.7970    1.3680    6.0420 hn        1 PK2      0.468300
@<TRIPOS>BOND
     1    1    2 2   
     2    1    3 1   
     3    1   27 1   
     4    3    4 1   
     5    3   28 1   
     6    4    5 1   
     7    4    6 2   
     8    5   29 1   
     9    5   30 1   
    10    5   55 1   
    11    6    7 1   
    12    7    8 ar  
    13    7   27 ar  
    14    8    9 1   
    15    8   19 ar  
    16    9   10 1   
    17    9   31 1   
    18    9   32 1   
    19   10   11 1   
    20   10   33 1   
    21   10   34 1   
    22   11   12 1   
    23   11   35 1   
    24   11   56 1   
    25   12   13 1   
    26   12   36 1   
    27   12   37 1   
    28   13   14 1   
    29   13   18 1   
    30   13   38 1   
    31   14   15 1   
    32   14   39 1   
    33   14   40 1   
    34   15   16 1   
    35   15   41 1   
    36   15   42 1   
    37   16   17 1   
    38   16   43 1   
    39   16   44 1   
    40   17   18 1   
    41   17   45 1   
    42   17   46 1   
    43   18   47 1   
    44   18   48 1   
    45   19   20 1   
    46   19   25 ar  
    47   20   21 2   
    48   21   22 1   
    49   21   24 1   
    50   22   23 1   
    51   22   49 1   
    52   23   50 1   
    53   23   51 1   
    54   23   52 1   
    55   24   25 1   
    56   24   53 1   
    57   25   26 ar  
    58   26   27 ar  
    59   26   54 1   
@<TRIPOS>SUBSTRUCTURE
     1 PK2         1 TEMP              0 ****  ****    0 ROOT
