@<TRIPOS>MOLECULE
PK3
   34    36     1     0     0
SMALL
bcc


@<TRIPOS>ATOM
      1 N6         -2.6190    0.3330   -0.0810 na        1 PK3     -0.293300
      2 C11        -3.3130   -0.8950    0.1720 cc        1 PK3      0.588700
      3 N5         -4.7170   -0.9290    0.3510 nh        1 PK3     -0.763200
      4 C12        -5.5070   -0.1980   -0.6060 c3        1 PK3      0.158100
      5 N4         -2.4660   -1.9580    0.2800 nd        1 PK3     -0.597100
      6 C6         -1.1720   -1.4130    0.1590 ca        1 PK3      0.058400
      7 C7         -1.2550    0.0250   -0.0500 ca        1 PK3     -0.025200
      8 C8         -0.1290    0.8360   -0.2120 ca        1 PK3     -0.094300
      9 C9         -0.2690    2.2970   -0.4390 c3        1 PK3     -0.023100
     10 C3          1.1350    0.1930   -0.1500 ca        1 PK3      0.219400
     11 N2          2.2900    0.9650   -0.2930 nc        1 PK3     -0.686100
     12 C4          3.4840    0.3660   -0.2170 cd        1 PK3      0.663800
     13 N3          4.6630    1.1570   -0.2340 nh        1 PK3     -0.884800
     14 N1          3.6510   -1.0270   -0.0590 n         1 PK3     -0.508400
     15 C1          2.5320   -1.8620    0.1060 c         1 PK3      0.721100
     16 O1          2.7360   -3.0780    0.2770 o         1 PK3     -0.622500
     17 C2          1.2080   -1.2210    0.0510 ca        1 PK3     -0.216600
     18 C5          0.0760   -2.0250    0.2040 ca        1 PK3     -0.002000
     19 C10        -0.1340    3.0710    0.8670 c3        1 PK3      0.131400
     20 O2         -0.6100    4.3860    0.6130 oh        1 PK3     -0.610800
     21 HN6        -3.0030    1.2380   -0.0000 hn        1 PK3      0.310700
     22 HN5        -5.0370   -1.8730    0.4760 hn        1 PK3      0.417800
     23 H12        -6.5890   -0.3780   -0.3670 h1        1 PK3      0.044700
     24 H12A       -5.3010    0.9000   -0.5070 h1        1 PK3      0.044700
     25 H12B       -5.3180   -0.5020   -1.6710 h1        1 PK3      0.044700
     26 H9          0.5070    2.6640   -1.1630 hc        1 PK3      0.063200
     27 H9A        -1.2650    2.5350   -0.8990 hc        1 PK3      0.063200
     28 HN3         4.4980    2.1200   -0.4410 hn        1 PK3      0.411800
     29 HN3A        5.4140    0.7660   -0.7610 hn        1 PK3      0.411800
     30 HN1         4.5570   -1.4260    0.0440 hn        1 PK3      0.335500
     31 H5          0.1840   -3.1120    0.3560 ha        1 PK3      0.174000
     32 H10        -0.7570    2.6030    1.6750 h1        1 PK3      0.030700
     33 H10A        0.9370    3.0960    1.1980 h1        1 PK3      0.030700
     34 HO2        -0.3580    4.9210    1.3740 ho        1 PK3      0.400000
@<TRIPOS>BOND
     1    1    2 1   
     2    1    7 1   
     3    1   21 1   
     4    2    3 1   
     5    2    5 2   
     6    3    4 1   
     7    3   22 1   
     8    4   23 1   
     9    4   24 1   
    10    4   25 1   
    11    5    6 1   
    12    6    7 ar  
    13    6   18 ar  
    14    7    8 ar  
    15    8    9 1   
    16    8   10 ar  
    17    9   19 1   
    18    9   26 1   
    19    9   27 1   
    20   10   11 1   
    21   10   17 ar  
    22   11   12 2   
    23   12   13 1   
    24   12   14 1   
    25   13   28 1   
    26   13   29 1   
    27   14   15 1   
    28   14   30 1   
    29   15   16 2   
    30   15   17 1   
    31   17   18 ar  
    32   18   31 1   
    33   19   20 1   
    34   19   32 1   
    35   19   33 1   
    36   20   34 1   
@<TRIPOS>SUBSTRUCTURE
     1 PK3         1 TEMP              0 ****  ****    0 ROOT
