@<TRIPOS>MOLECULE
PK3
   35    37     1     0     0
SMALL
bcc


@<TRIPOS>ATOM
      1 N6          0.1110    0.0190   -0.0930 na        1 PK3     -0.295300
      2 C11         1.5320    0.1750   -0.0320 cc        1 PK3      0.664700
      3 N5          2.3220    0.3260   -1.1640 nu        1 PK3     -0.790200
      4 C12         1.8510   -0.1220   -2.4420 c3        1 PK3      0.174100
      5 N4          1.9930    0.2220    1.2680 nd        1 PK3     -0.606100
      6 C6          0.8500    0.1460    2.0630 ca        1 PK3      0.142400
      7 C7         -0.3460    0.0370    1.2300 ca        1 PK3     -0.071200
      8 C8         -1.6320   -0.0560    1.7650 ca        1 PK3     -0.000300
      9 C9         -2.8460   -0.1520    0.9110 c3        1 PK3     -0.071100
     10 C3         -1.7240   -0.0340    3.1810 ca        1 PK3      0.107400
     11 N2         -2.9900   -0.1190    3.7650 nc        1 PK3     -0.522100
     12 C4         -3.0730   -0.1520    5.0790 cd        1 PK3      0.483800
     13 N3         -4.4600   -0.2930    5.6340 nz        1 PK3     -0.794600
     14 N1         -2.0110   -0.0710    5.9880 ns        1 PK3     -0.512400
     15 C1         -0.6930    0.0510    5.4690 c         1 PK3      0.726100
     16 O1          0.2220    0.1340    6.2940 o         1 PK3     -0.549500
     17 C2         -0.5510    0.0590    3.9990 ca        1 PK3     -0.153600
     18 C5          0.7250    0.1520    3.4580 ca        1 PK3     -0.028000
     19 C10        -3.6130   -1.4620    1.1050 c3        1 PK3      0.138400
     20 O2         -4.8720   -1.2450    1.7140 oh        1 PK3     -0.612800
     21 HN6        -0.4480    0.1140   -0.9010 hn        1 PK3      0.316700
     22 HN5         3.3060    0.2440   -0.9960 hn        1 PK3      0.461800
     23 H12         1.5560   -1.2060   -2.4400 h1        1 PK3      0.055700
     24 H12A        2.6750    0.0270   -3.1910 h1        1 PK3      0.055700
     25 H12B        0.9680    0.4940   -2.7600 h1        1 PK3      0.055700
     26 H9         -2.5710   -0.0530   -0.1720 hc        1 PK3      0.063700
     27 H9A        -3.5270    0.7110    1.1510 hc        1 PK3      0.063700
     28 HN3        -5.1240   -0.4200    4.8520 hn        1 PK3      0.478467
     29 HN3A       -4.5020   -1.1140    6.2470 hn        1 PK3      0.478467
     30 HN1        -2.1400   -0.0940    6.9750 hn        1 PK3      0.346500
     31 H5          1.6130    0.2260    4.1100 ha        1 PK3      0.193000
     32 H10        -3.0760   -2.1560    1.8050 h1        1 PK3      0.057700
     33 H10A       -3.7460   -1.9760    0.1150 h1        1 PK3      0.057700
     34 HO2        -5.4360   -0.8130    1.0600 ho        1 PK3      0.406000
     35 H33        -4.7070    0.5510    6.1580 hn        1 PK3      0.478467
@<TRIPOS>BOND
     1    1    2 1   
     2    1    7 1   
     3    1   21 1   
     4    2    3 1   
     5    2    5 2   
     6    3    4 1   
     7    3   22 1   
     8    4   23 1   
     9    4   24 1   
    10    4   25 1   
    11    5    6 1   
    12    6    7 ar  
    13    6   18 ar  
    14    7    8 ar  
    15    8    9 1   
    16    8   10 ar  
    17    9   19 1   
    18    9   26 1   
    19    9   27 1   
    20   10   11 1   
    21   10   17 ar  
    22   11   12 2   
    23   12   13 1   
    24   12   14 1   
    25   13   28 1   
    26   13   29 1   
    27   13   35 1   
    28   14   15 1   
    29   14   30 1   
    30   15   16 2   
    31   15   17 1   
    32   17   18 ar  
    33   18   31 1   
    34   19   20 1   
    35   19   32 1   
    36   19   33 1   
    37   20   34 1   
@<TRIPOS>SUBSTRUCTURE
     1 PK3         1 TEMP              0 ****  ****    0 ROOT
