@<TRIPOS>MOLECULE
PK3
   35    37     1     0     0
SMALL
bcc


@<TRIPOS>ATOM
      1 N6          0.1190    0.0130   -0.0870 na        1 PK3     -0.295300
      2 C11         1.5430    0.1360   -0.0230 cc        1 PK3      0.664700
      3 N5          2.3380    0.2860   -1.1520 nh        1 PK3     -0.790200
      4 C12         1.8590   -0.1320   -2.4370 c3        1 PK3      0.174100
      5 N4          2.0030    0.1510    1.2790 nd        1 PK3     -0.605100
      6 C6          0.8570    0.0890    2.0710 ca        1 PK3      0.142400
      7 C7         -0.3400    0.0200    1.2350 ca        1 PK3     -0.071200
      8 C8         -1.6280   -0.0510    1.7680 ca        1 PK3     -0.000300
      9 C9         -2.8420   -0.1070    0.9110 c3        1 PK3     -0.071100
     10 C3         -1.7210   -0.0500    3.1840 ca        1 PK3      0.107400
     11 N2         -2.9900   -0.1150    3.7650 nc        1 PK3     -0.522100
     12 C4         -3.0750   -0.1670    5.0780 cd        1 PK3      0.483800
     13 N3         -4.4650   -0.2860    5.6290 n4        1 PK3     -0.794600
     14 N1         -2.0130   -0.1250    5.9900 n         1 PK3     -0.512400
     15 C1         -0.6910   -0.0250    5.4730 c         1 PK3      0.726100
     16 O1          0.2250    0.0250    6.3010 o         1 PK3     -0.549500
     17 C2         -0.5480    0.0040    4.0040 ca        1 PK3     -0.153600
     18 C5          0.7310    0.0760    3.4660 ca        1 PK3     -0.028000
     19 C10        -3.6390   -1.4010    1.0830 c3        1 PK3      0.138400
     20 O2         -4.8940   -1.1650    1.6940 oh        1 PK3     -0.612800
     21 HN6        -0.4360    0.1330   -0.8940 hn        1 PK3      0.316700
     22 HN5         3.3190    0.1800   -0.9840 hn        1 PK3      0.461800
     23 H12         1.5400   -1.2100   -2.4510 h1        1 PK3      0.055700
     24 H12A        2.6870    0.0110   -3.1830 h1        1 PK3      0.055700
     25 H12B        0.9890    0.5080   -2.7470 h1        1 PK3      0.055700
     26 H9         -2.5640    0.0030   -0.1700 hc        1 PK3      0.063700
     27 H9A        -3.5040    0.7680    1.1640 hc        1 PK3      0.063700
     28 HN3        -4.5270   -1.1150    6.2290 hn        1 PK3      0.478467
     29 HN3A       -4.6940    0.5560    6.1670 hn        1 PK3      0.478467
     30 HN1        -2.1430   -0.1610    6.9760 hn        1 PK3      0.346500
     31 H5          1.6200    0.1200    4.1190 ha        1 PK3      0.193000
     32 H10        -3.7840   -1.8960    0.0850 h1        1 PK3      0.057700
     33 H10A       -3.1200   -2.1180    1.7730 h1        1 PK3      0.057700
     34 HO2        -5.4470   -0.7100    1.0470 ho        1 PK3      0.406000
     35 H33        -5.1310   -0.3850    4.8450 hn        1 PK3      0.478467
@<TRIPOS>BOND
     1    1    2 1   
     2    1    7 1   
     3    1   21 1   
     4    2    3 1   
     5    2    5 2   
     6    3    4 1   
     7    3   22 1   
     8    4   23 1   
     9    4   24 1   
    10    4   25 1   
    11    5    6 1   
    12    6    7 ar  
    13    6   18 ar  
    14    7    8 ar  
    15    8    9 1   
    16    8   10 ar  
    17    9   19 1   
    18    9   26 1   
    19    9   27 1   
    20   10   11 1   
    21   10   17 ar  
    22   11   12 2   
    23   12   13 1   
    24   12   14 1   
    25   13   28 1   
    26   13   29 1   
    27   13   35 1   
    28   14   15 1   
    29   14   30 1   
    30   15   16 2   
    31   15   17 1   
    32   17   18 ar  
    33   18   31 1   
    34   19   20 1   
    35   19   32 1   
    36   19   33 1   
    37   20   34 1   
@<TRIPOS>SUBSTRUCTURE
     1 PK3         1 TEMP              0 ****  ****    0 ROOT
