@<TRIPOS>MOLECULE
PK3
   36    38     1     0     0
SMALL
bcc


@<TRIPOS>ATOM
      1 N6         -0.3920   -0.4490   -0.0380 na        1 PK3     -0.233300
      2 C11         1.0200   -0.3710   -0.1500 cc        1 PK3      0.418700
      3 N5          1.7310   -0.5060   -1.4280 n4        1 PK3     -0.678000
      4 C12         1.7550    0.7760   -2.1840 c3        1 PK3      0.082100
      5 N4          1.6490   -0.1190    1.0330 nd        1 PK3     -0.459100
      6 C6          0.6140   -0.0650    1.9750 ca        1 PK3      0.062400
      7 C7         -0.6650   -0.2850    1.3200 ca        1 PK3     -0.018200
      8 C8         -1.8930   -0.2980    2.0180 ca        1 PK3     -0.008300
      9 C9         -3.1640   -0.5060    1.2760 c3        1 PK3     -0.089100
     10 C3         -1.8120   -0.0790    3.4080 ca        1 PK3      0.183400
     11 N2         -2.9940   -0.0790    4.1710 nc        1 PK3     -0.577100
     12 C4         -2.9030    0.1310    5.4710 cd        1 PK3      0.561800
     13 N3         -4.2000    0.1210    6.2330 n4        1 PK3     -0.805600
     14 N1         -1.7400    0.3580    6.2030 n         1 PK3     -0.506400
     15 C1         -0.4950    0.3730    5.5110 c         1 PK3      0.723100
     16 O1          0.5200    0.5760    6.1780 o         1 PK3     -0.506500
     17 C2         -0.5430    0.1430    4.0510 ca        1 PK3     -0.179600
     18 C5          0.6600    0.1530    3.3610 ca        1 PK3      0.042000
     19 C10        -3.2120   -1.8430    0.5320 c3        1 PK3      0.124400
     20 O2         -2.8570   -1.6720   -0.8290 oh        1 PK3     -0.642800
     21 HN6        -1.0510   -0.7260   -0.7350 hn        1 PK3      0.364700
     22 HN5         2.7030   -0.7990   -1.2190 hn        1 PK3      0.486300
     23 H12         2.3300    0.6130   -3.1370 hx        1 PK3      0.122367
     24 H12A        2.2610    1.5660   -1.5630 hx        1 PK3      0.122367
     25 H12B        0.7050    1.0970   -2.4200 hx        1 PK3      0.122367
     26 H9         -4.0500   -0.4550    1.9610 hc        1 PK3      0.085200
     27 H9A        -3.2820    0.3330    0.5330 hc        1 PK3      0.085200
     28 HN3        -4.3390    1.0340    6.6870 hn        1 PK3      0.489800
     29 HN3A       -4.9860   -0.0560    5.5870 hn        1 PK3      0.489800
     30 HN1        -1.7340    0.5130    7.1910 hn        1 PK3      0.366500
     31 H5          1.6200    0.3270    3.8850 ha        1 PK3      0.211000
     32 H10        -4.2370   -2.2920    0.6200 h1        1 PK3      0.072700
     33 H10A       -2.4590   -2.5690    0.9400 h1        1 PK3      0.072700
     34 HO2        -3.6530   -1.4270   -1.3190 ho        1 PK3      0.436000
     35 H52         1.2830   -1.2440   -1.9900 hn        1 PK3      0.486300
     36 H33        -4.1770   -0.6230    6.9430 hn        1 PK3      0.489800
@<TRIPOS>BOND
     1    1    2 1   
     2    1    7 1   
     3    1   21 1   
     4    2    3 1   
     5    2    5 2   
     6    3    4 1   
     7    3   22 1   
     8    3   35 1   
     9    4   23 1   
    10    4   24 1   
    11    4   25 1   
    12    5    6 1   
    13    6    7 ar  
    14    6   18 ar  
    15    7    8 ar  
    16    8    9 1   
    17    8   10 ar  
    18    9   19 1   
    19    9   26 1   
    20    9   27 1   
    21   10   11 1   
    22   10   17 ar  
    23   11   12 2   
    24   12   13 1   
    25   12   14 1   
    26   13   28 1   
    27   13   29 1   
    28   13   36 1   
    29   14   15 1   
    30   14   30 1   
    31   15   16 2   
    32   15   17 1   
    33   17   18 ar  
    34   18   31 1   
    35   19   20 1   
    36   19   32 1   
    37   19   33 1   
    38   20   34 1   
@<TRIPOS>SUBSTRUCTURE
     1 PK3         1 TEMP              0 ****  ****    0 ROOT
