@<TRIPOS>MOLECULE
PK9
   52    52     1     0     0
SMALL
bcc


@<TRIPOS>ATOM
      1 O15         0.3510   -2.0370    0.1170 o         1 PK9     -0.395100
      2 C14         1.3320   -1.3220   -0.0100 c         1 PK9      0.538100
      3 N16         2.0970   -1.0290    1.2580 ny        1 PK9     -0.689800
      4 C17         1.5450    0.1850    1.9690 c3        1 PK9      0.195100
      5 C18         2.3150    0.4710    3.2010 ca        1 PK9     -0.333600
      6 C23         3.4980    1.2420    3.1420 ca        1 PK9      0.432200
      7 N22         4.2180    1.5710    4.2270 nb        1 PK9     -0.636000
      8 C21         3.7730    1.1490    5.4270 ca        1 PK9      0.461200
      9 C20         2.5990    0.3820    5.5900 ca        1 PK9     -0.228300
     10 C19         1.8630    0.0400    4.4590 ca        1 PK9     -0.050000
     11 C13         1.8710   -0.7070   -1.2710 c3        1 PK9     -0.150400
     12 C12         1.0040   -1.0970   -2.4560 c3        1 PK9     -0.083400
     13 C11         1.5560   -0.5160   -3.7430 c3        1 PK9     -0.077400
     14 C10         0.6960   -0.9370   -4.9220 c3        1 PK9     -0.107400
     15 C09         1.2810   -0.3580   -6.2050 c3        1 PK9      0.106800
     16 N08         0.5160   -0.7590   -7.4230 ny        1 PK9     -0.654800
     17 C06         1.2380   -0.3430   -8.6920 c         1 PK9      0.638100
     18 O07         2.4500   -0.4730   -8.7810 o         1 PK9     -0.427000
     19 O05         0.3520    0.1280   -9.5620 os        1 PK9     -0.423900
     20 C02         0.8140    0.5460  -10.9390 c3        1 PK9      0.209800
     21 C04         1.4140   -0.6550  -11.6320 c3        1 PK9     -0.133433
     22 C03        -0.5050    0.9750  -11.5580 c3        1 PK9     -0.133433
     23 C01         1.7840    1.6940  -10.7930 c3        1 PK9     -0.133433
     24 H16         3.0880   -0.8740    1.0500 hn        1 PK9      0.463300
     25 H131        1.8920    0.4120   -1.1580 hc        1 PK9      0.103200
     26 H132        2.9270   -1.0600   -1.4360 hc        1 PK9      0.103200
     27 H171        1.6040    1.0500    1.2460 hx        1 PK9      0.108700
     28 H172        0.4620   -0.0310    2.2030 hx        1 PK9      0.108700
     29 H23         3.8820    1.6290    2.1810 h4        1 PK9      0.022100
     30 H19         0.9340   -0.5450    4.5550 ha        1 PK9      0.153000
     31 H21         4.3890    1.4450    6.3010 h4        1 PK9      0.063100
     32 H20         2.2750    0.0710    6.5960 ha        1 PK9      0.181000
     33 H121       -0.0460   -0.7330   -2.2890 hc        1 PK9      0.078200
     34 H122        0.9560   -2.2170   -2.5310 hc        1 PK9      0.078200
     35 H111        1.5820    0.6040   -3.6740 hc        1 PK9      0.064200
     36 H112        2.6100   -0.8700   -3.8980 hc        1 PK9      0.064200
     37 H101       -0.3540   -0.5710   -4.7690 hc        1 PK9      0.073700
     38 H102        0.6630   -2.0580   -4.9770 hc        1 PK9      0.073700
     39 H091        2.3470   -0.7100   -6.3420 hx        1 PK9      0.119700
     40 H092        1.2830    0.7690   -6.1610 hx        1 PK9      0.119700
     41 H08        -0.4210   -0.3360   -7.4140 hn        1 PK9      0.468800
     42 H041        2.3660   -0.9690  -11.1380 hc        1 PK9      0.076922
     43 H042        0.6980   -1.5110  -11.6340 hc        1 PK9      0.076922
     44 H043        1.6430   -0.3820  -12.6930 hc        1 PK9      0.076922
     45 H031       -0.9590    1.8160  -10.9820 hc        1 PK9      0.076922
     46 H032       -1.2260    0.1220  -11.5860 hc        1 PK9      0.076922
     47 H033       -0.3050    1.3160  -12.6040 hc        1 PK9      0.076922
     48 H011        2.7330    1.3590  -10.3080 hc        1 PK9      0.076922
     49 H012        2.0300    2.0900  -11.8110 hc        1 PK9      0.076922
     50 H013        1.3340    2.5210  -10.1930 hc        1 PK9      0.076922
     51 H162        2.0240   -1.8350    1.8960 hn        1 PK9      0.463300
     52 H082        0.4100   -1.7800   -7.4450 hn        1 PK9      0.468800
@<TRIPOS>BOND
     1    1    2 2   
     2    2    3 1   
     3    2   11 1   
     4    3    4 1   
     5    3   24 1   
     6    3   51 1   
     7    4    5 1   
     8    4   27 1   
     9    4   28 1   
    10    5    6 ar  
    11    5   10 ar  
    12    6    7 ar  
    13    6   29 1   
    14    7    8 ar  
    15    8    9 ar  
    16    8   31 1   
    17    9   10 ar  
    18    9   32 1   
    19   10   30 1   
    20   11   12 1   
    21   11   25 1   
    22   11   26 1   
    23   12   13 1   
    24   12   33 1   
    25   12   34 1   
    26   13   14 1   
    27   13   35 1   
    28   13   36 1   
    29   14   15 1   
    30   14   37 1   
    31   14   38 1   
    32   15   16 1   
    33   15   39 1   
    34   15   40 1   
    35   16   17 1   
    36   16   41 1   
    37   16   52 1   
    38   17   18 2   
    39   17   19 1   
    40   19   20 1   
    41   20   21 1   
    42   20   22 1   
    43   20   23 1   
    44   21   42 1   
    45   21   43 1   
    46   21   44 1   
    47   22   45 1   
    48   22   46 1   
    49   22   47 1   
    50   23   48 1   
    51   23   49 1   
    52   23   50 1   
@<TRIPOS>SUBSTRUCTURE
     1 PK9         1 TEMP              0 ****  ****    0 ROOT
