@<TRIPOS>MOLECULE
PK9
   52    52     1     0     0
SMALL
bcc


@<TRIPOS>ATOM
      1 O15         0.3180   -1.9980    0.1260 o         1 PK9     -0.395100
      2 C14         1.3140   -1.3040   -0.0060 c         1 PK9      0.538100
      3 N16         2.0870   -1.0220    1.2600 n4        1 PK9     -0.689800
      4 C17         1.5630    0.2060    1.9670 c3        1 PK9      0.195100
      5 C18         2.3410    0.4800    3.1970 ca        1 PK9     -0.333600
      6 C23         3.5400    1.2250    3.1330 ca        1 PK9      0.432200
      7 N22         4.2700    1.5430    4.2140 nb        1 PK9     -0.636000
      8 C21         3.8180    1.1350    5.4170 ca        1 PK9      0.461200
      9 C20         2.6280    0.3950    5.5860 ca        1 PK9     -0.228300
     10 C19         1.8820    0.0640    4.4570 ca        1 PK9     -0.050000
     11 C13         1.8630   -0.7050   -1.2700 c3        1 PK9     -0.150400
     12 C12         0.9850   -1.0810   -2.4520 c3        1 PK9     -0.083400
     13 C11         1.5470   -0.5170   -3.7410 c3        1 PK9     -0.077400
     14 C10         0.6760   -0.9230   -4.9170 c3        1 PK9     -0.107400
     15 C09         1.2710   -0.3620   -6.2040 c3        1 PK9      0.106800
     16 N08         0.4940   -0.7500   -7.4180 n4        1 PK9     -0.654800
     17 C06         1.2230   -0.3550   -8.6910 c         1 PK9      0.638100
     18 O07         2.4310   -0.5110   -8.7820 o         1 PK9     -0.427000
     19 O05         0.3450    0.1310   -9.5610 os        1 PK9     -0.423900
     20 C02         0.8130    0.5340  -10.9410 c3        1 PK9      0.209800
     21 C04         1.3870   -0.6820  -11.6300 c3        1 PK9     -0.133433
     22 C03        -0.4980    0.9870  -11.5590 c3        1 PK9     -0.133433
     23 C01         1.8080    1.6620  -10.8020 c3        1 PK9     -0.133433
     24 H16         3.0810   -0.8900    1.0500 hn        1 PK9      0.463300
     25 H131        1.9090    0.4140   -1.1610 hc        1 PK9      0.103200
     26 H132        2.9100   -1.0810   -1.4350 hc        1 PK9      0.103200
     27 H171        0.4750    0.0140    2.2050 hx        1 PK9      0.108700
     28 H172        1.6380    1.0660    1.2410 hx        1 PK9      0.108700
     29 H23         3.9310    1.6000    2.1690 h4        1 PK9      0.022100
     30 H19         0.9420   -0.5010    4.5570 ha        1 PK9      0.153000
     31 H21         4.4410    1.4220    6.2880 h4        1 PK9      0.063100
     32 H20         2.2990    0.0950    6.5930 ha        1 PK9      0.181000
     33 H121       -0.0560   -0.6930   -2.2840 hc        1 PK9      0.078200
     34 H122        0.9130   -2.2000   -2.5220 hc        1 PK9      0.078200
     35 H111        1.5980    0.6030   -3.6760 hc        1 PK9      0.064200
     36 H112        2.5920   -0.8950   -3.8970 hc        1 PK9      0.064200
     37 H101        0.6180   -2.0430   -4.9680 hc        1 PK9      0.073700
     38 H102       -0.3660   -0.5330   -4.7640 hc        1 PK9      0.073700
     39 H091        2.3290   -0.7380   -6.3410 hx        1 PK9      0.119700
     40 H092        1.2980    0.7650   -6.1640 hx        1 PK9      0.119700
     41 H08        -0.4330   -0.3070   -7.4100 hn        1 PK9      0.468800
     42 H041        0.6520   -1.5240  -11.6270 hc        1 PK9      0.076922
     43 H042        1.6190   -0.4200  -12.6930 hc        1 PK9      0.076922
     44 H043        2.3320   -1.0150  -11.1360 hc        1 PK9      0.076922
     45 H031       -0.9330    1.8410  -10.9850 hc        1 PK9      0.076922
     46 H032       -0.2930    1.3200  -12.6070 hc        1 PK9      0.076922
     47 H033       -1.2360    0.1500  -11.5820 hc        1 PK9      0.076922
     48 H011        2.0600    2.0480  -11.8210 hc        1 PK9      0.076922
     49 H012        2.7510    1.3080  -10.3160 hc        1 PK9      0.076922
     50 H013        1.3760    2.5000  -10.2030 hc        1 PK9      0.076922
     51 H162        1.9980   -1.8240    1.9010 hn        1 PK9      0.463300
     52 H082        0.3650   -1.7690   -7.4370 hn        1 PK9      0.468800
@<TRIPOS>BOND
     1    1    2 2   
     2    2    3 1   
     3    2   11 1   
     4    3    4 1   
     5    3   24 1   
     6    3   51 1   
     7    4    5 1   
     8    4   27 1   
     9    4   28 1   
    10    5    6 ar  
    11    5   10 ar  
    12    6    7 ar  
    13    6   29 1   
    14    7    8 ar  
    15    8    9 ar  
    16    8   31 1   
    17    9   10 ar  
    18    9   32 1   
    19   10   30 1   
    20   11   12 1   
    21   11   25 1   
    22   11   26 1   
    23   12   13 1   
    24   12   33 1   
    25   12   34 1   
    26   13   14 1   
    27   13   35 1   
    28   13   36 1   
    29   14   15 1   
    30   14   37 1   
    31   14   38 1   
    32   15   16 1   
    33   15   39 1   
    34   15   40 1   
    35   16   17 1   
    36   16   41 1   
    37   16   52 1   
    38   17   18 2   
    39   17   19 1   
    40   19   20 1   
    41   20   21 1   
    42   20   22 1   
    43   20   23 1   
    44   21   42 1   
    45   21   43 1   
    46   21   44 1   
    47   22   45 1   
    48   22   46 1   
    49   22   47 1   
    50   23   48 1   
    51   23   49 1   
    52   23   50 1   
@<TRIPOS>SUBSTRUCTURE
     1 PK9         1 TEMP              0 ****  ****    0 ROOT
