@<TRIPOS>MOLECULE
PKA
   47    49     1     0     0
SMALL
bcc


@<TRIPOS>ATOM
      1 C1          0.3790    1.0070   -0.5790 c3        1 PKA     -0.121100
      2 C2          1.6060    0.2390   -0.1650 c3        1 PKA     -0.109400
      3 C3          1.7320    0.0670    1.3530 c3        1 PKA      0.136500
      4 C4          2.8440   -0.9240    1.6690 c3        1 PKA     -0.125100
      5 N5          1.9060    1.4050    2.0470 n4        1 PKA     -0.580200
      6 C6          3.3120    1.8760    2.0490 c3        1 PKA      0.091100
      7 C7          1.3860    1.3780    3.4720 c         1 PKA      0.471600
      8 O8          1.5420    0.3420    4.1090 o         1 PKA     -0.447100
      9 C9          0.7340    2.6070    3.9730 ca        1 PKA      0.269800
     10 N18         0.7400    3.7330    3.1720 nb        1 PKA     -0.693000
     11 C17         0.1470    4.8300    3.6220 cp        1 PKA      0.535800
     12 C10         0.1490    2.5580    5.2320 ca        1 PKA     -0.085300
     13 C11        -0.4930    3.7270    5.7280 ca        1 PKA     -0.052000
     14 C12        -1.1210    3.7490    6.9980 ca        1 PKA     -0.102000
     15 C16        -0.5060    4.8950    4.9170 ca        1 PKA     -0.109300
     16 C13        -1.7450    4.8960    7.4390 ca        1 PKA     -0.097000
     17 C14        -1.7640    6.0540    6.6310 ca        1 PKA     -0.085000
     18 C15        -1.1550    6.0560    5.3920 ca        1 PKA     -0.108000
     19 C19         0.1540    6.0340    2.7640 cp        1 PKA     -0.179500
     20 C24        -0.5500    6.0670    1.5510 ca        1 PKA      0.042400
     21 C23        -0.5280    7.2170    0.7540 ca        1 PKA     -0.121000
     22 C20         0.8910    7.1570    3.1620 ca        1 PKA     -0.103000
     23 C21         0.9180    8.2980    2.3640 ca        1 PKA     -0.123000
     24 C22         0.2080    8.3280    1.1630 ca        1 PKA     -0.095000
     25 CL         -1.4580    4.7260    1.0320 cl        1 PKA     -0.086400
     26 H1C        -0.5300    0.6310   -0.0490 hc        1 PKA      0.055700
     27 H1A         0.4810    2.1020   -0.3820 hc        1 PKA      0.055700
     28 H1B         0.2130    0.8810   -1.6790 hc        1 PKA      0.055700
     29 H2A         1.5560   -0.7990   -0.5970 hc        1 PKA      0.079700
     30 H2B         2.5280    0.7230   -0.5820 hc        1 PKA      0.079700
     31 H3          0.7560   -0.3500    1.7520 hx        1 PKA      0.102700
     32 H4C         2.5510   -1.9190    1.2490 hc        1 PKA      0.075033
     33 H4A         2.9860   -1.0410    2.7720 hc        1 PKA      0.075033
     34 H4B         3.8100   -0.6170    1.2000 hc        1 PKA      0.075033
     35 H6A         3.7180    1.8320    1.0030 hx        1 PKA      0.103033
     36 H6B         3.9280    1.2190    2.7190 hx        1 PKA      0.103033
     37 H6C         3.3450    2.9360    2.4210 hx        1 PKA      0.103033
     38 H10         0.1740    1.6390    5.8410 ha        1 PKA      0.176000
     39 H12        -1.1020    2.8410    7.6210 ha        1 PKA      0.155000
     40 H13        -2.2360    4.9200    8.4260 ha        1 PKA      0.161000
     41 H14        -2.2730    6.9590    7.0000 ha        1 PKA      0.160000
     42 H15        -1.1710    6.9590    4.7600 ha        1 PKA      0.163000
     43 H23        -1.0920    7.2450   -0.1920 ha        1 PKA      0.162000
     44 H20         1.4510    7.1330    4.1100 ha        1 PKA      0.148000
     45 H21         1.5000    9.1760    2.6830 ha        1 PKA      0.154000
     46 H22         0.2260    9.2320    0.5330 ha        1 PKA      0.156000
     47 H51         1.3410    2.0870    1.5140 hn        1 PKA      0.477800
@<TRIPOS>BOND
     1    1    2 1   
     2    1   26 1   
     3    1   27 1   
     4    1   28 1   
     5    2    3 1   
     6    2   29 1   
     7    2   30 1   
     8    3    4 1   
     9    3    5 1   
    10    3   31 1   
    11    4   32 1   
    12    4   33 1   
    13    4   34 1   
    14    5    6 1   
    15    5    7 1   
    16    5   47 1   
    17    6   35 1   
    18    6   36 1   
    19    6   37 1   
    20    7    8 2   
    21    7    9 1   
    22    9   10 ar  
    23    9   12 ar  
    24   10   11 ar  
    25   11   15 ar  
    26   11   19 1   
    27   12   13 ar  
    28   12   38 1   
    29   13   14 ar  
    30   13   15 ar  
    31   14   16 ar  
    32   14   39 1   
    33   15   18 ar  
    34   16   17 ar  
    35   16   40 1   
    36   17   18 ar  
    37   17   41 1   
    38   18   42 1   
    39   19   20 ar  
    40   19   22 ar  
    41   20   21 ar  
    42   20   25 1   
    43   21   24 ar  
    44   21   43 1   
    45   22   23 ar  
    46   22   44 1   
    47   23   24 ar  
    48   23   45 1   
    49   24   46 1   
@<TRIPOS>SUBSTRUCTURE
     1 PKA         1 TEMP              0 ****  ****    0 ROOT
