@<TRIPOS>MOLECULE
PKA
   47    49     1     0     0
SMALL
bcc


@<TRIPOS>ATOM
      1 C1          0.3560    1.0140   -0.5820 c3        1 PKA     -0.121100
      2 C2          1.5830    0.2420   -0.1740 c3        1 PKA     -0.109400
      3 C3          1.7150    0.0660    1.3430 c3        1 PKA      0.136500
      4 C4          2.8240   -0.9290    1.6520 c3        1 PKA     -0.125100
      5 N5          1.8960    1.4020    2.0380 n4        1 PKA     -0.580200
      6 C6          3.3040    1.8680    2.0370 c3        1 PKA      0.091100
      7 C7          1.3810    1.3740    3.4660 c         1 PKA      0.471600
      8 O8          1.5360    0.3360    4.0990 o         1 PKA     -0.447100
      9 C9          0.7350    2.6040    3.9710 ca        1 PKA      0.269800
     10 N18         0.7440    3.7320    3.1730 nb        1 PKA     -0.693000
     11 C17         0.1550    4.8300    3.6270 cp        1 PKA      0.535800
     12 C10         0.1520    2.5540    5.2310 ca        1 PKA     -0.085300
     13 C11        -0.4840    3.7240    5.7310 ca        1 PKA     -0.052000
     14 C12        -1.1090    3.7460    7.0030 ca        1 PKA     -0.102000
     15 C16        -0.4940    4.8940    4.9240 ca        1 PKA     -0.109300
     16 C13        -1.7270    4.8950    7.4480 ca        1 PKA     -0.097000
     17 C14        -1.7440    6.0540    6.6430 ca        1 PKA     -0.085000
     18 C15        -1.1380    6.0570    5.4030 ca        1 PKA     -0.108000
     19 C19         0.1660    6.0370    2.7720 cp        1 PKA     -0.179500
     20 C24        -0.5400    6.0750    1.5600 ca        1 PKA      0.042400
     21 C23        -0.5150    7.2280    0.7670 ca        1 PKA     -0.121000
     22 C20         0.9080    7.1550    3.1720 ca        1 PKA     -0.103000
     23 C21         0.9380    8.2990    2.3770 ca        1 PKA     -0.123000
     24 C22         0.2250    8.3350    1.1770 ca        1 PKA     -0.095000
     25 CL         -1.4540    4.7390    1.0400 cl        1 PKA     -0.086400
     26 H1C        -0.5520    0.6380   -0.0500 hc        1 PKA      0.055700
     27 H1A         0.1860    0.8920   -1.6810 hc        1 PKA      0.055700
     28 H1B         0.4610    2.1080   -0.3820 hc        1 PKA      0.055700
     29 H2A         1.5280   -0.7950   -0.6090 hc        1 PKA      0.079700
     30 H2B         2.5050    0.7240   -0.5950 hc        1 PKA      0.079700
     31 H3          0.7380   -0.3480    1.7440 hx        1 PKA      0.102700
     32 H4C         2.9700   -1.0500    2.7530 hc        1 PKA      0.075033
     33 H4A         3.7890   -0.6250    1.1800 hc        1 PKA      0.075033
     34 H4B         2.5260   -1.9230    1.2310 hc        1 PKA      0.075033
     35 H6A         3.9200    1.2070    2.7030 hx        1 PKA      0.103033
     36 H6B         3.7060    1.8240    0.9900 hx        1 PKA      0.103033
     37 H6C         3.3420    2.9270    2.4110 hx        1 PKA      0.103033
     38 H10         0.1750    1.6340    5.8380 ha        1 PKA      0.176000
     39 H12        -1.0930    2.8360    7.6240 ha        1 PKA      0.155000
     40 H13        -2.2160    4.9170    8.4360 ha        1 PKA      0.161000
     41 H14        -2.2490    6.9600    7.0160 ha        1 PKA      0.160000
     42 H15        -1.1520    6.9620    4.7730 ha        1 PKA      0.163000
     43 H23        -1.0810    7.2600   -0.1780 ha        1 PKA      0.162000
     44 H20         1.4700    7.1270    4.1190 ha        1 PKA      0.148000
     45 H21         1.5240    9.1740    2.6970 ha        1 PKA      0.154000
     46 H22         0.2460    9.2400    0.5500 ha        1 PKA      0.156000
     47 H51         1.3320    2.0870    1.5090 hn        1 PKA      0.477800
@<TRIPOS>BOND
     1    1    2 1   
     2    1   26 1   
     3    1   27 1   
     4    1   28 1   
     5    2    3 1   
     6    2   29 1   
     7    2   30 1   
     8    3    4 1   
     9    3    5 1   
    10    3   31 1   
    11    4   32 1   
    12    4   33 1   
    13    4   34 1   
    14    5    6 1   
    15    5    7 1   
    16    5   47 1   
    17    6   35 1   
    18    6   36 1   
    19    6   37 1   
    20    7    8 2   
    21    7    9 1   
    22    9   10 ar  
    23    9   12 ar  
    24   10   11 ar  
    25   11   15 ar  
    26   11   19 1   
    27   12   13 ar  
    28   12   38 1   
    29   13   14 ar  
    30   13   15 ar  
    31   14   16 ar  
    32   14   39 1   
    33   15   18 ar  
    34   16   17 ar  
    35   16   40 1   
    36   17   18 ar  
    37   17   41 1   
    38   18   42 1   
    39   19   20 ar  
    40   19   22 ar  
    41   20   21 ar  
    42   20   25 1   
    43   21   24 ar  
    44   21   43 1   
    45   22   23 ar  
    46   22   44 1   
    47   23   24 ar  
    48   23   45 1   
    49   24   46 1   
@<TRIPOS>SUBSTRUCTURE
     1 PKA         1 TEMP              0 ****  ****    0 ROOT
