@<TRIPOS>MOLECULE
PKA
   47    49     1     0     0
SMALL
bcc


@<TRIPOS>ATOM
      1 C1          0.3860    1.0600   -0.6160 c3        1 PKA     -0.121100
      2 C2          1.5910    0.2620   -0.1920 c3        1 PKA     -0.109400
      3 C3          1.6880    0.0660    1.3250 c3        1 PKA      0.136500
      4 C4          2.7740   -0.9510    1.6450 c3        1 PKA     -0.125100
      5 N5          1.8770    1.3910    2.0400 nx        1 PKA     -0.580200
      6 C6          3.2920    1.8330    2.0720 c3        1 PKA      0.091100
      7 C7          1.3330    1.3550    3.4560 c         1 PKA      0.471600
      8 O8          1.4580    0.3080    4.0810 o         1 PKA     -0.447100
      9 C9          0.6970    2.5900    3.9630 ca        1 PKA      0.269800
     10 N18         0.7400    3.7270    3.1780 nb        1 PKA     -0.693000
     11 C17         0.1610    4.8290    3.6340 cp        1 PKA      0.535800
     12 C10         0.0900    2.5360    5.2110 ca        1 PKA     -0.085300
     13 C11        -0.5370    3.7110    5.7120 ca        1 PKA     -0.052000
     14 C12        -1.1860    3.7290    6.9720 ca        1 PKA     -0.102000
     15 C16        -0.5130    4.8900    4.9180 ca        1 PKA     -0.109300
     16 C13        -1.7950    4.8820    7.4180 ca        1 PKA     -0.097000
     17 C14        -1.7770    6.0510    6.6260 ca        1 PKA     -0.085000
     18 C15        -1.1470    6.0570    5.3980 ca        1 PKA     -0.108000
     19 C19         0.2080    6.0450    2.7930 cp        1 PKA     -0.179500
     20 C24        -0.4740    6.1090    1.5680 ca        1 PKA      0.042400
     21 C23        -0.4150    7.2700    0.7890 ca        1 PKA     -0.121000
     22 C20         0.9600    7.1470    3.2200 ca        1 PKA     -0.103000
     23 C21         1.0240    8.2980    2.4380 ca        1 PKA     -0.123000
     24 C22         0.3360    8.3600    1.2260 ca        1 PKA     -0.095000
     25 Cl         -1.3980    4.7930    1.0140 cl        1 PKA     -0.086400
     26 H1C        -0.5390    0.6950   -0.1060 hc        1 PKA      0.055700
     27 H1A         0.5070    2.1500   -0.4020 hc        1 PKA      0.055700
     28 H1B         0.2370    0.9530   -1.7200 hc        1 PKA      0.055700
     29 H2A         2.5290    0.7320   -0.5880 hc        1 PKA      0.079700
     30 H2B         1.5280   -0.7690   -0.6400 hc        1 PKA      0.079700
     31 H3          0.6970   -0.3350    1.7020 hx        1 PKA      0.102700
     32 H4C         3.7540   -0.6580    1.1970 hc        1 PKA      0.075033
     33 H4A         2.4680   -1.9350    1.2070 hc        1 PKA      0.075033
     34 H4B         2.8950   -1.0860    2.7480 hc        1 PKA      0.075033
     35 H6A         3.7150    1.7950    1.0330 hx        1 PKA      0.103033
     36 H6B         3.8840    1.1550    2.7430 hx        1 PKA      0.103033
     37 H6C         3.3410    2.8870    2.4590 hx        1 PKA      0.103033
     38 H10         0.0850    1.6090    5.8080 ha        1 PKA      0.176000
     39 H12        -1.1970    2.8120    7.5820 ha        1 PKA      0.155000
     40 H13        -2.3030    4.9020    8.3960 ha        1 PKA      0.161000
     41 H14        -2.2740    6.9610    7.0000 ha        1 PKA      0.160000
     42 H15        -1.1330    6.9690    4.7780 ha        1 PKA      0.163000
     43 H23        -0.9610    7.3210   -0.1670 ha        1 PKA      0.162000
     44 H20         1.5020    7.0990    4.1770 ha        1 PKA      0.148000
     45 H21         1.6170    9.1610    2.7800 ha        1 PKA      0.154000
     46 H22         0.3830    9.2720    0.6100 ha        1 PKA      0.156000
     47 H51         1.3360    2.0920    1.5070 hn        1 PKA      0.477800
@<TRIPOS>BOND
     1    1    2 1   
     2    1   26 1   
     3    1   27 1   
     4    1   28 1   
     5    2    3 1   
     6    2   29 1   
     7    2   30 1   
     8    3    4 1   
     9    3    5 1   
    10    3   31 1   
    11    4   32 1   
    12    4   33 1   
    13    4   34 1   
    14    5    6 1   
    15    5    7 1   
    16    5   47 1   
    17    6   35 1   
    18    6   36 1   
    19    6   37 1   
    20    7    8 2   
    21    7    9 1   
    22    9   10 ar  
    23    9   12 ar  
    24   10   11 ar  
    25   11   15 ar  
    26   11   19 1   
    27   12   13 ar  
    28   12   38 1   
    29   13   14 ar  
    30   13   15 ar  
    31   14   16 ar  
    32   14   39 1   
    33   15   18 ar  
    34   16   17 ar  
    35   16   40 1   
    36   17   18 ar  
    37   17   41 1   
    38   18   42 1   
    39   19   20 ar  
    40   19   22 ar  
    41   20   21 ar  
    42   20   25 1   
    43   21   24 ar  
    44   21   43 1   
    45   22   23 ar  
    46   22   44 1   
    47   23   24 ar  
    48   23   45 1   
    49   24   46 1   
@<TRIPOS>SUBSTRUCTURE
     1 PKA         1 TEMP              0 ****  ****    0 ROOT
