@<TRIPOS>MOLECULE
PKC
   29    29     1     0     0
SMALL
bcc


@<TRIPOS>ATOM
      1 N1         -0.7690    1.8990   -0.2440 n3        1 PKC     -0.901800
      2 C1         -0.9110    0.4680   -0.1030 c3        1 PKC      0.147500
      3 C2         -2.3400   -0.0180    0.2670 c3        1 PKC      0.047100
      4 O1         -2.4050   -1.4340    0.2530 oh        1 PKC     -0.595800
      5 C3          0.0670   -0.1130    0.9380 c3        1 PKC     -0.034100
      6 C4          1.4680   -0.1370    0.4410 ca        1 PKC     -0.076300
      7 C5          2.2560    1.0200    0.4690 ca        1 PKC     -0.118500
      8 C6          2.0200   -1.3280   -0.0460 ca        1 PKC     -0.118500
      9 C7          3.5730    0.9850    0.0150 ca        1 PKC     -0.132500
     10 C8          3.3370   -1.3610   -0.5000 ca        1 PKC     -0.132500
     11 C9          4.1160   -0.2040   -0.4700 ca        1 PKC     -0.131000
     12 C10        -3.4020    0.5740   -0.6830 c3        1 PKC      0.117800
     13 N2         -4.7160   -0.0080   -0.6060 n3        1 PKC     -0.891800
     14 H1         -1.3770    2.2470   -0.9580 hn        1 PKC      0.351300
     15 H2         -0.6550    0.0150   -1.1090 h1        1 PKC      0.063700
     16 H3         -2.5760    0.2520    1.3340 h1        1 PKC      0.074700
     17 H4         -2.1280   -1.7270   -0.6240 ho        1 PKC      0.401000
     18 H5          0.0120    0.4820    1.8890 hc        1 PKC      0.058700
     19 H6         -0.2710   -1.1580    1.1790 hc        1 PKC      0.058700
     20 H7          1.8260    1.9620    0.8420 ha        1 PKC      0.133000
     21 H8          1.4110   -2.2450   -0.0680 ha        1 PKC      0.133000
     22 H9          4.1840    1.8990    0.0370 ha        1 PKC      0.129500
     23 H10         3.7630   -2.3010   -0.8800 ha        1 PKC      0.129500
     24 H11         5.1560   -0.2310   -0.8280 ha        1 PKC      0.129000
     25 H12        -3.5020    1.6750   -0.4700 h1        1 PKC      0.053200
     26 H13        -3.0380    0.4550   -1.7430 h1        1 PKC      0.053200
     27 H14        -4.6680   -0.9980   -0.7560 hn        1 PKC      0.349800
     28 H15        -0.9650    2.3690    0.6180 hn        1 PKC      0.351300
     29 H16        -5.1200    0.1520    0.2970 hn        1 PKC      0.349800
@<TRIPOS>BOND
     1    1    2 1   
     2    1   14 1   
     3    1   28 1   
     4    2    3 1   
     5    2    5 1   
     6    2   15 1   
     7    3    4 1   
     8    3   12 1   
     9    3   16 1   
    10    4   17 1   
    11    5    6 1   
    12    5   18 1   
    13    5   19 1   
    14    6    7 ar  
    15    6    8 ar  
    16    7    9 ar  
    17    7   20 1   
    18    8   10 ar  
    19    8   21 1   
    20    9   11 ar  
    21    9   22 1   
    22   10   11 ar  
    23   10   23 1   
    24   11   24 1   
    25   12   13 1   
    26   12   25 1   
    27   12   26 1   
    28   13   27 1   
    29   13   29 1   
@<TRIPOS>SUBSTRUCTURE
     1 PKC         1 TEMP              0 ****  ****    0 ROOT
