@<TRIPOS>MOLECULE
PKJ
   45    45     1     0     0
SMALL
bcc


@<TRIPOS>ATOM
      1 C24        -0.4780    1.5570   -0.0600 c1        1 PKJ     -0.089000
      2 C28         3.0650    1.1530    4.8660 c2        1 PKJ     -0.542000
      3 C25         0.7540    1.7190    0.1630 c1        1 PKJ     -0.134000
      4 C27         3.1000    1.1490    3.5670 c1        1 PKJ      0.128000
      5 C5          2.5140    5.3940    5.5930 c2        1 PKJ     -0.131000
      6 C6          3.7190    6.1590    5.7620 c2        1 PKJ     -0.290000
      7 C12         1.3200    7.2500    4.5230 c2        1 PKJ     -0.251000
      8 C23        -1.7510    1.3920   -0.3080 c2        1 PKJ     -0.107000
      9 C26         2.0280    1.8770    0.4170 c2        1 PKJ     -0.052000
     10 C4          1.3860    5.8580    4.9860 c2        1 PKJ      0.067000
     11 C7          4.0080    7.2740    5.1170 c1        1 PKJ      0.253000
     12 C11         0.8180    7.5960    3.3430 c1        1 PKJ     -0.168000
     13 C18        -4.6440    1.4570    1.7680 c2        1 PKJ     -0.512000
     14 C15        -2.8360    2.2740    2.7950 c2        1 PKJ     -0.212000
     15 C20        -3.8900    0.1680   -0.0150 c1        1 PKJ     -0.804000
     16 C21        -2.6540    0.6400    0.6190 c3        1 PKJ      0.163000
     17 C2         -0.0510    3.8390    5.2530 c2        1 PKJ      0.319000
     18 C9          1.6370    9.5560    2.3810 c2        1 PKJ     -0.103000
     19 C29         2.9710    2.5670   -0.4860 c3        1 PKJ     -0.189000
     20 C13        -1.3920    3.2430    4.8670 c3        1 PKJ     -0.344000
     21 N17        -5.0550    2.2130    2.8200 n2        1 PKJ      0.009000
     22 N16        -4.0030    2.6970    3.4260 n2        1 PKJ     -0.131000
     23 N22        -3.2110    1.4680    1.7370 na        1 PKJ     -0.165000
     24 N3          0.2270    5.0950    4.7550 n         1 PKJ     -0.297000
     25 O1          0.7240    3.2070    6.0000 o         1 PKJ     -0.373000
     26 O8          4.3110    8.2750    4.5420 o         1 PKJ     -0.183000
     27 O10         0.6550    8.8140    2.7870 os        1 PKJ      0.078000
     28 S19        -5.2370    0.4790    0.4460 ss        1 PKJ      1.146000
     29 H1         -2.2130    1.7690   -1.2350 ha        1 PKJ      0.159000
     30 H2          3.6900    0.5310    5.5240 ha        1 PKJ      0.208500
     31 H3          2.3710    1.8060    5.4370 ha        1 PKJ      0.208500
     32 H4          2.4590    1.4850    1.3660 ha        1 PKJ      0.182000
     33 H6          4.4680    5.7670    6.4720 ha        1 PKJ      0.182000
     34 H7          1.6850    8.0020    5.2510 ha        1 PKJ      0.135000
     35 H8         -2.0910   -0.2230    1.0910 h1        1 PKJ      0.158000
     36 H9          2.6740    9.3810    2.7010 h4        1 PKJ      0.158000
     37 H10         1.3770   10.2910    1.6040 h4        1 PKJ      0.158000
     38 H11         3.4280    3.4400    0.0460 hc        1 PKJ      0.090667
     39 H12         2.4750    2.9360   -1.4160 hc        1 PKJ      0.090667
     40 H13         3.7940    1.8650   -0.7750 hc        1 PKJ      0.090667
     41 H14        -1.6120    2.3970    5.5670 h1        1 PKJ      0.153000
     42 H15        -2.2150    3.9930    4.9810 h1        1 PKJ      0.153000
     43 H16        -0.4360    5.5120    4.1320 hn        1 PKJ      0.257000
     44 S14        -1.2480    2.6570    3.2050 ss        1 PKJ      0.358000
     45 H5          2.5640    4.3680    6.0020 ha        1 PKJ      0.171000
@<TRIPOS>BOND
     1    1    3 1   
     2    1    8 1   
     3    2    4 1   
     4    2   30 1   
     5    2   31 1   
     6    3    9 1   
     7    5    6 1   
     8    5   10 1   
     9    5   45 1   
    10    6   11 1   
    11    6   33 1   
    12    7   10 1   
    13    7   12 1   
    14    7   34 1   
    15    8   16 1   
    16    8   29 1   
    17    9   19 1   
    18    9   32 1   
    19   10   24 1   
    20   11   26 1   
    21   12   27 1   
    22   13   21 1   
    23   13   23 1   
    24   13   28 1   
    25   14   22 1   
    26   14   23 1   
    27   14   44 1   
    28   15   16 1   
    29   15   28 1   
    30   16   23 1   
    31   16   35 1   
    32   17   20 1   
    33   17   24 1   
    34   17   25 1   
    35   18   27 1   
    36   18   36 1   
    37   18   37 1   
    38   19   38 1   
    39   19   39 1   
    40   19   40 1   
    41   20   41 1   
    42   20   42 1   
    43   20   44 1   
    44   21   22 1   
    45   24   43 1   
@<TRIPOS>SUBSTRUCTURE
     1 PKJ         1 TEMP              0 ****  ****    0 ROOT
