@<TRIPOS>MOLECULE
PKJ
   45    46     1     0     0
SMALL
bcc


@<TRIPOS>ATOM
      1 C24         3.8850    0.7370   -2.2810 c1        1 PKJ      0.298000
      2 C28        -1.1310   -0.1310    1.9340 c1        1 PKJ     -0.232000
      3 C25         2.7290    0.6980   -1.6410 c2        1 PKJ     -0.519000
      4 C27        -0.1880    0.1520    1.2430 c1        1 PKJ     -0.163000
      5 C5          2.6560    6.5450    3.6570 ca        1 PKJ     -0.120000
      6 C6          3.3460    7.2450    4.6360 ca        1 PKJ     -0.129000
      7 C12         0.5540    6.9850    4.8040 ca        1 PKJ     -0.169000
      8 C23        -2.2540   -0.3930    2.7850 c3        1 PKJ     -0.029000
      9 C26         2.4840    0.9940   -0.2740 c1        1 PKJ     -0.043000
     10 C4          1.2510    6.3970    3.7230 ca        1 PKJ      0.060000
     11 C7          2.6550    7.8300    5.7090 ca        1 PKJ      0.085000
     12 C11         1.2590    7.6960    5.7680 ca        1 PKJ     -0.133000
     13 C18        -3.4320    2.7350    4.1870 c2        1 PKJ     -0.506000
     14 C15        -1.7910    2.9430    2.6760 c2        1 PKJ     -0.215000
     15 C20        -3.4380    0.4970    4.8380 c1        1 PKJ     -0.810000
     16 C21        -2.2780    0.6030    3.9520 c3        1 PKJ      0.119000
     17 C2          0.9930    4.8230    1.8050 c2        1 PKJ      0.325000
     18 C9         -0.5850    8.6840    6.9230 c1        1 PKJ     -0.010000
     19 C29         3.4580    1.6470    0.5680 c3        1 PKJ     -0.294000
     20 C13        -0.0360    4.1230    0.9410 c3        1 PKJ     -0.390000
     21 N17        -3.4160    4.0190    3.7470 n2        1 PKJ      0.009000
     22 N16        -2.4580    4.1510    2.8630 n2        1 PKJ     -0.159000
     23 N22        -2.3650    2.0290    3.5380 na        1 PKJ     -0.171000
     24 N3          0.5050    5.7080    2.7500 n         1 PKJ     -0.313000
     25 O1          2.2080    4.6050    1.6300 o         1 PKJ     -0.375000
     26 O8          3.3910    8.5130    6.6430 oh        1 PKJ     -0.243000
     27 O10         0.6240    8.2810    6.9000 os        1 PKJ     -0.040000
     28 S19        -4.3100    1.6080    5.2030 ss        1 PKJ      1.152000
     29 H1         -3.2120   -0.3360    2.1990 hc        1 PKJ      0.125000
     30 H2         -2.1870   -1.4240    3.2310 hc        1 PKJ      0.125000
     31 H3          1.8230    0.3540   -2.1930 ha        1 PKJ      0.206000
     32 H4          0.6780    0.3500    0.6270 ha        1 PKJ      0.282000
     33 H6          4.4400    7.3520    4.5830 ha        1 PKJ      0.159000
     34 H7         -0.5390    6.8830    4.8960 ha        1 PKJ      0.147000
     35 H8         -1.3200    0.4790    4.5470 h1        1 PKJ      0.157000
     36 H9          2.7900    8.8060    7.3460 ho        1 PKJ      0.237000
     37 H10        -1.2450    8.5930    6.0350 ha        1 PKJ      0.039000
     38 H11         4.4840    1.7920    0.1470 hc        1 PKJ      0.123333
     39 H12         3.0390    2.6650    0.8340 hc        1 PKJ      0.123333
     40 H13         3.5380    1.0790    1.5340 hc        1 PKJ      0.123333
     41 H14         0.4720    3.8540   -0.0260 h1        1 PKJ      0.153500
     42 H15        -0.8920    4.7980    0.6940 h1        1 PKJ      0.153500
     43 H16        -0.4860    5.7990    2.8280 hn        1 PKJ      0.253000
     44 S14        -0.5650    2.5770    1.5800 ss        1 PKJ      0.433000
     45 H5          3.2240    6.0960    2.8250 ha        1 PKJ      0.177000
@<TRIPOS>BOND
     1    1    3 1   
     2    2    4 1   
     3    2    8 1   
     4    3    9 1   
     5    3   31 1   
     6    4   32 1   
     7    5    6 1   
     8    5   10 1   
     9    5   45 1   
    10    6   11 1   
    11    6   33 1   
    12    7   10 1   
    13    7   12 1   
    14    7   34 1   
    15    8   16 1   
    16    8   29 1   
    17    8   30 1   
    18    9   19 1   
    19   10   24 1   
    20   11   12 1   
    21   11   26 1   
    22   12   27 1   
    23   13   21 1   
    24   13   23 1   
    25   13   28 1   
    26   14   22 1   
    27   14   23 1   
    28   14   44 1   
    29   15   16 1   
    30   15   28 1   
    31   16   23 1   
    32   16   35 1   
    33   17   20 1   
    34   17   24 1   
    35   17   25 1   
    36   18   27 1   
    37   18   37 1   
    38   19   38 1   
    39   19   39 1   
    40   19   40 1   
    41   20   41 1   
    42   20   42 1   
    43   20   44 1   
    44   21   22 1   
    45   24   43 1   
    46   26   36 1   
@<TRIPOS>SUBSTRUCTURE
     1 PKJ         1 TEMP              0 ****  ****    0 ROOT
