@<TRIPOS>MOLECULE
PKL
   46    49     1     0     0
SMALL
bcc


@<TRIPOS>ATOM
      1 C23        -0.1490   -0.3960   -0.0790 ca        1 PKL     -0.109000
      2 C4          6.4360    6.4560    0.6080 ca        1 PKL     -0.085500
      3 C6          6.4490    6.0760    3.0040 ca        1 PKL     -0.085500
      4 C22         1.2430   -0.4090   -0.1710 ca        1 PKL     -0.114000
      5 C3          5.3010    7.2500    0.7450 ca        1 PKL     -0.132000
      6 C7          5.3140    6.8720    3.1320 ca        1 PKL     -0.132000
      7 C24        -0.7740   -0.2830    1.1610 ca        1 PKL     -0.099000
      8 C27         1.4010   -0.2020    2.2370 ca        1 PKL     -0.120000
      9 C13         8.4670    1.4800    1.0650 cc        1 PKL      0.413200
     10 C5          7.0150    5.8670    1.7400 ca        1 PKL     -0.088000
     11 C2          4.7310    7.4670    2.0060 ca        1 PKL     -0.032300
     12 C21         2.0210   -0.3100    0.9880 ca        1 PKL     -0.111300
     13 C25         0.0060   -0.1860    2.3190 ca        1 PKL      0.022400
     14 C14         7.5220    2.5690    1.2350 cd        1 PKL     -0.395200
     15 C11         9.6760    3.2730    1.3250 cd        1 PKL      0.364900
     16 C9          9.5270    5.6350    1.6830 cc        1 PKL     -0.196100
     17 C8          8.2470    5.0980    1.6110 cd        1 PKL      0.039700
     18 C16         6.1000    2.5320    1.2350 c         1 PKL      0.600700
     19 C1          3.5370    8.3320    2.1490 c3        1 PKL     -0.068800
     20 C20         3.5070   -0.3460    0.9020 c3        1 PKL     -0.049100
     21 C19         4.0500    1.0710    1.0800 c3        1 PKL      0.104800
     22 N15         8.3190    3.7190    1.4010 na        1 PKL     -0.052900
     23 N12         9.7500    1.9040    1.1190 nc        1 PKL     -0.596000
     24 N18         5.5400    1.1180    1.0490 ny        1 PKL     -0.672800
     25 O17         5.2620    3.4170    1.3540 o         1 PKL     -0.448100
     26 S10        10.7640    4.5240    1.5050 ss        1 PKL      0.220700
     27 Cl1        -0.7410   -0.0510    3.8340 cl        1 PKL     -0.060400
     28 H1         -0.7590   -0.4790   -0.9930 ha        1 PKL      0.155000
     29 H4          1.7240   -0.5060   -1.1560 ha        1 PKL      0.138000
     30 H5          4.8500    7.7160   -0.1460 ha        1 PKL      0.148000
     31 H6          4.8730    7.0390    4.1270 ha        1 PKL      0.148000
     32 H7         -1.8740   -0.2750    1.2290 ha        1 PKL      0.165000
     33 H8          2.0080   -0.1380    3.1540 ha        1 PKL      0.143000
     34 H9          8.2340    0.4240    0.9080 h4        1 PKL      0.043100
     35 H10         9.7080    6.7030    1.8430 h4        1 PKL      0.220000
     36 H11         2.9120    8.0120    3.0190 hc        1 PKL      0.058033
     37 H12         3.8570    9.3920    2.3200 hc        1 PKL      0.058033
     38 H13         2.9060    8.3020    1.2270 hc        1 PKL      0.058033
     39 H14         3.8240   -0.7630   -0.0910 hc        1 PKL      0.067200
     40 H15         3.9100   -1.0230    1.7040 hc        1 PKL      0.067200
     41 H16         3.7090    1.4990    2.0670 hx        1 PKL      0.118200
     42 H17         3.6660    1.7460    0.2610 hx        1 PKL      0.118200
     43 H18         5.8740    0.7540    0.1520 hn        1 PKL      0.449300
     44 H2          6.8800    6.2990   -0.3860 ha        1 PKL      0.139000
     45 H182        5.9150    0.5210    1.7930 hn        1 PKL      0.449300
     46 H3          6.9040    5.6220    3.8970 ha        1 PKL      0.139000
@<TRIPOS>BOND
     1    1    4 ar  
     2    1    7 ar  
     3    1   28 1   
     4    2    5 ar  
     5    2   10 ar  
     6    2   44 1   
     7    3    6 ar  
     8    3   10 ar  
     9    3   46 1   
    10    4   12 ar  
    11    4   29 1   
    12    5   11 ar  
    13    5   30 1   
    14    6   11 ar  
    15    6   31 1   
    16    7   13 ar  
    17    7   32 1   
    18    8   12 ar  
    19    8   13 ar  
    20    8   33 1   
    21    9   14 2   
    22    9   23 1   
    23    9   34 1   
    24   10   17 1   
    25   11   19 1   
    26   12   20 1   
    27   13   27 1   
    28   14   18 1   
    29   14   22 1   
    30   15   22 1   
    31   15   23 2   
    32   15   26 1   
    33   16   17 2   
    34   16   26 1   
    35   16   35 1   
    36   17   22 1   
    37   18   24 1   
    38   18   25 2   
    39   19   36 1   
    40   19   37 1   
    41   19   38 1   
    42   20   21 1   
    43   20   39 1   
    44   20   40 1   
    45   21   24 1   
    46   21   41 1   
    47   21   42 1   
    48   24   43 1   
    49   24   45 1   
@<TRIPOS>SUBSTRUCTURE
     1 PKL         1 TEMP              0 ****  ****    0 ROOT
