@<TRIPOS>MOLECULE
PKL
   46    49     1     0     0
SMALL
bcc


@<TRIPOS>ATOM
      1 C23        -0.1260   -0.4270   -0.0960 ca        1 PKL     -0.109000
      2 C4          6.4080    6.4560    0.6020 ca        1 PKL     -0.086000
      3 C6          6.4370    6.0950    3.0010 ca        1 PKL     -0.086000
      4 C22         1.2660   -0.4360   -0.1720 ca        1 PKL     -0.114000
      5 C3          5.2690    7.2450    0.7390 ca        1 PKL     -0.132000
      6 C7          5.2980    6.8860    3.1290 ca        1 PKL     -0.132000
      7 C24        -0.7650   -0.3050    1.1370 ca        1 PKL     -0.099000
      8 C27         1.3990   -0.2050    2.2360 ca        1 PKL     -0.120000
      9 C13         8.4700    1.4960    1.0790 cc        1 PKL      0.413200
     10 C5          6.9970    5.8790    1.7350 ca        1 PKL     -0.088000
     11 C2          4.7050    7.4690    2.0020 ca        1 PKL     -0.032300
     12 C21         2.0310   -0.3240    0.9930 ca        1 PKL     -0.111300
     13 C25         0.0030   -0.1940    2.3030 ca        1 PKL      0.022400
     14 C14         7.5190    2.5810    1.2480 cd        1 PKL     -0.395200
     15 C11         9.6700    3.2970    1.3220 cd        1 PKL      0.364900
     16 C9          9.5100    5.6610    1.6660 cc        1 PKL     -0.196100
     17 C8          8.2330    5.1160    1.6050 cd        1 PKL      0.039700
     18 C16         6.0980    2.5360    1.2560 c         1 PKL      0.600700
     19 C1          3.5080    8.3270    2.1460 c3        1 PKL     -0.068800
     20 C20         3.5180   -0.3550    0.9230 c3        1 PKL     -0.049100
     21 C19         4.0550    1.0660    1.0940 c3        1 PKL      0.104800
     22 N15         8.3110    3.7360    1.4030 na        1 PKL     -0.052900
     23 N12         9.7500    1.9280    1.1240 nc        1 PKL     -0.596000
     24 N18         5.5450    1.1180    1.0760 n4        1 PKL     -0.672800
     25 O17         5.2550    3.4170    1.3790 o         1 PKL     -0.448100
     26 S10        10.7520    4.5550    1.4890 ss        1 PKL      0.220700
     27 CL1        -0.7610   -0.0470    3.8080 cl        1 PKL     -0.060400
     28 H1         -0.7260   -0.5210   -1.0140 ha        1 PKL      0.155000
     29 H4          1.7580   -0.5410   -1.1510 ha        1 PKL      0.138000
     30 H5          4.8100    7.7010   -0.1520 ha        1 PKL      0.148500
     31 H6          4.8630    7.0580    4.1260 ha        1 PKL      0.148500
     32 H7         -1.8660   -0.2990    1.1940 ha        1 PKL      0.165000
     33 H8          1.9960   -0.1310    3.1570 ha        1 PKL      0.143000
     34 H9          8.2420    0.4380    0.9290 h4        1 PKL      0.043100
     35 H10         9.6860    6.7310    1.8190 h4        1 PKL      0.220000
     36 H11         2.8900    8.0120    3.0230 hc        1 PKL      0.058033
     37 H12         3.8220    9.3910    2.3040 hc        1 PKL      0.058033
     38 H13         2.8700    8.2850    1.2290 hc        1 PKL      0.058033
     39 H14         3.9160   -1.0230    1.7350 hc        1 PKL      0.067200
     40 H15         3.8480   -0.7800   -0.0630 hc        1 PKL      0.067200
     41 H16         3.7040    1.5000    2.0750 hx        1 PKL      0.118200
     42 H17         3.6750    1.7320    0.2670 hx        1 PKL      0.118200
     43 H18         5.9160    0.5290    1.8280 hn        1 PKL      0.449300
     44 H2          6.8470    6.2940   -0.3940 ha        1 PKL      0.139000
     45 H182        5.8880    0.7480    0.1840 hn        1 PKL      0.449300
     46 H3          6.9000    5.6500    3.8940 ha        1 PKL      0.139000
@<TRIPOS>BOND
     1    1    4 ar  
     2    1    7 ar  
     3    1   28 1   
     4    2    5 ar  
     5    2   10 ar  
     6    2   44 1   
     7    3    6 ar  
     8    3   10 ar  
     9    3   46 1   
    10    4   12 ar  
    11    4   29 1   
    12    5   11 ar  
    13    5   30 1   
    14    6   11 ar  
    15    6   31 1   
    16    7   13 ar  
    17    7   32 1   
    18    8   12 ar  
    19    8   13 ar  
    20    8   33 1   
    21    9   14 2   
    22    9   23 1   
    23    9   34 1   
    24   10   17 1   
    25   11   19 1   
    26   12   20 1   
    27   13   27 1   
    28   14   18 1   
    29   14   22 1   
    30   15   22 1   
    31   15   23 2   
    32   15   26 1   
    33   16   17 2   
    34   16   26 1   
    35   16   35 1   
    36   17   22 1   
    37   18   24 1   
    38   18   25 2   
    39   19   36 1   
    40   19   37 1   
    41   19   38 1   
    42   20   21 1   
    43   20   39 1   
    44   20   40 1   
    45   21   24 1   
    46   21   41 1   
    47   21   42 1   
    48   24   43 1   
    49   24   45 1   
@<TRIPOS>SUBSTRUCTURE
     1 PKL         1 TEMP              0 ****  ****    0 ROOT
