@<TRIPOS>MOLECULE
PKL
   45    47     1     0     0
SMALL
bcc


@<TRIPOS>ATOM
      1 C23         1.0420   -0.7080   -0.2070 ca        1 PKL     -0.120000
      2 C4          6.5120    6.2060    0.6600 ca        1 PKL     -0.087500
      3 C6          6.3720    5.2420    2.8790 ca        1 PKL     -0.087500
      4 C22         1.3170    0.6560   -0.2720 ca        1 PKL     -0.134000
      5 C3          5.3790    6.9730    0.9270 ca        1 PKL     -0.134500
      6 C7          5.2410    6.0100    3.1390 ca        1 PKL     -0.134500
      7 C24         1.1680   -1.3980    0.9980 ca        1 PKL     -0.129000
      8 C27         1.8490    0.6650    2.0910 ca        1 PKL     -0.126000
      9 C13         8.2240    0.9630    0.7720 c2        1 PKL     -0.111000
     10 C5          7.0130    5.3370    1.6370 ca        1 PKL     -0.047000
     11 C2          4.7330    6.8790    2.1640 ca        1 PKL     -0.053000
     12 C21         1.7230    1.3490    0.8760 ca        1 PKL     -0.051000
     13 C25         1.5720   -0.7040    2.1420 ca        1 PKL     -0.066000
     14 C14         7.3730    2.0850    0.9820 c2        1 PKL     -0.162000
     15 C11         9.5600    2.6700    0.9690 c2        1 PKL     -0.278000
     16 C9          9.5060    5.0590    1.3870 c2        1 PKL     -0.440000
     17 C8          8.2200    4.5580    1.3750 c2        1 PKL      0.053000
     18 C16         5.8990    2.1070    0.9640 c2        1 PKL      0.389000
     19 C1          3.5130    7.6700    2.4440 c3        1 PKL     -0.183000
     20 C20         2.0300    2.8040    0.7880 c3        1 PKL     -0.232000
     21 C19         2.0460    3.4930    2.0590 c1        1 PKL     -0.059000
     22 N15         8.2220    3.1820    1.1110 na        1 PKL     -0.052000
     23 N12         9.5580    1.3270    0.7600 n2        1 PKL     -0.109000
     24 N18         5.2650    1.0750    1.6040 n         1 PKL     -0.423000
     25 O17         5.2410    2.9850    0.3650 o         1 PKL     -0.391000
     26 S10        10.7090    3.9020    1.1140 ss        1 PKL      0.590000
     27 CL1         1.7290   -1.5350    3.6190 cl        1 PKL     -0.021000
     28 H1          0.7230   -1.2460   -1.1120 ha        1 PKL      0.137000
     29 H3          6.7630    4.5610    3.6500 ha        1 PKL      0.139500
     30 H4          1.2160    1.1920   -1.2270 ha        1 PKL      0.136000
     31 H5          4.9880    7.6510    0.1540 ha        1 PKL      0.137500
     32 H6          4.7380    5.9310    4.1140 ha        1 PKL      0.137500
     33 H7          0.9490   -2.4750    1.0460 ha        1 PKL      0.146000
     34 H8          2.1430    1.2250    2.9960 ha        1 PKL      0.178000
     35 H9          7.9160   -0.0720    0.6170 h4        1 PKL      0.185000
     36 H10         9.7450    6.1070    1.5660 h4        1 PKL      0.192000
     37 H11         2.6170    6.9970    2.4470 hc        1 PKL      0.086667
     38 H12         3.5830    8.1600    3.4470 hc        1 PKL      0.086667
     39 H13         3.3550    8.4630    1.6730 hc        1 PKL      0.086667
     40 H14         3.1050    2.9230    0.4050 hc        1 PKL      0.149000
     41 H15         1.3690    3.2800    0.0100 hc        1 PKL      0.149000
     42 H16         1.9530    4.5890    2.0010 ha        1 PKL      0.040000
     43 H17         4.2720    1.0470    1.6240 hn        1 PKL      0.236000
     44 H18         5.7760    0.4040    2.1180 hn        1 PKL      0.236000
     45 H2          7.0060    6.2740   -0.3210 ha        1 PKL      0.139500
@<TRIPOS>BOND
     1    1    4 1   
     2    1    7 1   
     3    1   28 1   
     4    2    5 1   
     5    2   10 1   
     6    2   45 1   
     7    3    6 1   
     8    3   10 1   
     9    3   29 1   
    10    4   12 1   
    11    4   30 1   
    12    5   11 1   
    13    5   31 1   
    14    6   11 1   
    15    6   32 1   
    16    7   13 1   
    17    7   33 1   
    18    8   12 1   
    19    8   13 1   
    20    8   34 1   
    21    9   14 1   
    22    9   23 1   
    23    9   35 1   
    24   10   17 1   
    25   11   19 1   
    26   12   20 1   
    27   13   27 1   
    28   14   18 1   
    29   14   22 1   
    30   15   22 1   
    31   15   23 1   
    32   15   26 1   
    33   16   17 1   
    34   16   26 1   
    35   16   36 1   
    36   17   22 1   
    37   18   24 1   
    38   18   25 1   
    39   19   37 1   
    40   19   38 1   
    41   19   39 1   
    42   20   21 1   
    43   20   40 1   
    44   20   41 1   
    45   21   42 1   
    46   24   43 1   
    47   24   44 1   
@<TRIPOS>SUBSTRUCTURE
     1 PKL         1 TEMP              0 ****  ****    0 ROOT
