@<TRIPOS>MOLECULE
PKR
   19    19     1     0     0
SMALL
bcc


@<TRIPOS>ATOM
      1 N           0.8720    0.7860    0.0580 n3        1 PKR     -0.704600
      2 CA         -0.0750   -0.2420   -0.4090 c3        1 PKR      0.055500
      3 C          -1.5250    0.0040    0.1150 c         1 PKR      0.932600
      4 O          -2.0290   -0.8320    0.9120 o         1 PKR     -0.841300
      5 CB          0.5040   -1.6030    0.0110 c3        1 PKR     -0.079400
      6 CG          1.9840   -1.3630    0.2870 c3        1 PKR     -0.084400
      7 CD          2.1830    0.1600    0.2010 c3        1 PKR      0.165800
      8 C6          0.8530    1.9860   -0.7310 c3        1 PKR      0.161100
      9 OXT        -2.1270    1.0150   -0.3440 o         1 PKR     -0.841300
     10 HA         -0.1500   -0.2190   -1.5380 h1        1 PKR      0.004700
     11 HB2        -0.0330   -1.9630    0.9260 hc        1 PKR      0.052200
     12 HB3         0.3570   -2.3570   -0.7980 hc        1 PKR      0.052200
     13 HG2         2.2700   -1.7370    1.3000 hc        1 PKR      0.019700
     14 HG3         2.6290   -1.8820   -0.4630 hc        1 PKR      0.019700
     15 HD2         2.8810    0.4070   -0.6500 h1        1 PKR      0.007700
     16 HD3         2.6510    0.5560    1.1420 h1        1 PKR      0.007700
     17 HC         -0.2190    2.3200   -0.8110 h1        1 PKR      0.024033
     18 HE          1.4590    2.7720   -0.2080 h1        1 PKR      0.024033
     19 HF          1.2750    1.8600   -1.7680 h1        1 PKR      0.024033
@<TRIPOS>BOND
     1    1    2 1   
     2    1    7 1   
     3    1    8 1   
     4    2    3 1   
     5    2    5 1   
     6    2   10 1   
     7    3    4 1   
     8    3    9 1   
     9    5    6 1   
    10    5   11 1   
    11    5   12 1   
    12    6    7 1   
    13    6   13 1   
    14    6   14 1   
    15    7   15 1   
    16    7   16 1   
    17    8   17 1   
    18    8   18 1   
    19    8   19 1   
@<TRIPOS>SUBSTRUCTURE
     1 PKR         1 TEMP              0 ****  ****    0 ROOT
