@<TRIPOS>MOLECULE
PKT
   67    69     1     0     0
SMALL
bcc


@<TRIPOS>ATOM
      1 C01        -0.3600   -0.1890    0.0750 c3        1 PKT     -0.129767
      2 C02         1.1340   -0.3990   -0.0390 c3        1 PKT      0.201800
      3 C03         1.7830   -0.7180    1.2900 c3        1 PKT     -0.129767
      4 C04         1.4860   -1.4230   -1.1070 c3        1 PKT     -0.129767
      5 O05         1.7620    0.8350   -0.6060 os        1 PKT     -0.426900
      6 C06         1.6190    2.0030    0.0270 c         1 PKT      0.635100
      7 O07         1.1270    2.2040    1.1300 o         1 PKT     -0.456000
      8 N08         2.1890    3.0920   -0.8360 ny        1 PKT     -0.645800
      9 C09         2.2720    4.4630   -0.2150 c3        1 PKT      0.155500
     10 C10         3.0010    4.4940    1.1190 c3        1 PKT     -0.054300
     11 S11         4.6840    4.0110    0.8350 ss        1 PKT     -0.287200
     12 C12         5.2660    3.4520    2.4060 c3        1 PKT     -0.021300
     13 C13         6.3610    4.3720    2.9030 c3        1 PKT     -0.142400
     14 C14         7.0270    3.7810    4.1150 c         1 PKT      0.534100
     15 O15         6.7220    2.7600    4.7110 o         1 PKT     -0.397100
     16 N16         8.2160    4.5310    4.6640 ny        1 PKT     -0.688800
     17 C17         7.8120    5.4770    5.7720 c3        1 PKT      0.196100
     18 C18         9.0050    6.0790    6.4120 ca        1 PKT     -0.335600
     19 C19         9.4460    7.3680    6.0710 ca        1 PKT     -0.055000
     20 C20        10.5390    7.9040    6.7450 ca        1 PKT     -0.231300
     21 C21        11.1630    7.1270    7.7460 ca        1 PKT      0.463200
     22 N22        10.7500    5.8900    8.0850 nb        1 PKT     -0.633000
     23 C23         9.6900    5.3840    7.4340 ca        1 PKT      0.439200
     24 C24         0.8710    5.1000   -0.0860 c3        1 PKT     -0.005200
     25 C25         0.2400    5.2460   -1.3980 cc        1 PKT     -0.259400
     26 C26         0.2380    6.4020   -2.1950 cd        1 PKT     -0.041100
     27 N27        -0.4810    6.1800   -3.3570 na        1 PKT     -0.160400
     28 C28        -0.9950    4.8770   -3.3220 ca        1 PKT     -0.046200
     29 C29        -1.8020    4.1860   -4.2420 ca        1 PKT     -0.107000
     30 C30        -2.1780    2.8920   -3.9210 ca        1 PKT     -0.102000
     31 C31        -1.7780    2.2860   -2.7150 ca        1 PKT     -0.117000
     32 C32        -0.9770    2.9540   -1.8020 ca        1 PKT     -0.152000
     33 C33        -0.5580    4.2560   -2.0920 ca        1 PKT     -0.111800
     34 H01        -0.5990    0.5720    0.8590 hc        1 PKT      0.072700
     35 H01A       -0.8420   -1.1560    0.3610 hc        1 PKT      0.072700
     36 H01B       -0.7860    0.1460   -0.9030 hc        1 PKT      0.072700
     37 H03         2.8930   -0.7650    1.1830 hc        1 PKT      0.072700
     38 H03A        1.4160   -1.7140    1.6420 hc        1 PKT      0.072700
     39 H03B        1.5180    0.0490    2.0580 hc        1 PKT      0.072700
     40 H04         1.0490   -1.1320   -2.0920 hc        1 PKT      0.072700
     41 H04A        1.0660   -2.4120   -0.7980 hc        1 PKT      0.072700
     42 H04B        2.5940   -1.5140   -1.2150 hc        1 PKT      0.072700
     43 HN08        1.5710    3.1670   -1.6700 hn        1 PKT      0.486800
     44 H09         2.8660    5.0740   -0.9690 hx        1 PKT      0.111700
     45 H10         2.9620    5.5470    1.5010 h1        1 PKT      0.114200
     46 H10A        2.5020    3.8440    1.8810 h1        1 PKT      0.114200
     47 H12         4.4390    3.3810    3.1550 h1        1 PKT      0.107700
     48 H12A        5.6750    2.4180    2.2590 h1        1 PKT      0.107700
     49 H13         5.9380    5.3790    3.1750 hc        1 PKT      0.111700
     50 H13A        7.1250    4.5280    2.0900 hc        1 PKT      0.111700
     51 HN16        8.8930    3.8580    5.0540 hn        1 PKT      0.464300
     52 H17         7.2180    4.8720    6.5190 hx        1 PKT      0.109200
     53 H17A        7.1480    6.2650    5.3170 hx        1 PKT      0.109200
     54 H19         8.9290    7.9540    5.2960 ha        1 PKT      0.144000
     55 H20        10.9120    8.9140    6.5150 ha        1 PKT      0.179000
     56 H21        12.0360    7.5150    8.3110 h4        1 PKT      0.064100
     57 H23         9.3670    4.3770    7.7600 h4        1 PKT      0.033100
     58 H24         1.0100    6.1050    0.3980 hc        1 PKT      0.091700
     59 H24A        0.2330    4.4750    0.5990 hc        1 PKT      0.091700
     60 H26         0.7030    7.3730   -1.9990 h4        1 PKT      0.181000
     61 HN27       -0.6860    6.8530   -4.0520 hn        1 PKT      0.324700
     62 H29        -2.1330    4.6610   -5.1770 ha        1 PKT      0.160000
     63 H30        -2.8180    2.3250   -4.6170 ha        1 PKT      0.159000
     64 H31        -2.1270    1.2650   -2.4930 ha        1 PKT      0.144000
     65 H32        -0.7160    2.4860   -0.8410 ha        1 PKT      0.114000
     66 H082        3.1300    2.7960   -1.1320 hn        1 PKT      0.486800
     67 H162        8.6810    5.0580    3.9190 hn        1 PKT      0.464300
@<TRIPOS>BOND
     1    1    2 1   
     2    1   34 1   
     3    1   35 1   
     4    1   36 1   
     5    2    3 1   
     6    2    4 1   
     7    2    5 1   
     8    3   37 1   
     9    3   38 1   
    10    3   39 1   
    11    4   40 1   
    12    4   41 1   
    13    4   42 1   
    14    5    6 1   
    15    6    7 2   
    16    6    8 1   
    17    8    9 1   
    18    8   43 1   
    19    8   66 1   
    20    9   10 1   
    21    9   24 1   
    22    9   44 1   
    23   10   11 1   
    24   10   45 1   
    25   10   46 1   
    26   11   12 1   
    27   12   13 1   
    28   12   47 1   
    29   12   48 1   
    30   13   14 1   
    31   13   49 1   
    32   13   50 1   
    33   14   15 2   
    34   14   16 1   
    35   16   17 1   
    36   16   51 1   
    37   16   67 1   
    38   17   18 1   
    39   17   52 1   
    40   17   53 1   
    41   18   19 ar  
    42   18   23 ar  
    43   19   20 ar  
    44   19   54 1   
    45   20   21 ar  
    46   20   55 1   
    47   21   22 ar  
    48   21   56 1   
    49   22   23 ar  
    50   23   57 1   
    51   24   25 1   
    52   24   58 1   
    53   24   59 1   
    54   25   26 2   
    55   25   33 1   
    56   26   27 1   
    57   26   60 1   
    58   27   28 1   
    59   27   61 1   
    60   28   29 ar  
    61   28   33 ar  
    62   29   30 ar  
    63   29   62 1   
    64   30   31 ar  
    65   30   63 1   
    66   31   32 ar  
    67   31   64 1   
    68   32   33 ar  
    69   32   65 1   
@<TRIPOS>SUBSTRUCTURE
     1 PKT         1 TEMP              0 ****  ****    0 ROOT
