@<TRIPOS>MOLECULE
PKT
   67    69     1     0     0
SMALL
bcc


@<TRIPOS>ATOM
      1 C01        -0.3670   -0.1800    0.0730 c3        1 PKT     -0.129767
      2 C02         1.1260   -0.3970   -0.0310 c3        1 PKT      0.201800
      3 C03         1.7670   -0.7110    1.3030 c3        1 PKT     -0.129767
      4 C04         1.4810   -1.4270   -1.0920 c3        1 PKT     -0.129767
      5 O05         1.7620    0.8320   -0.6010 os        1 PKT     -0.426900
      6 C06         1.6200    2.0050    0.0240 c         1 PKT      0.635100
      7 O07         1.1220    2.2130    1.1240 o         1 PKT     -0.456000
      8 N08         2.1990    3.0860   -0.8420 n4        1 PKT     -0.645800
      9 C09         2.2830    4.4600   -0.2270 c3        1 PKT      0.155500
     10 C10         3.0050    4.4960    1.1100 c3        1 PKT     -0.054300
     11 S11         4.6880    4.0050    0.8390 ss        1 PKT     -0.287200
     12 C12         5.2590    3.4520    2.4160 c3        1 PKT     -0.021300
     13 C13         6.3530    4.3710    2.9150 c3        1 PKT     -0.142400
     14 C14         7.0110    3.7830    4.1340 c         1 PKT      0.534100
     15 O15         6.6990    2.7650    4.7320 o         1 PKT     -0.397100
     16 N16         8.1980    4.5320    4.6860 n4        1 PKT     -0.688800
     17 C17         7.7920    5.4810    5.7900 c3        1 PKT      0.196100
     18 C18         8.9820    6.0820    6.4340 ca        1 PKT     -0.335600
     19 C19         9.4260    7.3700    6.0930 ca        1 PKT     -0.055000
     20 C20        10.5170    7.9060    6.7710 ca        1 PKT     -0.231300
     21 C21        11.1360    7.1300    7.7760 ca        1 PKT      0.463200
     22 N22        10.7210    5.8930    8.1140 nb        1 PKT     -0.633000
     23 C23         9.6620    5.3880    7.4600 ca        1 PKT      0.439200
     24 C24         0.8840    5.1030   -0.1090 c3        1 PKT     -0.005200
     25 C25         0.2610    5.2440   -1.4260 cc        1 PKT     -0.259400
     26 C26         0.2680    6.3960   -2.2280 cd        1 PKT     -0.041100
     27 N27        -0.4470    6.1700   -3.3930 na        1 PKT     -0.160400
     28 C28        -0.9650    4.8690   -3.3540 ca        1 PKT     -0.046200
     29 C29        -1.7700    4.1760   -4.2740 ca        1 PKT     -0.107000
     30 C30        -2.1530    2.8850   -3.9490 ca        1 PKT     -0.102000
     31 C31        -1.7610    2.2840   -2.7360 ca        1 PKT     -0.117000
     32 C32        -0.9630    2.9550   -1.8230 ca        1 PKT     -0.152000
     33 C33        -0.5380    4.2540   -2.1180 ca        1 PKT     -0.111800
     34 H01        -0.7870    0.1510   -0.9080 hc        1 PKT      0.072700
     35 H01A       -0.8550   -1.1450    0.3620 hc        1 PKT      0.072700
     36 H01B       -0.6080    0.5850    0.8520 hc        1 PKT      0.072700
     37 H03         2.8780   -0.7620    1.2020 hc        1 PKT      0.072700
     38 H03A        1.3950   -1.7040    1.6580 hc        1 PKT      0.072700
     39 H03B        1.5000    0.0610    2.0650 hc        1 PKT      0.072700
     40 H04         2.5880   -1.5230   -1.1940 hc        1 PKT      0.072700
     41 H04A        1.0490   -1.1410   -2.0800 hc        1 PKT      0.072700
     42 H04B        1.0560   -2.4130   -0.7800 hc        1 PKT      0.072700
     43 HN08        3.1390    2.7860   -1.1300 hn        1 PKT      0.486800
     44 H09         2.8830    5.0650   -0.9810 hx        1 PKT      0.111700
     45 H10         2.9680    5.5510    1.4860 h1        1 PKT      0.114200
     46 H10A        2.4990    3.8520    1.8740 h1        1 PKT      0.114200
     47 H12         5.6650    2.4150    2.2760 h1        1 PKT      0.107700
     48 H12A        4.4270    3.3860    3.1600 h1        1 PKT      0.107700
     49 H13         7.1220    4.5210    2.1060 hc        1 PKT      0.111700
     50 H13A        5.9310    5.3800    3.1800 hc        1 PKT      0.111700
     51 HN16        8.6680    5.0570    3.9420 hn        1 PKT      0.464300
     52 H17         7.1300    6.2690    5.3310 hx        1 PKT      0.109200
     53 H17A        7.1930    4.8780    6.5360 hx        1 PKT      0.109200
     54 H19         8.9120    7.9570    5.3160 ha        1 PKT      0.144000
     55 H20        10.8920    8.9150    6.5420 ha        1 PKT      0.179000
     56 H21        12.0070    7.5180    8.3430 h4        1 PKT      0.064100
     57 H23         9.3370    4.3810    7.7860 h4        1 PKT      0.033100
     58 H24         1.0240    6.1110    0.3700 hc        1 PKT      0.091700
     59 H24A        0.2400    4.4840    0.5750 hc        1 PKT      0.091700
     60 H26         0.7350    7.3660   -2.0360 h4        1 PKT      0.181000
     61 HN27       -0.6450    6.8400   -4.0930 hn        1 PKT      0.324700
     62 H29        -2.0940    4.6480   -5.2140 ha        1 PKT      0.160000
     63 H30        -2.7910    2.3170   -4.6450 ha        1 PKT      0.159000
     64 H31        -2.1160    1.2660   -2.5110 ha        1 PKT      0.144000
     65 H32        -0.7090    2.4910   -0.8580 ha        1 PKT      0.114000
     66 H082        1.5860    3.1590   -1.6790 hn        1 PKT      0.486800
     67 H162        8.8730    3.8590    5.0800 hn        1 PKT      0.464300
@<TRIPOS>BOND
     1    1    2 1   
     2    1   34 1   
     3    1   35 1   
     4    1   36 1   
     5    2    3 1   
     6    2    4 1   
     7    2    5 1   
     8    3   37 1   
     9    3   38 1   
    10    3   39 1   
    11    4   40 1   
    12    4   41 1   
    13    4   42 1   
    14    5    6 1   
    15    6    7 2   
    16    6    8 1   
    17    8    9 1   
    18    8   43 1   
    19    8   66 1   
    20    9   10 1   
    21    9   24 1   
    22    9   44 1   
    23   10   11 1   
    24   10   45 1   
    25   10   46 1   
    26   11   12 1   
    27   12   13 1   
    28   12   47 1   
    29   12   48 1   
    30   13   14 1   
    31   13   49 1   
    32   13   50 1   
    33   14   15 2   
    34   14   16 1   
    35   16   17 1   
    36   16   51 1   
    37   16   67 1   
    38   17   18 1   
    39   17   52 1   
    40   17   53 1   
    41   18   19 ar  
    42   18   23 ar  
    43   19   20 ar  
    44   19   54 1   
    45   20   21 ar  
    46   20   55 1   
    47   21   22 ar  
    48   21   56 1   
    49   22   23 ar  
    50   23   57 1   
    51   24   25 1   
    52   24   58 1   
    53   24   59 1   
    54   25   26 2   
    55   25   33 1   
    56   26   27 1   
    57   26   60 1   
    58   27   28 1   
    59   27   61 1   
    60   28   29 ar  
    61   28   33 ar  
    62   29   30 ar  
    63   29   62 1   
    64   30   31 ar  
    65   30   63 1   
    66   31   32 ar  
    67   31   64 1   
    68   32   33 ar  
    69   32   65 1   
@<TRIPOS>SUBSTRUCTURE
     1 PKT         1 TEMP              0 ****  ****    0 ROOT
