@<TRIPOS>MOLECULE
PL0
   20    20     1     0     0
SMALL
bcc


@<TRIPOS>ATOM
      1 C2         -0.0410   -0.0680    0.0350 ca        1 PL0     -0.101000
      2 C3          1.3520   -0.1370    0.0170 ca        1 PL0     -0.099500
      3 C4          2.0800   -0.0420    1.2010 ca        1 PL0     -0.136000
      4 C5          1.4030    0.1390    2.4250 ca        1 PL0      0.041600
      5 C6         -0.0040    0.2070    2.4400 ca        1 PL0     -0.136000
      6 C1         -0.7130    0.1020    1.2460 ca        1 PL0     -0.099500
      7 C7          1.8180   -0.5250    4.7120 c2        1 PL0      0.680100
      8 N1          2.1460    0.3410    3.6270 nu        1 PL0     -0.697600
      9 N2          2.2550    0.0620    6.0500 nz        1 PL0     -0.819600
     10 N3          1.1520   -1.6210    4.8110 n2        1 PL0     -0.748100
     11 H2         -0.6100   -0.1460   -0.9060 ha        1 PL0      0.162000
     12 H3          1.8860   -0.2670   -0.9380 ha        1 PL0      0.160000
     13 H4          3.1790   -0.0930    1.1620 ha        1 PL0      0.142000
     14 H6         -0.5530    0.3610    3.3810 ha        1 PL0      0.142000
     15 H1         -1.8130    0.1610    1.2620 ha        1 PL0      0.160000
     16 HN1         3.1330    0.4400    3.4690 hn        1 PL0      0.431800
     17 HN21        3.2760    0.1050    6.0880 hn        1 PL0      0.476467
     18 HN22        1.8680    1.0090    6.1400 hn        1 PL0      0.476467
     19 HN3         0.8380   -2.0660    3.9710 hn        1 PL0      0.489400
     20 H23         1.9090   -0.5240    6.8220 hn        1 PL0      0.476467
@<TRIPOS>BOND
     1    1    2 ar  
     2    1    6 ar  
     3    1   11 1   
     4    2    3 ar  
     5    2   12 1   
     6    3    4 ar  
     7    3   13 1   
     8    4    5 ar  
     9    4    8 1   
    10    5    6 ar  
    11    5   14 1   
    12    6   15 1   
    13    7    8 1   
    14    7    9 1   
    15    7   10 2   
    16    8   16 1   
    17    9   17 1   
    18    9   18 1   
    19    9   20 1   
    20   10   19 1   
@<TRIPOS>SUBSTRUCTURE
     1 PL0         1 TEMP              0 ****  ****    0 ROOT
