@<TRIPOS>MOLECULE
PL0
   20    20     1     0     0
SMALL
bcc


@<TRIPOS>ATOM
      1 C2         -0.0420   -0.0870    0.0350 ca        1 PL0     -0.101000
      2 C3          1.3510   -0.1560    0.0170 ca        1 PL0     -0.099500
      3 C4          2.0790   -0.0540    1.2000 ca        1 PL0     -0.136000
      4 C5          1.4030    0.1360    2.4230 ca        1 PL0      0.041600
      5 C6         -0.0040    0.2050    2.4380 ca        1 PL0     -0.136000
      6 C1         -0.7130    0.0920    1.2440 ca        1 PL0     -0.099500
      7 C7          1.8170   -0.5120    4.7140 c2        1 PL0      0.680100
      8 N1          2.1470    0.3450    3.6240 nh        1 PL0     -0.697600
      9 N2          2.2570    0.0830    6.0480 n4        1 PL0     -0.820600
     10 N3          1.1490   -1.6070    4.8210 n2        1 PL0     -0.748100
     11 H2         -0.6100   -0.1710   -0.9050 ha        1 PL0      0.162000
     12 H3          1.8850   -0.2940   -0.9370 ha        1 PL0      0.160000
     13 H4          3.1790   -0.1060    1.1620 ha        1 PL0      0.142000
     14 H6         -0.5530    0.3660    3.3780 ha        1 PL0      0.142000
     15 H1         -1.8130    0.1520    1.2600 ha        1 PL0      0.160000
     16 HN1         3.1330    0.4430    3.4650 hn        1 PL0      0.431800
     17 HN21        3.2790    0.1230    6.0850 hn        1 PL0      0.476467
     18 HN22        1.8730    1.0320    6.1320 hn        1 PL0      0.476467
     19 HN3         0.8340   -2.0560    3.9850 hn        1 PL0      0.489400
     20 H23         1.9110   -0.4970    6.8240 hn        1 PL0      0.476467
@<TRIPOS>BOND
     1    1    2 ar  
     2    1    6 ar  
     3    1   11 1   
     4    2    3 ar  
     5    2   12 1   
     6    3    4 ar  
     7    3   13 1   
     8    4    5 ar  
     9    4    8 1   
    10    5    6 ar  
    11    5   14 1   
    12    6   15 1   
    13    7    8 1   
    14    7    9 1   
    15    7   10 2   
    16    8   16 1   
    17    9   17 1   
    18    9   18 1   
    19    9   20 1   
    20   10   19 1   
@<TRIPOS>SUBSTRUCTURE
     1 PL0         1 TEMP              0 ****  ****    0 ROOT
