@<TRIPOS>MOLECULE
PL0
   19    19     1     0     0
SMALL
bcc


@<TRIPOS>ATOM
      1 C2          1.9600   -0.8750   -0.0930 ca        1 PL0     -0.145000
      2 C3          0.8850   -0.3390    0.6160 ca        1 PL0     -0.108500
      3 C4          0.7830   -0.5230    1.9900 ca        1 PL0     -0.158500
      4 C5          1.7630   -1.2670    2.6870 ca        1 PL0      0.114600
      5 C6          2.8410   -1.8140    1.9570 ca        1 PL0     -0.158500
      6 C1          2.9310   -1.6100    0.5830 ca        1 PL0     -0.108500
      7 C7          2.6670   -1.1410    4.9770 c2        1 PL0      0.752100
      8 N1          1.6140   -1.5340    4.0660 nh        1 PL0     -0.730600
      9 N2          2.3120   -1.3060    6.3600 nh        1 PL0     -0.880800
     10 N3          3.8440   -0.6680    4.6660 n2        1 PL0     -0.870100
     11 H2          2.0380   -0.7200   -1.1790 ha        1 PL0      0.135000
     12 H3          0.1120    0.2390    0.0870 ha        1 PL0      0.134500
     13 H4         -0.0720   -0.0880    2.5300 ha        1 PL0      0.139000
     14 H6          3.6060   -2.4220    2.4650 ha        1 PL0      0.139000
     15 H1          3.7790   -2.0410    0.0290 ha        1 PL0      0.134500
     16 HN1         0.6930   -1.3340    4.4040 hn        1 PL0      0.416800
     17 HN21        1.9100   -2.2020    6.5460 hn        1 PL0      0.394800
     18 HN22        3.0820   -1.1180    6.9710 hn        1 PL0      0.394800
     19 HN3         3.9990   -0.4610    3.7040 hn        1 PL0      0.405400
@<TRIPOS>BOND
     1    1    2 ar  
     2    1    6 ar  
     3    1   11 1   
     4    2    3 ar  
     5    2   12 1   
     6    3    4 ar  
     7    3   13 1   
     8    4    5 ar  
     9    4    8 1   
    10    5    6 ar  
    11    5   14 1   
    12    6   15 1   
    13    7    8 1   
    14    7    9 1   
    15    7   10 2   
    16    8   16 1   
    17    9   17 1   
    18    9   18 1   
    19   10   19 1   
@<TRIPOS>SUBSTRUCTURE
     1 PL0         1 TEMP              0 ****  ****    0 ROOT
