@<TRIPOS>MOLECULE
PL0
   21    21     1     0     0
SMALL
bcc


@<TRIPOS>ATOM
      1 C2          0.0050   -0.2430    0.0190 ca        1 PL0     -0.022000
      2 C3          1.3560   -0.5610    0.1890 ca        1 PL0     -0.091000
      3 C4          1.9940   -0.3180    1.4020 ca        1 PL0     -0.094000
      4 C5          1.2520    0.2570    2.4550 ca        1 PL0     -0.140400
      5 C6         -0.1120    0.5770    2.2970 ca        1 PL0     -0.094000
      6 C1         -0.7220    0.3220    1.0720 ca        1 PL0     -0.091000
      7 C7          1.8710   -0.5350    4.7020 c2        1 PL0      0.578100
      8 N1          1.9340    0.6080    3.7080 n4        1 PL0     -0.621400
      9 N2          2.5460   -0.2610    6.0180 n4        1 PL0     -0.819600
     10 N3          1.3230   -1.6750    4.5510 n2        1 PL0     -0.579100
     11 H2         -0.4900   -0.4340   -0.9540 ha        1 PL0      0.203000
     12 H3          1.9310   -1.0020   -0.6480 ha        1 PL0      0.201000
     13 H4          3.0650   -0.5610    1.5060 ha        1 PL0      0.166000
     14 H6         -0.7020    1.0390    3.1060 ha        1 PL0      0.166000
     15 H1         -1.7900    0.5790    0.9330 ha        1 PL0      0.201000
     16 HN1         1.4730    1.4430    4.1040 hn        1 PL0      0.484800
     17 HN21        3.5510   -0.0780    5.8790 hn        1 PL0      0.507800
     18 HN22        2.4530   -1.0970    6.6350 hn        1 PL0      0.507800
     19 HN3         0.8470   -1.9520    3.7080 hn        1 PL0      0.541400
     20 H12         2.9190    0.8290    3.4890 hn        1 PL0      0.484800
     21 H23         2.1020    0.5370    6.4950 hn        1 PL0      0.507800
@<TRIPOS>BOND
     1    1    2 ar  
     2    1    6 ar  
     3    1   11 1   
     4    2    3 ar  
     5    2   12 1   
     6    3    4 ar  
     7    3   13 1   
     8    4    5 ar  
     9    4    8 1   
    10    5    6 ar  
    11    5   14 1   
    12    6   15 1   
    13    7    8 1   
    14    7    9 1   
    15    7   10 2   
    16    8   16 1   
    17    8   20 1   
    18    9   17 1   
    19    9   18 1   
    20    9   21 1   
    21   10   19 1   
@<TRIPOS>SUBSTRUCTURE
     1 PL0         1 TEMP              0 ****  ****    0 ROOT
