@<TRIPOS>MOLECULE
PL2
   46    46     1     0     0
SMALL
bcc


@<TRIPOS>ATOM
      1 N1          3.9170   -4.2420   -0.8110 nb        1 PL2     -0.683000
      2 C2          4.4650   -3.6370   -1.8910 ca        1 PL2      0.316600
      3 C2A         5.9430   -3.4520   -1.9780 c3        1 PL2     -0.113400
      4 C3          3.6570   -3.1830   -2.9670 ca        1 PL2      0.010800
      5 O3          4.3400   -2.6110   -4.0190 oh        1 PL2     -0.538100
      6 C4          2.2550   -3.3500   -2.9420 ca        1 PL2     -0.074300
      7 C4A         1.4140   -2.9680   -4.1250 c3        1 PL2      0.121100
      8 C5          1.6940   -3.9580   -1.8090 ca        1 PL2     -0.125600
      9 C6          2.5840   -4.3840   -0.7900 ca        1 PL2      0.329200
     10 P          -2.0270   -4.0280   -2.9210 p5        1 PL2      1.341900
     11 N           1.5430   -1.5700   -4.5380 n3        1 PL2     -0.827200
     12 CA          0.4630   -0.7180   -4.0460 c3        1 PL2      0.131800
     13 CG         -0.9460   -0.5660   -2.0000 c3        1 PL2     -0.128400
     14 OP2        -2.8350   -5.2010   -3.3660 o         1 PL2     -0.922167
     15 OP3        -1.6240   -3.0040   -3.9540 o         1 PL2     -0.922167
     16 OP1        -2.3790   -3.3760   -1.6030 o         1 PL2     -0.922167
     17 OP4        -0.4760   -4.7260   -2.5650 os        1 PL2     -0.562200
     18 C5M         0.2150   -4.1330   -1.5430 c3        1 PL2      0.255700
     19 CB          0.4680   -0.4870   -2.5340 c3        1 PL2     -0.056400
     20 CD         -0.9570   -0.5100   -0.4720 c3        1 PL2      0.211800
     21 NE         -2.1980   -0.9980    0.0840 nh        1 PL2     -0.844200
     22 CZ         -2.3100   -1.1830    1.4870 c2        1 PL2      0.756100
     23 NH2        -3.2950   -1.8250    2.0870 n2        1 PL2     -0.952100
     24 NH1        -1.3630   -0.4910    2.3350 nh        1 PL2     -0.889800
     25 H2A1        6.3630   -4.1750   -2.7210 hc        1 PL2      0.027700
     26 H2A2        6.1640   -2.4170   -2.3380 hc        1 PL2      0.027700
     27 H2A3        6.4490   -3.6130   -0.9970 hc        1 PL2      0.027700
     28 HO3         3.7050   -2.1040   -4.5460 ho        1 PL2      0.441000
     29 H4A1        1.7550   -3.6240   -4.9790 h1        1 PL2      0.107700
     30 H4A2        0.3130   -3.2390   -3.9150 h1        1 PL2      0.107700
     31 H6          2.1810   -4.8810    0.1100 h4        1 PL2      0.006100
     32 HN          1.4740   -1.5570   -5.5430 hn        1 PL2      0.324800
     33 HA1        -0.5460   -1.1590   -4.3340 h1        1 PL2      0.057700
     34 HA2         0.5800    0.2790   -4.5610 h1        1 PL2      0.057700
     35 HG1        -1.4180   -1.5440   -2.3640 hc        1 PL2      0.096700
     36 HG2        -1.5610    0.2730   -2.4120 hc        1 PL2      0.096700
     37 H5M1        0.1270   -4.7640   -0.6030 h1        1 PL2      0.013700
     38 H5M2       -0.2090   -3.1070   -1.3110 h1        1 PL2      0.013700
     39 HB1         0.9230    0.5110   -2.3030 hc        1 PL2      0.020200
     40 HB2         1.0960   -1.2640   -2.0200 hc        1 PL2      0.020200
     41 HD1        -0.8040    0.5570   -0.1370 h1        1 PL2      0.000200
     42 HD2        -0.0730   -1.1070   -0.0930 h1        1 PL2      0.000200
     43 HNE        -2.5790   -1.7750   -0.4640 hn        1 PL2      0.506800
     44 HNH2       -3.9450   -2.2560    1.4670 hn        1 PL2      0.398400
     45 HH11       -0.4250   -0.6270    2.0150 hn        1 PL2      0.365300
     46 HH12       -1.4480   -0.7760    3.2890 hn        1 PL2      0.365300
@<TRIPOS>BOND
     1    1    2 ar  
     2    1    9 ar  
     3    2    3 1   
     4    2    4 ar  
     5    3   25 1   
     6    3   26 1   
     7    3   27 1   
     8    4    5 1   
     9    4    6 ar  
    10    5   28 1   
    11    6    7 1   
    12    6    8 ar  
    13    7   11 1   
    14    7   29 1   
    15    7   30 1   
    16    8    9 ar  
    17    8   18 1   
    18    9   31 1   
    19   10   14 1   
    20   10   15 1   
    21   10   16 1   
    22   10   17 1   
    23   11   12 1   
    24   11   32 1   
    25   12   19 1   
    26   12   33 1   
    27   12   34 1   
    28   13   19 1   
    29   13   20 1   
    30   13   35 1   
    31   13   36 1   
    32   17   18 1   
    33   18   37 1   
    34   18   38 1   
    35   19   39 1   
    36   19   40 1   
    37   20   21 1   
    38   20   41 1   
    39   20   42 1   
    40   21   22 1   
    41   21   43 1   
    42   22   23 2   
    43   22   24 1   
    44   23   44 1   
    45   24   45 1   
    46   24   46 1   
@<TRIPOS>SUBSTRUCTURE
     1 PL2         1 TEMP              0 ****  ****    0 ROOT
