@<TRIPOS>MOLECULE
PL2
   49    49     1     0     0
SMALL
bcc


@<TRIPOS>ATOM
      1 N1          0.0000    0.0000    0.0000 nb        1 PL2     -0.511000
      2 C2          1.3510    0.0000    0.0000 ca        1 PL2      0.353600
      3 C2A         2.0040   -0.0010   -1.3440 c3        1 PL2     -0.050400
      4 C3          2.1270    0.0000    1.1480 ca        1 PL2      0.028800
      5 O3          3.4850   -0.0010    1.0780 oh        1 PL2     -0.510100
      6 C4          1.4710   -0.0000    2.3700 ca        1 PL2     -0.177300
      7 C4A         2.2650   -0.0000    3.6430 c3        1 PL2      0.029100
      8 C5          0.0840    0.0010    2.4170 ca        1 PL2     -0.167600
      9 C6         -0.6010    0.0010    1.2110 ca        1 PL2      0.428200
     10 P          -1.7140    1.5900    5.4900 p5        1 PL2      0.843900
     11 N           2.5530   -1.3520    4.1060 ny        1 PL2      0.053000
     12 CA          3.3140   -1.3280    5.3470 c3        1 PL2     -0.041200
     13 CG          4.5070   -2.7160    7.1010 c3        1 PL2     -0.009400
     14 OP2        -1.9260    3.0320    5.8520 o         1 PL2     -0.364833
     15 OP3        -3.0690    0.7360    5.2690 o         1 PL2     -0.364833
     16 OP1        -0.8970    0.7170    6.5770 o         1 PL2     -0.364833
     17 OP4        -0.9070    1.3420    4.1110 os        1 PL2     -0.475200
     18 C5M        -0.6690    0.0010    3.7010 c3        1 PL2      0.343700
     19 CB          3.6820   -2.7310    5.8090 c3        1 PL2     -0.020400
     20 CD          4.8640   -4.1190    7.5820 c3        1 PL2     -0.047200
     21 NE          5.6550   -4.1020    8.7820 ny        1 PL2      0.294000
     22 CZ          6.1320   -5.1930    9.4860 c2        1 PL2     -0.401900
     23 NH2         5.8200   -6.4350    8.9890 n2        1 PL2     -0.919100
     24 NH1         6.8440   -5.0470   10.5720 nz        1 PL2      0.415400
     25 H2A1        1.2460   -0.0910   -2.1130 hc        1 PL2      0.027367
     26 H2A2        2.6890   -0.8370   -1.4130 hc        1 PL2      0.027367
     27 H2A3        2.5490    0.9250   -1.4810 hc        1 PL2      0.027367
     28 HO3         3.7900    0.8690    0.8840 ho        1 PL2      0.429000
     29 H4A1        1.7030    0.5220    4.4080 hx        1 PL2      0.092700
     30 H4A2        3.2000    0.5210    3.4750 hx        1 PL2      0.092700
     31 H6         -1.6840    0.0020    1.2410 h4        1 PL2      0.004100
     32 HN          3.0820   -1.8330    3.4060 hn        1 PL2      0.242800
     33 HA1         4.2220   -0.7570    5.1940 hx        1 PL2      0.084700
     34 HA2         2.7200   -0.8470    6.1150 hx        1 PL2      0.084700
     35 HG1         5.4210   -2.1620    6.9260 hc        1 PL2      0.032700
     36 HG2         3.9370   -2.2150    7.8750 hc        1 PL2      0.032700
     37 H5M1       -1.6150   -0.5090    3.5660 h1        1 PL2     -0.012300
     38 H5M2       -0.0880   -0.5110    4.4600 h1        1 PL2     -0.012300
     39 HB1         4.2570   -3.2180    5.0310 hc        1 PL2      0.038200
     40 HB2         2.7720   -3.2950    5.9800 hc        1 PL2      0.038200
     41 HD1         5.4210   -4.6250    6.8030 hx        1 PL2      0.083700
     42 HD2         3.9490   -4.6670    7.7730 hx        1 PL2      0.083700
     43 HNE         6.4690   -3.5690    8.5480 hn        1 PL2      0.126800
     44 HNH2        5.2730   -6.5180    8.1550 hn        1 PL2      0.316400
     45 HH11        7.8080   -5.2140   10.3630 hn        1 PL2      0.142133
     46 HH12        6.7350   -4.1150   10.9200 hn        1 PL2      0.142133
     47 HN3         1.6910   -1.8370    4.2590 hn        1 PL2      0.242800
     48 HE3         5.1110   -3.5830    9.4430 hn        1 PL2      0.126800
     49 HH13        6.5330   -5.6980   11.2650 hn        1 PL2      0.142133
@<TRIPOS>BOND
     1    1    2 ar  
     2    1    9 ar  
     3    2    3 1   
     4    2    4 ar  
     5    3   25 1   
     6    3   26 1   
     7    3   27 1   
     8    4    5 1   
     9    4    6 ar  
    10    5   28 1   
    11    6    7 1   
    12    6    8 ar  
    13    7   11 1   
    14    7   29 1   
    15    7   30 1   
    16    8    9 ar  
    17    8   18 1   
    18    9   31 1   
    19   10   14 1   
    20   10   15 1   
    21   10   16 1   
    22   10   17 1   
    23   11   12 1   
    24   11   32 1   
    25   11   47 1   
    26   12   19 1   
    27   12   33 1   
    28   12   34 1   
    29   13   19 1   
    30   13   20 1   
    31   13   35 1   
    32   13   36 1   
    33   17   18 1   
    34   18   37 1   
    35   18   38 1   
    36   19   39 1   
    37   19   40 1   
    38   20   21 1   
    39   20   41 1   
    40   20   42 1   
    41   21   22 1   
    42   21   43 1   
    43   21   48 1   
    44   22   23 2   
    45   22   24 1   
    46   23   44 1   
    47   24   45 1   
    48   24   46 1   
    49   24   49 1   
@<TRIPOS>SUBSTRUCTURE
     1 PL2         1 TEMP              0 ****  ****    0 ROOT
