@<TRIPOS>MOLECULE
PL3
   51    50     1     0     0
SMALL
bcc


@<TRIPOS>ATOM
      1 C1         11.5890    8.3230    9.0540 c3        1 PL3      0.127400
      2 O1         12.1360    9.6130    9.2570 oh        1 PL3     -0.598800
      3 C2         10.9090    8.2040    7.7010 c3        1 PL3     -0.120400
      4 C3         10.2520    6.8520    7.5430 c3        1 PL3     -0.076400
      5 C4          9.5800    6.7230    6.1930 c3        1 PL3     -0.078400
      6 C5          8.9200    5.3700    6.0360 c3        1 PL3     -0.079400
      7 C6          8.2480    5.2400    4.6860 c3        1 PL3     -0.079400
      8 C7          7.5880    3.8870    4.5290 c3        1 PL3     -0.079400
      9 C8          6.9150    3.7570    3.1790 c3        1 PL3     -0.079400
     10 C9          6.2560    2.4040    3.0220 c3        1 PL3     -0.079400
     11 CA          5.5830    2.2740    1.6720 c3        1 PL3     -0.079400
     12 CB          4.9230    0.9210    1.5140 c3        1 PL3     -0.079400
     13 CC          4.2510    0.7910    0.1640 c3        1 PL3     -0.079400
     14 CD          3.5910   -0.5620    0.0070 c3        1 PL3     -0.079400
     15 CE          2.9190   -0.6920   -1.3430 c3        1 PL3     -0.079400
     16 CF          2.2590   -2.0450   -1.5020 c3        1 PL3     -0.080400
     17 CG          1.5880   -2.1790   -2.8450 c3        1 PL3     -0.092100
     18 H1C1       12.3930    7.5460    9.1560 h1        1 PL3      0.044200
     19 H1C2       10.8480    8.1990    9.8890 h1        1 PL3      0.044200
     20 H2C1       10.1440    9.0180    7.5990 hc        1 PL3      0.047200
     21 H2C2       11.6650    8.3580    6.8870 hc        1 PL3      0.047200
     22 H3C1        9.4940    6.7050    8.3570 hc        1 PL3      0.041200
     23 H3C2       11.0220    6.0430    7.6580 hc        1 PL3      0.041200
     24 H4C1       10.3380    6.8680    5.3790 hc        1 PL3      0.040700
     25 H4C2        8.8110    7.5320    6.0770 hc        1 PL3      0.040700
     26 H5C1        8.1610    5.2240    6.8500 hc        1 PL3      0.040200
     27 H5C2        9.6880    4.5600    6.1530 hc        1 PL3      0.040200
     28 H6C1        9.0060    5.3850    3.8720 hc        1 PL3      0.039700
     29 H6C2        7.4790    6.0490    4.5690 hc        1 PL3      0.039700
     30 H7C1        8.3560    3.0780    4.6460 hc        1 PL3      0.039700
     31 H7C2        6.8290    3.7410    5.3420 hc        1 PL3      0.039700
     32 H8C1        7.6740    3.9030    2.3650 hc        1 PL3      0.039700
     33 H8C2        6.1470    4.5660    3.0620 hc        1 PL3      0.039700
     34 H9C1        7.0240    1.5950    3.1380 hc        1 PL3      0.039700
     35 H9C2        5.4970    2.2580    3.8350 hc        1 PL3      0.039700
     36 HAC1        6.3420    2.4200    0.8580 hc        1 PL3      0.039700
     37 HAC2        4.8140    3.0830    1.5550 hc        1 PL3      0.039700
     38 HBC1        4.1650    0.7750    2.3280 hc        1 PL3      0.039700
     39 HBC2        5.6920    0.1120    1.6310 hc        1 PL3      0.039700
     40 HCC1        3.4820    1.6000    0.0480 hc        1 PL3      0.039700
     41 HCC2        5.0100    0.9370   -0.6490 hc        1 PL3      0.039700
     42 HDC1        4.3600   -1.3710    0.1230 hc        1 PL3      0.039700
     43 HDC2        2.8330   -0.7080    0.8200 hc        1 PL3      0.039700
     44 HEC1        3.6770   -0.5470   -2.1570 hc        1 PL3      0.039700
     45 HEC2        2.1500    0.1170   -1.4600 hc        1 PL3      0.039700
     46 HFC1        3.0290   -2.8530   -1.3830 hc        1 PL3      0.038700
     47 HFC2        1.5020   -2.1900   -0.6860 hc        1 PL3      0.038700
     48 HGC1        1.1080   -3.1830   -2.9410 hc        1 PL3      0.032700
     49 HGC2        0.8000   -1.3980   -2.9710 hc        1 PL3      0.032700
     50 HGC3        2.3310   -2.0630   -3.6700 hc        1 PL3      0.032700
     51 HO         12.7450    9.7840    8.5290 ho        1 PL3      0.396000
@<TRIPOS>BOND
     1    1    2 1   
     2    1    3 1   
     3    1   18 1   
     4    1   19 1   
     5    2   51 1   
     6    3    4 1   
     7    3   20 1   
     8    3   21 1   
     9    4    5 1   
    10    4   22 1   
    11    4   23 1   
    12    5    6 1   
    13    5   24 1   
    14    5   25 1   
    15    6    7 1   
    16    6   26 1   
    17    6   27 1   
    18    7    8 1   
    19    7   28 1   
    20    7   29 1   
    21    8    9 1   
    22    8   30 1   
    23    8   31 1   
    24    9   10 1   
    25    9   32 1   
    26    9   33 1   
    27   10   11 1   
    28   10   34 1   
    29   10   35 1   
    30   11   12 1   
    31   11   36 1   
    32   11   37 1   
    33   12   13 1   
    34   12   38 1   
    35   12   39 1   
    36   13   14 1   
    37   13   40 1   
    38   13   41 1   
    39   14   15 1   
    40   14   42 1   
    41   14   43 1   
    42   15   16 1   
    43   15   44 1   
    44   15   45 1   
    45   16   17 1   
    46   16   46 1   
    47   16   47 1   
    48   17   48 1   
    49   17   49 1   
    50   17   50 1   
@<TRIPOS>SUBSTRUCTURE
     1 PL3         1 TEMP              0 ****  ****    0 ROOT
