@<TRIPOS>MOLECULE
PL3
   51    50     1     0     0
SMALL
bcc


@<TRIPOS>ATOM
      1 C1         -0.1500    0.1290    0.0890 c3        1 PL3      0.131400
      2 O1          1.2680    0.1380    0.1310 oh        1 PL3     -0.601800
      3 C2         -0.6390    0.0810    1.5260 c3        1 PL3     -0.084400
      4 C3         -2.1500    0.0680    1.5740 c3        1 PL3     -0.078400
      5 C4         -2.6500    0.0200    3.0020 c3        1 PL3     -0.078400
      6 C5         -4.1630    0.0060    3.0530 c3        1 PL3     -0.079400
      7 C6         -4.6630   -0.0430    4.4810 c3        1 PL3     -0.079400
      8 C7         -6.1760   -0.0570    4.5330 c3        1 PL3     -0.079400
      9 C8         -6.6760   -0.1070    5.9610 c3        1 PL3     -0.079400
     10 C9         -8.1890   -0.1210    6.0130 c3        1 PL3     -0.079400
     11 CA         -8.6890   -0.1720    7.4410 c3        1 PL3     -0.079400
     12 CB        -10.2010   -0.1860    7.4930 c3        1 PL3     -0.079400
     13 CC        -10.7020   -0.2390    8.9210 c3        1 PL3     -0.079400
     14 CD        -12.2140   -0.2530    8.9730 c3        1 PL3     -0.079400
     15 CE        -12.7140   -0.3060   10.4010 c3        1 PL3     -0.079400
     16 CF        -14.2270   -0.3210   10.4540 c3        1 PL3     -0.080400
     17 CG        -14.7300   -0.3740   11.8740 c3        1 PL3     -0.092100
     18 H1C1       -0.5230    1.0550   -0.4250 h1        1 PL3      0.019700
     19 H1C2       -0.5090   -0.7700   -0.4810 h1        1 PL3      0.019700
     20 H2C1       -0.2400    0.9690    2.0820 hc        1 PL3      0.055700
     21 H2C2       -0.2260   -0.8340    2.0260 hc        1 PL3      0.055700
     22 H3C1       -2.5390   -0.8210    1.0100 hc        1 PL3      0.039700
     23 H3C2       -2.5530    0.9840    1.0650 hc        1 PL3      0.039700
     24 H4C1       -2.2620    0.9080    3.5660 hc        1 PL3      0.041700
     25 H4C2       -2.2480   -0.8960    3.5100 hc        1 PL3      0.041700
     26 H5C1       -4.5510   -0.8820    2.4880 hc        1 PL3      0.039700
     27 H5C2       -4.5650    0.9220    2.5450 hc        1 PL3      0.039700
     28 H6C1       -4.2610   -0.9590    4.9890 hc        1 PL3      0.039700
     29 H6C2       -4.2750    0.8460    5.0460 hc        1 PL3      0.039700
     30 H7C1       -6.5640   -0.9450    3.9680 hc        1 PL3      0.039700
     31 H7C2       -6.5780    0.8600    4.0260 hc        1 PL3      0.039700
     32 H8C1       -6.2740   -1.0230    6.4690 hc        1 PL3      0.039700
     33 H8C2       -6.2880    0.7810    6.5270 hc        1 PL3      0.039700
     34 H9C1       -8.5760   -1.0080    5.4470 hc        1 PL3      0.039700
     35 H9C2       -8.5910    0.7960    5.5070 hc        1 PL3      0.039700
     36 HAC1       -8.3010    0.7160    8.0070 hc        1 PL3      0.039700
     37 HAC2       -8.2860   -1.0890    7.9480 hc        1 PL3      0.039700
     38 HBC1      -10.6040    0.7310    6.9870 hc        1 PL3      0.039700
     39 HBC2      -10.5890   -1.0740    6.9260 hc        1 PL3      0.039700
     40 HCC1      -10.3140    0.6480    9.4880 hc        1 PL3      0.039700
     41 HCC2      -10.2990   -1.1550    9.4270 hc        1 PL3      0.039700
     42 HDC1      -12.6020   -1.1400    8.4060 hc        1 PL3      0.039700
     43 HDC2      -12.6170    0.6640    8.4670 hc        1 PL3      0.039700
     44 HEC1      -12.3270    0.5810   10.9680 hc        1 PL3      0.039700
     45 HEC2      -12.3120   -1.2230   10.9070 hc        1 PL3      0.039700
     46 HFC1      -14.6280    0.5960    9.9470 hc        1 PL3      0.038700
     47 HFC2      -14.6130   -1.2070    9.8850 hc        1 PL3      0.038700
     48 HGC1      -14.3610   -1.2940   12.3890 hc        1 PL3      0.032700
     49 HGC2      -15.8470   -0.3840   11.8910 hc        1 PL3      0.032700
     50 HGC3      -14.3770    0.5150   12.4510 hc        1 PL3      0.032700
     51 HO          1.5700    0.1690   -0.7830 ho        1 PL3      0.398000
@<TRIPOS>BOND
     1    1    2 1   
     2    1    3 1   
     3    1   18 1   
     4    1   19 1   
     5    2   51 1   
     6    3    4 1   
     7    3   20 1   
     8    3   21 1   
     9    4    5 1   
    10    4   22 1   
    11    4   23 1   
    12    5    6 1   
    13    5   24 1   
    14    5   25 1   
    15    6    7 1   
    16    6   26 1   
    17    6   27 1   
    18    7    8 1   
    19    7   28 1   
    20    7   29 1   
    21    8    9 1   
    22    8   30 1   
    23    8   31 1   
    24    9   10 1   
    25    9   32 1   
    26    9   33 1   
    27   10   11 1   
    28   10   34 1   
    29   10   35 1   
    30   11   12 1   
    31   11   36 1   
    32   11   37 1   
    33   12   13 1   
    34   12   38 1   
    35   12   39 1   
    36   13   14 1   
    37   13   40 1   
    38   13   41 1   
    39   14   15 1   
    40   14   42 1   
    41   14   43 1   
    42   15   16 1   
    43   15   44 1   
    44   15   45 1   
    45   16   17 1   
    46   16   46 1   
    47   16   47 1   
    48   17   48 1   
    49   17   49 1   
    50   17   50 1   
@<TRIPOS>SUBSTRUCTURE
     1 PL3         1 TEMP              0 ****  ****    0 ROOT
