@<TRIPOS>MOLECULE
PL3
   51    50     1     0     0
SMALL
bcc


@<TRIPOS>ATOM
      1 C1         -0.1490    0.1330    0.0900 c3        1 PL3      0.131400
      2 O1          1.2690    0.1410    0.1330 oh        1 PL3     -0.601800
      3 C2         -0.6380    0.0810    1.5270 c3        1 PL3     -0.084400
      4 C3         -2.1500    0.0690    1.5740 c3        1 PL3     -0.078400
      5 C4         -2.6500    0.0180    3.0020 c3        1 PL3     -0.078400
      6 C5         -4.1630    0.0060    3.0540 c3        1 PL3     -0.079400
      7 C6         -4.6630   -0.0460    4.4810 c3        1 PL3     -0.079400
      8 C7         -6.1760   -0.0580    4.5330 c3        1 PL3     -0.079400
      9 C8         -6.6760   -0.1110    5.9610 c3        1 PL3     -0.079400
     10 C9         -8.1890   -0.1230    6.0130 c3        1 PL3     -0.079400
     11 CA         -8.6890   -0.1750    7.4410 c3        1 PL3     -0.079400
     12 CB        -10.2020   -0.1880    7.4930 c3        1 PL3     -0.079400
     13 CC        -10.7020   -0.2400    8.9210 c3        1 PL3     -0.079400
     14 CD        -12.2150   -0.2530    8.9730 c3        1 PL3     -0.079400
     15 CE        -12.7150   -0.3050   10.4000 c3        1 PL3     -0.079400
     16 CF        -14.2280   -0.3180   10.4540 c3        1 PL3     -0.080400
     17 CG        -14.7300   -0.3700   11.8740 c3        1 PL3     -0.092100
     18 H1C1       -0.5220    1.0610   -0.4220 h1        1 PL3      0.019700
     19 H1C2       -0.5090   -0.7640   -0.4830 h1        1 PL3      0.019700
     20 H2C1       -0.2390    0.9680    2.0850 hc        1 PL3      0.055700
     21 H2C2       -0.2270   -0.8350    2.0240 hc        1 PL3      0.055700
     22 H3C1       -2.5390   -0.8180    1.0080 hc        1 PL3      0.039700
     23 H3C2       -2.5510    0.9870    1.0680 hc        1 PL3      0.039700
     24 H4C1       -2.2610    0.9050    3.5690 hc        1 PL3      0.041700
     25 H4C2       -2.2490   -0.9000    3.5080 hc        1 PL3      0.041700
     26 H5C1       -4.5520   -0.8810    2.4860 hc        1 PL3      0.039700
     27 H5C2       -4.5640    0.9230    2.5470 hc        1 PL3      0.039700
     28 H6C1       -4.2620   -0.9640    4.9870 hc        1 PL3      0.039700
     29 H6C2       -4.2740    0.8410    5.0480 hc        1 PL3      0.039700
     30 H7C1       -6.5640   -0.9450    3.9660 hc        1 PL3      0.039700
     31 H7C2       -6.5770    0.8590    4.0270 hc        1 PL3      0.039700
     32 H8C1       -6.2750   -1.0280    6.4670 hc        1 PL3      0.039700
     33 H8C2       -6.2870    0.7760    6.5280 hc        1 PL3      0.039700
     34 H9C1       -8.5780   -1.0090    5.4460 hc        1 PL3      0.039700
     35 H9C2       -8.5900    0.7950    5.5070 hc        1 PL3      0.039700
     36 HAC1       -8.3000    0.7110    8.0080 hc        1 PL3      0.039700
     37 HAC2       -8.2880   -1.0930    7.9460 hc        1 PL3      0.039700
     38 HBC1      -10.6030    0.7300    6.9870 hc        1 PL3      0.039700
     39 HBC2      -10.5900   -1.0740    6.9250 hc        1 PL3      0.039700
     40 HCC1      -10.3130    0.6460    9.4880 hc        1 PL3      0.039700
     41 HCC2      -10.3010   -1.1580    9.4260 hc        1 PL3      0.039700
     42 HDC1      -12.6030   -1.1390    8.4050 hc        1 PL3      0.039700
     43 HDC2      -12.6160    0.6650    8.4670 hc        1 PL3      0.039700
     44 HEC1      -12.3260    0.5810   10.9680 hc        1 PL3      0.039700
     45 HEC2      -12.3140   -1.2230   10.9060 hc        1 PL3      0.039700
     46 HFC1      -14.6270    0.6000    9.9470 hc        1 PL3      0.038700
     47 HFC2      -14.6140   -1.2040    9.8840 hc        1 PL3      0.038700
     48 HGC1      -14.3630   -1.2910   12.3880 hc        1 PL3      0.032700
     49 HGC2      -15.8470   -0.3790   11.8900 hc        1 PL3      0.032700
     50 HGC3      -14.3760    0.5170   12.4510 hc        1 PL3      0.032700
     51 HO          1.5710    0.1740   -0.7820 ho        1 PL3      0.398000
@<TRIPOS>BOND
     1    1    2 1   
     2    1    3 1   
     3    1   18 1   
     4    1   19 1   
     5    2   51 1   
     6    3    4 1   
     7    3   20 1   
     8    3   21 1   
     9    4    5 1   
    10    4   22 1   
    11    4   23 1   
    12    5    6 1   
    13    5   24 1   
    14    5   25 1   
    15    6    7 1   
    16    6   26 1   
    17    6   27 1   
    18    7    8 1   
    19    7   28 1   
    20    7   29 1   
    21    8    9 1   
    22    8   30 1   
    23    8   31 1   
    24    9   10 1   
    25    9   32 1   
    26    9   33 1   
    27   10   11 1   
    28   10   34 1   
    29   10   35 1   
    30   11   12 1   
    31   11   36 1   
    32   11   37 1   
    33   12   13 1   
    34   12   38 1   
    35   12   39 1   
    36   13   14 1   
    37   13   40 1   
    38   13   41 1   
    39   14   15 1   
    40   14   42 1   
    41   14   43 1   
    42   15   16 1   
    43   15   44 1   
    44   15   45 1   
    45   16   17 1   
    46   16   46 1   
    47   16   47 1   
    48   17   48 1   
    49   17   49 1   
    50   17   50 1   
@<TRIPOS>SUBSTRUCTURE
     1 PL3         1 TEMP              0 ****  ****    0 ROOT
