@<TRIPOS>MOLECULE
PL4
   48    48     1     0     0
SMALL
bcc


@<TRIPOS>ATOM
      1 CB          3.8190    2.9690   -0.6250 c3        1 PL4     -0.096400
      2 CBA         0.4430    1.9380    0.9980 c3        1 PL4      0.054500
      3 N           5.7840    1.4410   -0.1710 n3        1 PL4     -0.905800
      4 OAI        -3.3080   -4.6400    2.9460 o         1 PL4     -0.931833
      5 PBB        -3.2780   -5.1700    1.5360 p5        1 PL4      1.317900
      6 OAJ        -2.6270   -6.5160    1.3600 o         1 PL4     -0.931833
      7 OAE        -4.5410   -4.9490    0.7360 o         1 PL4     -0.931833
      8 OAS        -2.1920   -4.0950    0.7260 os        1 PL4     -0.572200
      9 CAW        -2.7230   -1.7900    0.2650 ca        1 PL4     -0.150600
     10 CAK        -3.8300   -2.2520   -0.5120 ca        1 PL4      0.366200
     11 NAQ        -4.5080   -1.5030   -1.3810 nb        1 PL4     -0.695000
     12 CAV        -4.1480   -0.1940   -1.5040 ca        1 PL4      0.293600
     13 CAX        -3.0930    0.3630   -0.7450 ca        1 PL4      0.001800
     14 OAH        -2.8490    1.7030   -0.9500 oh        1 PL4     -0.562100
     15 CAY        -2.3390   -0.4500    0.1420 ca        1 PL4     -0.131300
     16 NAR        -0.2110    0.8890    0.2190 n3        1 PL4     -0.805200
     17 CAU        -0.4850    2.9940    1.6750 c         1 PL4      0.887600
     18 OAG        -0.0750    3.5390    2.7410 o         1 PL4     -0.866300
     19 OAD        -1.5950    3.3010    1.1420 o         1 PL4     -0.866300
     20 CAN         1.4630    2.7470    0.1770 c3        1 PL4     -0.059400
     21 CAL         2.7440    2.0060   -0.1510 c3        1 PL4     -0.075400
     22 CA          5.1050    2.2970   -1.1290 c3        1 PL4      0.041500
     23 C           6.0490    3.4210   -1.6650 c         1 PL4      0.911600
     24 O           5.9790    3.7240   -2.8910 o         1 PL4     -0.867800
     25 OXT         6.8520    3.9850   -0.8620 o         1 PL4     -0.867800
     26 HB          3.4140    3.5850   -1.4700 hc        1 PL4      0.035700
     27 HBA         4.0770    3.6750    0.2070 hc        1 PL4      0.035700
     28 HAA        -4.9810    1.7070   -2.0340 hc        1 PL4      0.015700
     29 HAAA       -4.2910    0.7650   -3.4170 hc        1 PL4      0.015700
     30 HAAB       -5.8920    0.2860   -2.7130 hc        1 PL4      0.015700
     31 HBAA        0.9950    1.4130    1.8320 h1        1 PL4      0.046700
     32 HN          6.4710    1.9860    0.3220 hn        1 PL4      0.329800
     33 HNA         5.1260    1.0970    0.5040 hn        1 PL4      0.329800
     34 HAP        -2.6080   -2.7160    2.2020 h1        1 PL4      0.022700
     35 HAPA       -1.0030   -2.5500    1.3130 h1        1 PL4      0.022700
     36 HAK        -4.1570   -3.3270   -0.3430 h4        1 PL4      0.134100
     37 HOAH       -2.5270    2.0950   -0.1120 ho        1 PL4      0.471000
     38 HAO        -1.7500    0.8430    1.7220 h1        1 PL4      0.048700
     39 HAOA       -0.7020   -0.6330    1.5410 h1        1 PL4      0.048700
     40 HNAR       -0.6060    1.2960   -0.6110 hn        1 PL4      0.350800
     41 HAN         0.9870    3.1080   -0.7720 hc        1 PL4      0.034700
     42 HANA        1.7180    3.6540    0.7890 hc        1 PL4      0.034700
     43 HAL         2.5470    1.2340   -0.9390 hc        1 PL4      0.033200
     44 HALA        3.0910    1.4590    0.7650 hc        1 PL4      0.033200
     45 HA          4.8290    1.6390   -2.0030 h1        1 PL4      0.044700
     46 CAO        -1.2410    0.1700    0.9630 c3        1 PL4      0.199100
     47 CAP        -2.0980   -2.8070    1.1950 c3        1 PL4      0.243700
     48 CAA        -4.8770    0.6820   -2.4670 c3        1 PL4     -0.104400
@<TRIPOS>BOND
     1    1   21 1   
     2    1   22 1   
     3    1   26 1   
     4    1   27 1   
     5    2   16 1   
     6    2   17 1   
     7    2   20 1   
     8    2   31 1   
     9    3   22 1   
    10    3   32 1   
    11    3   33 1   
    12    4    5 1   
    13    5    6 1   
    14    5    7 1   
    15    5    8 1   
    16    8   47 1   
    17    9   10 ar  
    18    9   15 ar  
    19    9   47 1   
    20   10   11 ar  
    21   10   36 1   
    22   11   12 ar  
    23   12   13 ar  
    24   12   48 1   
    25   13   14 1   
    26   13   15 ar  
    27   14   37 1   
    28   15   46 1   
    29   16   40 1   
    30   16   46 1   
    31   17   18 1   
    32   17   19 1   
    33   20   21 1   
    34   20   41 1   
    35   20   42 1   
    36   21   43 1   
    37   21   44 1   
    38   22   23 1   
    39   22   45 1   
    40   23   24 1   
    41   23   25 1   
    42   28   48 1   
    43   29   48 1   
    44   30   48 1   
    45   34   47 1   
    46   35   47 1   
    47   38   46 1   
    48   39   46 1   
@<TRIPOS>SUBSTRUCTURE
     1 PL4         1 TEMP              0 ****  ****    0 ROOT
