@<TRIPOS>MOLECULE
PL4
   50    45     1     0     0
SMALL
bcc


@<TRIPOS>ATOM
      1 CB         -1.0460    2.8480    5.2570 c1        1 PL4     -0.086000
      2 CBA         4.6860   -1.6960   -3.8770 c3        1 PL4     -0.198000
      3 N           0.1210    0.9710    4.0860 n3        1 PL4     -0.267000
      4 OAI         4.6440    0.0180    4.8650 o         1 PL4     -0.858167
      5 PBB         4.1130    1.1840    5.6120 p5        1 PL4      1.504500
      6 OAJ         2.7030    1.5500    5.2810 o         1 PL4     -0.858167
      7 OAE         4.7470    1.6990    6.8400 o         1 PL4     -0.858167
      8 OAS         4.7900    2.3830    4.1990 os        1 PL4     -0.399000
      9 CAW         4.7920    2.6930    1.8530 c2        1 PL4     -0.189000
     10 CAK         5.4250    3.9530    1.9910 c2        1 PL4     -0.059000
     11 NAQ         5.7770    4.7410    0.9690 n2        1 PL4     -0.159000
     12 CAV         5.5210    4.2990   -0.2860 c2        1 PL4     -0.041000
     13 CAX         4.8990    3.0410   -0.5290 c2        1 PL4      0.050000
     14 OAH         4.6470    2.7420   -1.8350 oh        1 PL4     -0.282000
     15 CAY         4.5300    2.2160    0.5600 c2        1 PL4     -0.030000
     16 NAR         2.5710    0.9780   -0.2770 n3        1 PL4     -0.327000
     17 CAU         4.5910   -0.4290   -3.0270 c2        1 PL4      0.324000
     18 OAG         5.6360    0.0750   -2.5120 o         1 PL4     -0.593000
     19 OAD         3.4510    0.0890   -2.8280 o         1 PL4     -0.593000
     20 CAN         5.9350   -1.7540   -4.6670 c2        1 PL4     -0.092000
     21 CAL         6.0540   -2.3740   -5.8400 c2        1 PL4     -0.306000
     22 CA         -0.0700    2.0210    4.9800 c2        1 PL4     -0.250000
     23 C          -2.6490    4.2620    5.8780 c1        1 PL4      0.492000
     24 O          -3.3980    4.0730    4.9600 o         1 PL4     -0.289500
     25 OXT        -2.1720    4.6770    6.8960 o         1 PL4     -0.289500
     26 HB          1.2920    0.7670   -2.8670 ha        1 PL4      0.001000
     27 HBA         0.6420    0.9570   -2.8350 ha        1 PL4      0.001000
     28 HAA         6.3200    4.4890   -2.2590 hc        1 PL4      0.084667
     29 HAAA        6.6050    5.9500   -1.2030 hc        1 PL4      0.084667
     30 HAAB        4.9490    5.6090   -1.8740 hc        1 PL4      0.084667
     31 HBAA        2.5620    1.6540   -1.0230 hn        1 PL4      0.152000
     32 HN          1.0780    0.6480    4.1140 hn        1 PL4      0.189500
     33 HNA        -0.1360    1.2280    3.1530 hn        1 PL4      0.189500
     34 HAP         2.9650   -1.0150    3.1760 ha        1 PL4      0.001000
     35 HAPA        3.8040    1.0400    3.0110 h4        1 PL4      0.187000
     36 HAK         5.6500    4.3360    3.0060 h4        1 PL4      0.174000
     37 HOAH        4.6470    1.7630   -1.9700 ho        1 PL4      0.302000
     38 HAO         2.4090   -0.8520    2.8220 ha        1 PL4      0.001000
     39 HAOA        3.8370    0.2620    1.2150 h1        1 PL4      0.111000
     40 HNAR        4.6230    0.3330   -0.4270 h1        1 PL4      0.111000
     41 HAN         4.6620   -2.5680   -3.1690 hc        1 PL4      0.084000
     42 HANA        3.7830   -1.7660   -4.5350 hc        1 PL4      0.084000
     43 HAL         5.2190   -2.8900   -6.3270 ha        1 PL4      0.086500
     44 HALA        6.7870   -1.2260   -4.1980 ha        1 PL4      0.145000
     45 HA          6.9990   -2.3980   -6.3960 ha        1 PL4      0.086500
     46 CAO         3.9110    0.8790    0.2750 c3        1 PL4     -0.091000
     47 CAA         5.8800    5.1430   -1.4640 c3        1 PL4     -0.156000
     48 HN3         0.8140    2.1630    5.7020 h4        1 PL4      0.290000
     49 HAR2        2.3430    0.0930   -0.7010 hn        1 PL4      0.152000
     50 CAP         4.4240    1.9680    3.0740 c2        1 PL4      0.299000
@<TRIPOS>BOND
     1    1   22 1   
     2    2   17 1   
     3    2   20 1   
     4    2   41 1   
     5    2   42 1   
     6    3   22 1   
     7    3   32 1   
     8    3   33 1   
     9    4    5 1   
    10    5    6 1   
    11    5    7 1   
    12    5    8 1   
    13    8   50 1   
    14    9   10 1   
    15    9   15 1   
    16    9   50 1   
    17   10   11 1   
    18   10   36 1   
    19   11   12 1   
    20   12   13 1   
    21   12   47 1   
    22   13   14 1   
    23   13   15 1   
    24   14   37 1   
    25   15   46 1   
    26   16   31 1   
    27   16   46 1   
    28   16   49 1   
    29   17   18 1   
    30   17   19 1   
    31   20   21 1   
    32   20   44 1   
    33   21   43 1   
    34   21   45 1   
    35   22   48 1   
    36   23   24 1   
    37   23   25 1   
    38   26   27 1   
    39   28   47 1   
    40   29   47 1   
    41   30   47 1   
    42   34   38 1   
    43   35   50 1   
    44   39   46 1   
    45   40   46 1   
@<TRIPOS>SUBSTRUCTURE
     1 PL4         1 TEMP              0 ****  ****    0 ROOT
