@<TRIPOS>MOLECULE
PL4
   50    45     1     0     0
SMALL
bcc


@<TRIPOS>ATOM
      1 CB         -0.7240   -1.4200    1.2780 cg        1 PL4      0.067800
      2 CBA         3.8720   -0.6830   -4.2890 c1        1 PL4      0.020500
      3 N           1.2010    0.2730    1.6230 n4        1 PL4     -0.583200
      4 OAI         4.1440    0.8460    5.1510 o         1 PL4     -0.863167
      5 PBB         3.0230    1.7980    4.9720 p5        1 PL4      1.297900
      6 OAJ         2.1740    1.5240    3.7710 o         1 PL4     -0.863167
      7 OAE         2.5580    2.7130    6.0250 o         1 PL4     -0.863167
      8 OAS         4.1780    2.9280    3.8070 os        1 PL4     -0.203500
      9 CAW         5.3730    2.7560    1.7630 cc        1 PL4     -0.272600
     10 CAK         5.8790    4.0720    1.8570 cc        1 PL4      0.318200
     11 NAQ         6.5820    4.6790    0.8900 n1        1 PL4     -0.477800
     12 CAV         6.7950    3.9980   -0.2600 cd        1 PL4      0.288300
     13 CAX         6.3110    2.6680   -0.4510 cd        1 PL4      0.016500
     14 OAH         6.6110    2.0880   -1.6470 oh        1 PL4     -0.521100
     15 CAY         5.6160    2.0210    0.5930 cc        1 PL4     -0.064200
     16 NAR         3.8290    0.4340   -0.0680 n3        1 PL4     -0.933800
     17 CAU         4.4420    0.0530   -3.1650 c         1 PL4      0.777600
     18 OAG         5.3370   -0.4900   -2.4330 o         1 PL4     -0.864800
     19 OAD         4.0160    1.2240   -2.8830 o         1 PL4     -0.864800
     20 CAN         0.9800    1.6790   -1.6180 c2        1 PL4     -0.244000
     21 CAL         0.7020    2.5580   -0.6630 c2        1 PL4     -0.244000
     22 CA          0.1780   -0.6420    1.4320 c1        1 PL4     -0.321200
     23 C          -1.8690   -2.3590    1.0830 c         1 PL4      0.916800
     24 O          -1.6940   -3.5520    1.4350 o         1 PL4     -0.783300
     25 OXT        -2.9150   -1.8690    0.5870 o         1 PL4     -0.783300
     26 HB         -0.2850    2.6280   -0.1840 ha        1 PL4      0.124000
     27 HBA         0.7170    3.0840    2.6060 ha        1 PL4      0.001000
     28 HAA         8.5610    4.1400   -1.4530 hc        1 PL4      0.048033
     29 HAAA        7.6970    5.7260   -1.2310 hc        1 PL4      0.048033
     30 HAAB        7.0100    4.4470   -2.3360 hc        1 PL4      0.048033
     31 HBAA        3.6220    1.1710   -0.7260 hn        1 PL4      0.374300
     32 HN          1.3770    0.7950    0.7510 hn        1 PL4      0.481800
     33 HNA         2.0700   -0.1920    1.9220 hn        1 PL4      0.481800
     34 HAP         5.3540   -0.6930    3.9320 ha        1 PL4      0.001000
     35 HAPA        4.3630    1.1090    2.8790 h4        1 PL4      0.183000
     36 HAK         5.6940    4.6630    2.7740 h4        1 PL4      0.043800
     37 HOAH        5.9340    1.4020   -1.8590 ho        1 PL4      0.501000
     38 HAO         5.6630   -0.9980    3.4090 ha        1 PL4      0.001000
     39 HAOA        5.2410    0.0640    1.4280 h1        1 PL4      0.063200
     40 HNAR        5.9350    0.0770   -0.2470 h1        1 PL4      0.063200
     41 HAN         4.3890   -0.5470   -5.2510 ha        1 PL4     -0.033500
     42 HANA        1.9680    1.6100   -2.1090 ha        1 PL4      0.124000
     43 HAL         1.4400    3.2840   -0.2930 ha        1 PL4      0.124000
     44 HALA        0.2370    0.9560   -1.9830 ha        1 PL4      0.124000
     45 HA          0.4680    3.0950    1.9750 ha        1 PL4      0.001000
     46 CAO         5.1840    0.5910    0.4300 c3        1 PL4      0.166000
     47 CAA         7.5580    4.6280   -1.3770 c3        1 PL4     -0.116400
     48 HN3         0.9500    0.9480    2.3870 hn        1 PL4      0.481800
     49 HAR2        3.7930   -0.4250   -0.5930 hn        1 PL4      0.374300
     50 CAP         4.5940    2.2040    2.8730 c2        1 PL4      0.340100
@<TRIPOS>BOND
     1    1   22 3   
     2    1   23 1   
     3    2   17 3   
     4    2   41 1   
     5    3   22 1   
     6    3   32 1   
     7    3   33 1   
     8    3   48 1   
     9    4    5 1   
    10    5    6 1   
    11    5    7 1   
    12    5    8 1   
    13    8   50 1   
    14    9   10 1   
    15    9   15 1   
    16    9   50 2   
    17   10   11 2   
    18   10   36 1   
    19   11   12 2   
    20   12   13 1   
    21   12   47 1   
    22   13   14 1   
    23   13   15 2   
    24   14   37 1   
    25   15   46 1   
    26   16   31 1   
    27   16   46 1   
    28   16   49 1   
    29   17   18 1   
    30   17   19 1   
    31   20   21 2   
    32   20   42 1   
    33   20   44 1   
    34   21   26 1   
    35   21   43 1   
    36   23   24 1   
    37   23   25 1   
    38   27   45 1   
    39   28   47 1   
    40   29   47 1   
    41   30   47 1   
    42   34   38 1   
    43   35   50 1   
    44   39   46 1   
    45   40   46 1   
@<TRIPOS>SUBSTRUCTURE
     1 PL4         1 TEMP              0 ****  ****    0 ROOT
