@<TRIPOS>MOLECULE
PL5
   47    47     1     0     0
SMALL
bcc


@<TRIPOS>ATOM
      1 OAI        -0.5230    0.7380   -0.8690 o         1 PL5     -0.842500
      2 PBB         0.9350    0.5840   -0.7090 p5        1 PL5      1.430800
      3 OAJ         1.7010    0.7890    0.5410 o         1 PL5     -0.842500
      4 OAE         1.3990   -0.9210   -1.1530 oh        1 PL5     -0.783400
      5 OAS         1.6660    1.4300   -1.9220 os        1 PL5     -0.582200
      6 CAP         3.0350    1.6810   -1.8240 c3        1 PL5      0.220700
      7 CAW         3.3590    3.1150   -2.1160 ca        1 PL5     -0.135600
      8 CAL         2.3280    4.0420   -2.4000 ca        1 PL5      0.357200
      9 NAR         2.5230    5.3440   -2.6480 nb        1 PL5     -0.678000
     10 CAV         3.7920    5.8160   -2.6070 ca        1 PL5      0.316600
     11 CAA         4.0670    7.2600   -2.8650 c3        1 PL5     -0.115400
     12 CAX         4.8980    4.9640   -2.3340 ca        1 PL5      0.060800
     13 OAH         6.1260    5.5610   -2.2920 oh        1 PL5     -0.531100
     14 CAY         4.6770    3.5830   -2.1140 ca        1 PL5     -0.166900
     15 CAK         5.8570    2.7470   -1.8260 ce        1 PL5      0.430800
     16 NAQ         6.7200    2.4330   -2.7310 n2        1 PL5     -0.557900
     17 CBA         7.9880    1.8740   -2.3080 c3        1 PL5     -0.016500
     18 CAU         8.7100    2.7480   -1.2150 c         1 PL5      0.909600
     19 OAG         9.7200    2.2440   -0.6520 o         1 PL5     -0.844800
     20 OAD         8.2510    3.8940   -0.9290 o         1 PL5     -0.844800
     21 CAO         8.9650    1.6870   -3.4760 c3        1 PL5     -0.053400
     22 CAM         8.6450    0.4960   -4.3570 c3        1 PL5     -0.077400
     23 CB          9.7690    0.2340   -5.3420 c3        1 PL5     -0.072400
     24 CA          9.5250   -0.9700   -6.2570 c3        1 PL5      0.033500
     25 C          10.6470   -0.9940   -7.3440 c         1 PL5      0.890600
     26 O          11.4670   -1.9620   -7.3580 o         1 PL5     -0.863300
     27 OXT        10.6790   -0.0540   -8.1890 o         1 PL5     -0.863300
     28 N           9.3640   -2.2370   -5.5540 n3        1 PL5     -0.898800
     29 HAP         3.4030    1.4220   -0.7880 h1        1 PL5      0.052200
     30 HAPA        3.5770    1.0440   -2.5850 h1        1 PL5      0.052200
     31 HAL         1.2800    3.6890   -2.4330 h4        1 PL5      0.038100
     32 HAA         4.7260    7.6570   -2.0530 hc        1 PL5      0.030033
     33 HAAA        4.6130    7.3620   -3.8350 hc        1 PL5      0.030033
     34 HAAB        3.1330    7.8710   -2.9090 hc        1 PL5      0.030033
     35 HOAH        6.7980    4.9230   -1.9570 ho        1 PL5      0.492000
     36 HAK         5.9750    2.5240   -0.7420 h4        1 PL5     -0.009200
     37 HBA         7.8200    0.8640   -1.8290 h1        1 PL5      0.046700
     38 HAO         9.0010    2.6160   -4.1010 hc        1 PL5      0.044700
     39 HAOA        9.9820    1.5470   -3.0200 hc        1 PL5      0.044700
     40 HAM         8.4820   -0.4070   -3.7130 hc        1 PL5      0.034200
     41 HAMA        7.6910    0.6800   -4.9150 hc        1 PL5      0.034200
     42 HB         10.7290    0.0870   -4.7800 hc        1 PL5      0.038700
     43 HBB         9.9050    1.1290   -6.0050 hc        1 PL5      0.038700
     44 HA          8.5520   -0.7960   -6.8050 h1        1 PL5      0.044700
     45 HN          9.7810   -2.1680   -4.6430 hn        1 PL5      0.327300
     46 HNA         2.2060   -1.1810   -0.7250 ho        1 PL5      0.422000
     47 HN3         9.8810   -2.9410   -6.0560 hn        1 PL5      0.327300
@<TRIPOS>BOND
     1    1    2 1   
     2    2    3 1   
     3    2    4 1   
     4    2    5 1   
     5    4   46 1   
     6    5    6 1   
     7    6    7 1   
     8    6   29 1   
     9    6   30 1   
    10    7    8 ar  
    11    7   14 ar  
    12    8    9 ar  
    13    8   31 1   
    14    9   10 ar  
    15   10   11 1   
    16   10   12 ar  
    17   11   32 1   
    18   11   33 1   
    19   11   34 1   
    20   12   13 1   
    21   12   14 ar  
    22   13   35 1   
    23   14   15 1   
    24   15   16 2   
    25   15   36 1   
    26   16   17 1   
    27   17   18 1   
    28   17   21 1   
    29   17   37 1   
    30   18   19 1   
    31   18   20 1   
    32   21   22 1   
    33   21   38 1   
    34   21   39 1   
    35   22   23 1   
    36   22   40 1   
    37   22   41 1   
    38   23   24 1   
    39   23   42 1   
    40   23   43 1   
    41   24   25 1   
    42   24   28 1   
    43   24   44 1   
    44   25   26 1   
    45   25   27 1   
    46   28   45 1   
    47   28   47 1   
@<TRIPOS>SUBSTRUCTURE
     1 PL5         1 TEMP              0 ****  ****    0 ROOT
