@<TRIPOS>MOLECULE
PL5
   47    47     1     0     0
SMALL
bcc


@<TRIPOS>ATOM
      1 OAI        -0.5060    0.9220   -0.7300 o         1 PL5     -0.842500
      2 PBB         0.9520    0.7350   -0.5950 p5        1 PL5      1.430800
      3 OAJ         1.7460    0.9360    0.6370 o         1 PL5     -0.842500
      4 OAE         1.3710   -0.7850   -1.0320 oh        1 PL5     -0.783400
      5 OAS         1.6780    1.5510   -1.8320 os        1 PL5     -0.582200
      6 CAP         3.0550    1.7720   -1.7620 c3        1 PL5      0.220700
      7 CAW         3.4060    3.1940   -2.0760 ca        1 PL5     -0.135600
      8 CAL         2.3920    4.1410   -2.3510 ca        1 PL5      0.357200
      9 NAR         2.6120    5.4360   -2.6170 nb        1 PL5     -0.678000
     10 CAV         3.8920    5.8790   -2.6050 ca        1 PL5      0.316600
     11 CAA         4.1950    7.3130   -2.8840 c3        1 PL5     -0.115400
     12 CAX         4.9830    5.0040   -2.3430 ca        1 PL5      0.060800
     13 OAH         6.2250    5.5720   -2.3310 oh        1 PL5     -0.531100
     14 CAY         4.7340    3.6310   -2.1030 ca        1 PL5     -0.166900
     15 CAK         5.9000    2.7710   -1.8290 ce        1 PL5      0.430800
     16 NAQ         6.7380    2.4270   -2.7450 n2        1 PL5     -0.557900
     17 CBA         8.0000    1.8430   -2.3400 c3        1 PL5     -0.016500
     18 CAU         8.7640    2.7120   -1.2710 c         1 PL5      0.909600
     19 OAG         9.7720    2.1910   -0.7220 o         1 PL5     -0.844800
     20 OAD         8.3360    3.8710   -0.9890 o         1 PL5     -0.844800
     21 CAO         8.9500    1.6210   -3.5240 c3        1 PL5     -0.053400
     22 CAM         8.5860    0.4280   -4.3860 c3        1 PL5     -0.077400
     23 CB          9.6850    0.1280   -5.3880 c3        1 PL5     -0.072400
     24 CA          9.3950   -1.0790   -6.2860 c3        1 PL5      0.033500
     25 C          10.4950   -1.1410   -7.3930 c         1 PL5      0.890600
     26 O          11.2920   -2.1300   -7.4110 o         1 PL5     -0.863300
     27 OXT        10.5350   -0.2120   -8.2480 o         1 PL5     -0.863300
     28 N           9.2160   -2.3340   -5.5660 n8        1 PL5     -0.898800
     29 HAP         3.5660    1.1140   -2.5260 h1        1 PL5      0.052200
     30 HAPA        3.4360    1.5140   -0.7300 h1        1 PL5      0.052200
     31 HAL         1.3360    3.8140   -2.3600 h4        1 PL5      0.038100
     32 HAA         3.2760    7.9450   -2.9180 hc        1 PL5      0.030033
     33 HAAA        4.8780    7.7030   -2.0880 hc        1 PL5      0.030033
     34 HAAB        4.7260    7.3920   -3.8650 hc        1 PL5      0.030033
     35 HOAH        6.8880    4.9230   -2.0020 ho        1 PL5      0.492000
     36 HAK         6.0330    2.5570   -0.7440 h4        1 PL5     -0.009200
     37 HBA         7.8190    0.8420   -1.8460 h1        1 PL5      0.046700
     38 HAO         9.9730    1.4610   -3.0860 hc        1 PL5      0.044700
     39 HAOA        8.9960    2.5420   -4.1610 hc        1 PL5      0.044700
     40 HAM         7.6260    0.6280   -4.9280 hc        1 PL5      0.034200
     41 HAMA        8.4130   -0.4640   -3.7290 hc        1 PL5      0.034200
     42 HB          9.8300    1.0130   -6.0630 hc        1 PL5      0.038700
     43 HBB        10.6520   -0.0360   -4.8430 hc        1 PL5      0.038700
     44 HA          8.4160   -0.8870   -6.8180 h1        1 PL5      0.044700
     45 HN          2.1800   -1.0590   -0.6170 ho        1 PL5      0.422000
     46 HNA         9.6510   -2.2660   -4.6630 hn        1 PL5      0.327300
     47 HN3         9.7070   -3.0560   -6.0700 hn        1 PL5      0.327300
@<TRIPOS>BOND
     1    1    2 1   
     2    2    3 1   
     3    2    4 1   
     4    2    5 1   
     5    4   45 1   
     6    5    6 1   
     7    6    7 1   
     8    6   29 1   
     9    6   30 1   
    10    7    8 ar  
    11    7   14 ar  
    12    8    9 ar  
    13    8   31 1   
    14    9   10 ar  
    15   10   11 1   
    16   10   12 ar  
    17   11   32 1   
    18   11   33 1   
    19   11   34 1   
    20   12   13 1   
    21   12   14 ar  
    22   13   35 1   
    23   14   15 1   
    24   15   16 2   
    25   15   36 1   
    26   16   17 1   
    27   17   18 1   
    28   17   21 1   
    29   17   37 1   
    30   18   19 1   
    31   18   20 1   
    32   21   22 1   
    33   21   38 1   
    34   21   39 1   
    35   22   23 1   
    36   22   40 1   
    37   22   41 1   
    38   23   24 1   
    39   23   42 1   
    40   23   43 1   
    41   24   25 1   
    42   24   28 1   
    43   24   44 1   
    44   25   26 1   
    45   25   27 1   
    46   28   46 1   
    47   28   47 1   
@<TRIPOS>SUBSTRUCTURE
     1 PL5         1 TEMP              0 ****  ****    0 ROOT
