@<TRIPOS>MOLECULE
PL5
   47    47     1     0     0
SMALL
bcc


@<TRIPOS>ATOM
      1 OAI        -0.5240    0.7850   -0.8480 o         1 PL5     -0.842500
      2 PBB         0.9340    0.6140   -0.6960 p5        1 PL5      1.430800
      3 OAJ         1.7080    0.8000    0.5510 o         1 PL5     -0.842500
      4 OAE         1.3800   -0.8910   -1.1570 oh        1 PL5     -0.783400
      5 OAS         1.6670    1.4640   -1.9060 os        1 PL5     -0.582200
      6 CAP         3.0390    1.7020   -1.8120 c3        1 PL5      0.220700
      7 CAW         3.3760    3.1350   -2.0920 ca        1 PL5     -0.135600
      8 CAL         2.3530    4.0740   -2.3620 ca        1 PL5      0.357200
      9 NAR         2.5590    5.3770   -2.5990 nb        1 PL5     -0.678000
     10 CAV         3.8330    5.8360   -2.5600 ca        1 PL5      0.316600
     11 CAA         4.1200    7.2790   -2.8060 c3        1 PL5     -0.115400
     12 CAX         4.9320    4.9700   -2.3000 ca        1 PL5      0.060800
     13 OAH         6.1650    5.5550   -2.2590 oh        1 PL5     -0.531100
     14 CAY         4.6980    3.5900   -2.0920 ca        1 PL5     -0.166900
     15 CAK         5.8720    2.7400   -1.8170 ce        1 PL5      0.430800
     16 NAQ         6.7270    2.4250   -2.7290 n2        1 PL5     -0.557900
     17 CBA         7.9910    1.8500   -2.3170 c3        1 PL5     -0.016500
     18 CAU         8.7270    2.7070   -1.2200 c         1 PL5      0.909600
     19 OAG         9.7350    2.1890   -0.6680 o         1 PL5     -0.844800
     20 OAD         8.2800    3.8550   -0.9220 o         1 PL5     -0.844800
     21 CAO         8.9600    1.6640   -3.4920 c3        1 PL5     -0.053400
     22 CAM         8.6250    0.4840   -4.3820 c3        1 PL5     -0.077400
     23 CB          9.7410    0.2190   -5.3740 c3        1 PL5     -0.072400
     24 CA          9.4800   -0.9750   -6.2990 c3        1 PL5      0.033500
     25 C          10.5970   -1.0000   -7.3910 c         1 PL5      0.890600
     26 O          11.4070   -1.9760   -7.4170 o         1 PL5     -0.863300
     27 OXT        10.6340   -0.0540   -8.2280 o         1 PL5     -0.863300
     28 N           9.3090   -2.2460   -5.6060 n3        1 PL5     -0.898800
     29 HAP         3.5710    1.0660   -2.5810 h1        1 PL5      0.052200
     30 HAPA        3.4090    1.4290   -0.7800 h1        1 PL5      0.052200
     31 HAL         1.3010    3.7320   -2.3930 h4        1 PL5      0.038100
     32 HAA         4.6630    7.3850   -3.7780 hc        1 PL5      0.030033
     33 HAAA        4.7870    7.6620   -1.9940 hc        1 PL5      0.030033
     34 HAAB        3.1930    7.9000   -2.8400 hc        1 PL5      0.030033
     35 HOAH        6.8320    4.9070   -1.9330 ho        1 PL5      0.492000
     36 HAK         5.9920    2.5060   -0.7360 h4        1 PL5     -0.009200
     37 HBA         7.8160    0.8370   -1.8460 h1        1 PL5      0.046700
     38 HAO         9.0030    2.5980   -4.1100 hc        1 PL5      0.044700
     39 HAOA        9.9790    1.5100   -3.0420 hc        1 PL5      0.044700
     40 HAM         7.6700    0.6820   -4.9340 hc        1 PL5      0.034200
     41 HAMA        8.4550   -0.4230   -3.7450 hc        1 PL5      0.034200
     42 HB          9.8830    1.1190   -6.0300 hc        1 PL5      0.038700
     43 HBB        10.7020    0.0570   -4.8190 hc        1 PL5      0.038700
     44 HA          8.5060   -0.7860   -6.8410 h1        1 PL5      0.044700
     45 HN          9.8170   -2.9510   -6.1170 hn        1 PL5      0.327300
     46 HNA         2.1870   -1.1630   -0.7360 ho        1 PL5      0.422000
     47 HN3         9.7310   -2.1890   -4.6970 hn        1 PL5      0.327300
@<TRIPOS>BOND
     1    1    2 1   
     2    2    3 1   
     3    2    4 1   
     4    2    5 1   
     5    4   46 1   
     6    5    6 1   
     7    6    7 1   
     8    6   29 1   
     9    6   30 1   
    10    7    8 ar  
    11    7   14 ar  
    12    8    9 ar  
    13    8   31 1   
    14    9   10 ar  
    15   10   11 1   
    16   10   12 ar  
    17   11   32 1   
    18   11   33 1   
    19   11   34 1   
    20   12   13 1   
    21   12   14 ar  
    22   13   35 1   
    23   14   15 1   
    24   15   16 2   
    25   15   36 1   
    26   16   17 1   
    27   17   18 1   
    28   17   21 1   
    29   17   37 1   
    30   18   19 1   
    31   18   20 1   
    32   21   22 1   
    33   21   38 1   
    34   21   39 1   
    35   22   23 1   
    36   22   40 1   
    37   22   41 1   
    38   23   24 1   
    39   23   42 1   
    40   23   43 1   
    41   24   25 1   
    42   24   28 1   
    43   24   44 1   
    44   25   26 1   
    45   25   27 1   
    46   28   45 1   
    47   28   47 1   
@<TRIPOS>SUBSTRUCTURE
     1 PL5         1 TEMP              0 ****  ****    0 ROOT
