@<TRIPOS>MOLECULE
PL5
   46    46     1     0     0
SMALL
bcc


@<TRIPOS>ATOM
      1 OAI        -6.2200   -0.4290   -0.6610 o         1 PL5     -0.931500
      2 PBB        -5.6110   -1.4220    0.3020 p5        1 PL5      1.317900
      3 OAJ        -5.5430   -0.9630    1.7350 o         1 PL5     -0.931500
      4 OAE        -6.0130   -2.8570    0.0930 o         1 PL5     -0.931500
      5 OAS        -3.9540   -1.3950   -0.2020 os        1 PL5     -0.568200
      6 CAP        -3.1260   -0.4770    0.3950 c3        1 PL5      0.243700
      7 CAW        -2.7440    0.6660   -0.5170 ca        1 PL5     -0.133600
      8 CAL        -3.7200    1.1030   -1.4620 ca        1 PL5      0.354200
      9 NAR        -3.5480    2.1220   -2.3040 nb        1 PL5     -0.687000
     10 CAV        -2.3810    2.8210   -2.2320 ca        1 PL5      0.280600
     11 CAA        -2.1510    3.9780   -3.1450 c3        1 PL5     -0.100400
     12 CAX        -1.3620    2.4790   -1.3110 ca        1 PL5      0.036800
     13 OAH        -0.2620    3.3030   -1.2970 oh        1 PL5     -0.546100
     14 CAY        -1.5300    1.3530   -0.4610 ca        1 PL5     -0.196900
     15 CAK        -0.4520    1.0480    0.5010 ce        1 PL5      0.471800
     16 NAQ         0.7710    0.8430    0.1470 n2        1 PL5     -0.590900
     17 CBA         1.8140    0.8570    1.1530 c3        1 PL5     -0.003500
     18 CAU         1.9080    2.2300    1.9190 c         1 PL5      0.908600
     19 OAG         1.4330    3.2780    1.3940 o         1 PL5     -0.853800
     20 OAD         2.4810    2.2180    3.0460 o         1 PL5     -0.853800
     21 CAO         3.2110    0.6000    0.5640 c3        1 PL5     -0.050400
     22 CAM         3.5380   -0.8610    0.3200 c3        1 PL5     -0.078400
     23 CB          5.0310   -1.0500    0.1140 c3        1 PL5     -0.095400
     24 CA          5.4510   -2.4730   -0.2830 c3        1 PL5      0.041500
     25 C           6.9890   -2.4570   -0.5540 c         1 PL5      0.911600
     26 O           7.3840   -2.2360   -1.7350 o         1 PL5     -0.868300
     27 OXT         7.7860   -2.6700    0.4100 o         1 PL5     -0.868300
     28 N           5.0840   -3.5210    0.6560 n3        1 PL5     -0.905800
     29 HAP        -3.6260   -0.0300    1.3090 h1        1 PL5      0.022700
     30 HAPA       -2.1720   -0.9910    0.7160 h1        1 PL5      0.022700
     31 HAL        -4.7120    0.5480   -1.4600 h4        1 PL5      0.137100
     32 HAA        -1.7120    4.8270   -2.5650 hc        1 PL5      0.014367
     33 HAAA       -1.4190    3.6880   -3.9400 hc        1 PL5      0.014367
     34 HAAB       -3.0920    4.3230   -3.6380 hc        1 PL5      0.014367
     35 HOAH        0.2590    3.1390   -0.4850 ho        1 PL5      0.472000
     36 HAK        -0.7930    1.0950    1.5600 h4        1 PL5     -0.026200
     37 HBA         1.6160    0.0710    1.9410 h1        1 PL5      0.037700
     38 HAO         3.3360    1.1730   -0.3910 hc        1 PL5      0.039200
     39 HAOA        3.9500    1.0130    1.3040 hc        1 PL5      0.039200
     40 HAM         3.1910   -1.4640    1.2000 hc        1 PL5      0.031200
     41 HAMA        2.9780   -1.2330   -0.5760 hc        1 PL5      0.031200
     42 HB          5.3780   -0.3630   -0.7030 hc        1 PL5      0.036200
     43 HBB         5.5750   -0.7560    1.0500 hc        1 PL5      0.036200
     44 HA          4.9360   -2.7250   -1.2560 h1        1 PL5      0.045700
     45 HN          5.8480   -3.6660    1.2940 hn        1 PL5      0.329800
     46 HNA         4.2880   -3.2320    1.1940 hn        1 PL5      0.329800
@<TRIPOS>BOND
     1    1    2 1   
     2    2    3 1   
     3    2    4 1   
     4    2    5 1   
     5    5    6 1   
     6    6    7 1   
     7    6   29 1   
     8    6   30 1   
     9    7    8 ar  
    10    7   14 ar  
    11    8    9 ar  
    12    8   31 1   
    13    9   10 ar  
    14   10   11 1   
    15   10   12 ar  
    16   11   32 1   
    17   11   33 1   
    18   11   34 1   
    19   12   13 1   
    20   12   14 ar  
    21   13   35 1   
    22   14   15 1   
    23   15   16 2   
    24   15   36 1   
    25   16   17 1   
    26   17   18 1   
    27   17   21 1   
    28   17   37 1   
    29   18   19 1   
    30   18   20 1   
    31   21   22 1   
    32   21   38 1   
    33   21   39 1   
    34   22   23 1   
    35   22   40 1   
    36   22   41 1   
    37   23   24 1   
    38   23   42 1   
    39   23   43 1   
    40   24   25 1   
    41   24   28 1   
    42   24   44 1   
    43   25   26 1   
    44   25   27 1   
    45   28   45 1   
    46   28   46 1   
@<TRIPOS>SUBSTRUCTURE
     1 PL5         1 TEMP              0 ****  ****    0 ROOT
