@<TRIPOS>MOLECULE
PL6
   38    38     1     0     0
SMALL
bcc


@<TRIPOS>ATOM
      1 OAE         0.6430    0.3960    0.4580 o         1 PL6     -0.933167
      2 PAY         2.1390    0.3110    0.3060 p5        1 PL6      1.319900
      3 OAI         2.9060    1.4630    0.9130 o         1 PL6     -0.933167
      4 OAD         2.7460   -1.0500    0.5240 o         1 PL6     -0.933167
      5 OAQ         2.3800    0.5740   -1.3860 os        1 PL6     -0.571200
      6 CAN         1.5510    1.4780   -2.0090 c3        1 PL6      0.250700
      7 CAU         2.2880    2.7240   -2.4480 ca        1 PL6     -0.137600
      8 CAK         3.1900    3.2920   -1.4980 ca        1 PL6      0.346200
      9 NAO         3.9260    4.3810   -1.7170 nb        1 PL6     -0.691000
     10 CAT         3.8370    4.9750   -2.9410 ca        1 PL6      0.275600
     11 CAA         4.6550    6.1860   -3.2390 c3        1 PL6     -0.099400
     12 CAV         2.9790    4.4800   -3.9520 ca        1 PL6      0.041800
     13 OAH         3.0310    5.1440   -5.1520 oh        1 PL6     -0.548100
     14 CAW         2.1590    3.3470   -3.6910 ca        1 PL6     -0.184900
     15 CAJ         1.3120    2.8460   -4.7920 ce        1 PL6      0.451800
     16 N           0.4490    3.5820   -5.4070 n2        1 PL6     -0.576900
     17 CA         -0.1090    3.1270   -6.6660 c3        1 PL6     -0.003500
     18 C           0.9850    2.9750   -7.7850 c         1 PL6      0.910600
     19 OXT         0.7280    2.1920   -8.7460 o         1 PL6     -0.862800
     20 O           2.0750    3.6160   -7.7020 o         1 PL6     -0.862800
     21 CB         -1.1940    4.0690   -7.2220 c3        1 PL6     -0.032400
     22 CG         -2.5300    3.9540   -6.5240 c3        1 PL6     -0.172400
     23 CD         -3.6570    4.6980   -7.2460 c         1 PL6      0.902600
     24 OE2        -4.7120    4.0540   -7.5560 o         1 PL6     -0.892300
     25 OE1        -3.5590    5.9400   -7.4910 o         1 PL6     -0.892300
     26 HAN         1.1040    0.9990   -2.9320 h1        1 PL6      0.019700
     27 HANA        0.7110    1.7850   -1.3170 h1        1 PL6      0.019700
     28 HAK         3.2770    2.7590   -0.4990 h4        1 PL6      0.134100
     29 HAA         5.4410    6.3710   -2.4670 hc        1 PL6      0.012700
     30 HAAA        5.1460    6.0650   -4.2360 hc        1 PL6      0.012700
     31 HAAB        3.9880    7.0830   -3.2910 hc        1 PL6      0.012700
     32 HOAH        2.5770    4.6190   -5.8440 ho        1 PL6      0.479000
     33 HAJ         1.5620    1.8010   -5.0850 h4        1 PL6     -0.027200
     34 HA         -0.5740    2.1030   -6.5440 h1        1 PL6      0.034700
     35 HB         -0.8450    5.1320   -7.1790 hc        1 PL6      0.041700
     36 HBA        -1.3240    3.7990   -8.3050 hc        1 PL6      0.041700
     37 HG         -2.4490    4.3730   -5.4890 hc        1 PL6      0.024200
     38 HGA        -2.8190    2.8750   -6.4340 hc        1 PL6      0.024200
@<TRIPOS>BOND
     1    1    2 1   
     2    2    3 1   
     3    2    4 1   
     4    2    5 1   
     5    5    6 1   
     6    6    7 1   
     7    6   26 1   
     8    6   27 1   
     9    7    8 ar  
    10    7   14 ar  
    11    8    9 ar  
    12    8   28 1   
    13    9   10 ar  
    14   10   11 1   
    15   10   12 ar  
    16   11   29 1   
    17   11   30 1   
    18   11   31 1   
    19   12   13 1   
    20   12   14 ar  
    21   13   32 1   
    22   14   15 1   
    23   15   16 2   
    24   15   33 1   
    25   16   17 1   
    26   17   18 1   
    27   17   21 1   
    28   17   34 1   
    29   18   19 1   
    30   18   20 1   
    31   21   22 1   
    32   21   35 1   
    33   21   36 1   
    34   22   23 1   
    35   22   37 1   
    36   22   38 1   
    37   23   24 1   
    38   23   25 1   
@<TRIPOS>SUBSTRUCTURE
     1 PL6         1 TEMP              0 ****  ****    0 ROOT
