@<TRIPOS>MOLECULE
PL6
   38    38     1     0     0
SMALL
bcc


@<TRIPOS>ATOM
      1 OAE        -5.6950   -1.8990   -0.9020 o         1 PL6     -0.933500
      2 PAY        -4.9760   -0.8900   -0.0470 p5        1 PL6      1.318900
      3 OAI        -5.3980    0.5460   -0.2510 o         1 PL6     -0.933500
      4 OAD        -4.7530   -1.2930    1.3870 o         1 PL6     -0.933500
      5 OAQ        -3.3800   -0.8710   -0.7140 os        1 PL6     -0.570200
      6 CAN        -2.3380   -0.5750    0.1300 c3        1 PL6      0.243700
      7 CAU        -1.7420    0.7930   -0.1110 ca        1 PL6     -0.135600
      8 CAK        -2.6360    1.8240   -0.5280 ca        1 PL6      0.350200
      9 NAO        -2.2770    3.0900   -0.7430 nb        1 PL6     -0.689000
     10 CAT        -0.9790    3.4320   -0.5120 ca        1 PL6      0.274600
     11 CAA        -0.5330    4.8400   -0.7250 c3        1 PL6     -0.098400
     12 CAV        -0.0210    2.4850   -0.0740 ca        1 PL6      0.042800
     13 OAH         1.2320    2.9850    0.1800 oh        1 PL6     -0.547100
     14 CAW        -0.4000    1.1260    0.0950 ca        1 PL6     -0.190900
     15 CAJ         0.6210    0.1750    0.5790 ce        1 PL6      0.452800
     16 N           1.7700    0.0280    0.0120 n2        1 PL6     -0.575900
     17 CA          2.8310   -0.6720    0.7090 c3        1 PL6     -0.003500
     18 C           3.3090    0.1030    1.9910 c         1 PL6      0.911600
     19 OXT         3.8820   -0.5720    2.8960 o         1 PL6     -0.862300
     20 O           3.1120    1.3500    2.0940 o         1 PL6     -0.862300
     21 CB          4.0770   -0.9080   -0.1650 c3        1 PL6     -0.032400
     22 CG          3.9260   -2.0290   -1.1680 c3        1 PL6     -0.172400
     23 CD          5.2430   -2.4210   -1.8440 c         1 PL6      0.902600
     24 OE2         5.6080   -3.6410   -1.8080 o         1 PL6     -0.892300
     25 OE1         5.9340   -1.5550   -2.4640 o         1 PL6     -0.892300
     26 HAN        -2.6830   -0.6110    1.2090 h1        1 PL6      0.023200
     27 HANA       -1.5160   -1.3370   -0.0150 h1        1 PL6      0.023200
     28 HAK        -3.7250    1.5320   -0.6540 h4        1 PL6      0.132100
     29 HAA         0.0630    5.1770    0.1600 hc        1 PL6      0.013033
     30 HAAA        0.1290    4.8900   -1.6250 hc        1 PL6      0.013033
     31 HAAB       -1.3900    5.5410   -0.8730 hc        1 PL6      0.013033
     32 HOAH        1.7650    2.3200    0.6640 ho        1 PL6      0.479000
     33 HAJ         0.3200   -0.3360    1.5220 h4        1 PL6     -0.031200
     34 HA          2.4710   -1.6810    1.0720 h1        1 PL6      0.032700
     35 HB          4.3600    0.0330   -0.7030 hc        1 PL6      0.041700
     36 HBA         4.9160   -1.1600    0.5380 hc        1 PL6      0.041700
     37 HG          3.5040   -2.9360   -0.6620 hc        1 PL6      0.024200
     38 HGA         3.2070   -1.7200   -1.9700 hc        1 PL6      0.024200
@<TRIPOS>BOND
     1    1    2 1   
     2    2    3 1   
     3    2    4 1   
     4    2    5 1   
     5    5    6 1   
     6    6    7 1   
     7    6   26 1   
     8    6   27 1   
     9    7    8 ar  
    10    7   14 ar  
    11    8    9 ar  
    12    8   28 1   
    13    9   10 ar  
    14   10   11 1   
    15   10   12 ar  
    16   11   29 1   
    17   11   30 1   
    18   11   31 1   
    19   12   13 1   
    20   12   14 ar  
    21   13   32 1   
    22   14   15 1   
    23   15   16 2   
    24   15   33 1   
    25   16   17 1   
    26   17   18 1   
    27   17   21 1   
    28   17   34 1   
    29   18   19 1   
    30   18   20 1   
    31   21   22 1   
    32   21   35 1   
    33   21   36 1   
    34   22   23 1   
    35   22   37 1   
    36   22   38 1   
    37   23   24 1   
    38   23   25 1   
@<TRIPOS>SUBSTRUCTURE
     1 PL6         1 TEMP              0 ****  ****    0 ROOT
