@<TRIPOS>MOLECULE
PL6
   38    38     1     0     0
SMALL
bcc


@<TRIPOS>ATOM
      1 OAE         0.6810    0.3930    0.4610 o         1 PL6     -0.933167
      2 PAY         2.1760    0.3190    0.3030 p5        1 PL6      1.319900
      3 OAI         2.9370    1.4770    0.9070 o         1 PL6     -0.933167
      4 OAD         2.7940   -1.0380    0.5190 o         1 PL6     -0.933167
      5 OAQ         2.4090    0.5840   -1.3890 os        1 PL6     -0.571200
      6 CAN         1.5720    1.4810   -2.0100 c3        1 PL6      0.250700
      7 CAU         2.2990    2.7320   -2.4520 ca        1 PL6     -0.137600
      8 CAK         3.2000    3.3070   -1.5050 ca        1 PL6      0.346200
      9 NAO         3.9280    4.4010   -1.7270 nb        1 PL6     -0.691000
     10 CAT         3.8300    4.9940   -2.9500 ca        1 PL6      0.275600
     11 CAA         4.6380    6.2110   -3.2520 c3        1 PL6     -0.099400
     12 CAV         2.9730    4.4920   -3.9590 ca        1 PL6      0.041800
     13 OAH         3.0160    5.1570   -5.1590 oh        1 PL6     -0.548100
     14 CAW         2.1610    3.3540   -3.6940 ca        1 PL6     -0.184900
     15 CAJ         1.3140    2.8470   -4.7920 ce        1 PL6      0.451800
     16 N           0.4440    3.5760   -5.4050 n2        1 PL6     -0.576900
     17 CA         -0.1160    3.1180   -6.6620 c3        1 PL6     -0.003500
     18 C           0.9760    2.9730   -7.7840 c         1 PL6      0.910600
     19 OXT         0.7210    2.1870   -8.7440 o         1 PL6     -0.862800
     20 O           2.0610    3.6220   -7.7050 o         1 PL6     -0.862800
     21 CB         -1.2090    4.0520   -7.2140 c3        1 PL6     -0.032400
     22 CG         -2.5420    3.9280   -6.5120 c3        1 PL6     -0.172400
     23 CD         -3.6770    4.6630   -7.2300 c         1 PL6      0.902600
     24 OE2        -4.7280    4.0120   -7.5360 o         1 PL6     -0.892300
     25 OE1        -3.5880    5.9060   -7.4750 o         1 PL6     -0.892300
     26 HAN         1.1260    0.9990   -2.9310 h1        1 PL6      0.019700
     27 HANA        0.7320    1.7820   -1.3150 h1        1 PL6      0.019700
     28 HAK         3.2950    2.7750   -0.5060 h4        1 PL6      0.134100
     29 HAA         5.1250    6.0950   -4.2530 hc        1 PL6      0.012700
     30 HAAA        3.9660    7.1040   -3.2980 hc        1 PL6      0.012700
     31 HAAB        5.4280    6.3990   -2.4850 hc        1 PL6      0.012700
     32 HOAH        2.5630    4.6280   -5.8500 ho        1 PL6      0.479000
     33 HAJ         1.5690    1.8040   -5.0850 h4        1 PL6     -0.027200
     34 HA         -0.5730    2.0910   -6.5380 h1        1 PL6      0.034700
     35 HB         -0.8680    5.1180   -7.1730 hc        1 PL6      0.041700
     36 HBA        -1.3410    3.7810   -8.2960 hc        1 PL6      0.041700
     37 HG         -2.4600    4.3480   -5.4770 hc        1 PL6      0.024200
     38 HGA        -2.8220    2.8460   -6.4200 hc        1 PL6      0.024200
@<TRIPOS>BOND
     1    1    2 1   
     2    2    3 1   
     3    2    4 1   
     4    2    5 1   
     5    5    6 1   
     6    6    7 1   
     7    6   26 1   
     8    6   27 1   
     9    7    8 ar  
    10    7   14 ar  
    11    8    9 ar  
    12    8   28 1   
    13    9   10 ar  
    14   10   11 1   
    15   10   12 ar  
    16   11   29 1   
    17   11   30 1   
    18   11   31 1   
    19   12   13 1   
    20   12   14 ar  
    21   13   32 1   
    22   14   15 1   
    23   15   16 2   
    24   15   33 1   
    25   16   17 1   
    26   17   18 1   
    27   17   21 1   
    28   17   34 1   
    29   18   19 1   
    30   18   20 1   
    31   21   22 1   
    32   21   35 1   
    33   21   36 1   
    34   22   23 1   
    35   22   37 1   
    36   22   38 1   
    37   23   24 1   
    38   23   25 1   
@<TRIPOS>SUBSTRUCTURE
     1 PL6         1 TEMP              0 ****  ****    0 ROOT
