@<TRIPOS>MOLECULE
PL6
   38    38     1     0     0
SMALL
bcc


@<TRIPOS>ATOM
      1 OAE         0.6640    0.4040    0.4660 o         1 PL6     -0.933167
      2 PAY         2.1600    0.3250    0.3110 p5        1 PL6      1.319900
      3 OAI         2.9230    1.4830    0.9140 o         1 PL6     -0.933167
      4 OAD         2.7730   -1.0320    0.5310 o         1 PL6     -0.933167
      5 OAQ         2.3960    0.5860   -1.3820 os        1 PL6     -0.571200
      6 CAN         1.5630    1.4840   -2.0060 c3        1 PL6      0.250700
      7 CAU         2.2940    2.7320   -2.4490 ca        1 PL6     -0.137600
      8 CAK         3.1950    3.3070   -1.5020 ca        1 PL6      0.346200
      9 NAO         3.9270    4.3990   -1.7250 nb        1 PL6     -0.691000
     10 CAT         3.8330    4.9890   -2.9490 ca        1 PL6      0.275600
     11 CAA         4.6450    6.2030   -3.2520 c3        1 PL6     -0.099400
     12 CAV         2.9750    4.4880   -3.9580 ca        1 PL6      0.041800
     13 OAH         3.0220    5.1500   -5.1600 oh        1 PL6     -0.548100
     14 CAW         2.1600    3.3530   -3.6920 ca        1 PL6     -0.184900
     15 CAJ         1.3130    2.8460   -4.7910 ce        1 PL6      0.451800
     16 N           0.4460    3.5760   -5.4070 n2        1 PL6     -0.576900
     17 CA         -0.1130    3.1160   -6.6630 c3        1 PL6     -0.003500
     18 C           0.9800    2.9660   -7.7840 c         1 PL6      0.910600
     19 OXT         0.7240    2.1790   -8.7420 o         1 PL6     -0.862800
     20 O           2.0670    3.6120   -7.7040 o         1 PL6     -0.862800
     21 CB         -1.2020    4.0530   -7.2190 c3        1 PL6     -0.032400
     22 CG         -2.5360    3.9340   -6.5190 c3        1 PL6     -0.172400
     23 CD         -3.6680    4.6710   -7.2410 c         1 PL6      0.902600
     24 OE2        -4.7210    4.0230   -7.5480 o         1 PL6     -0.892300
     25 OE1        -3.5760    5.9140   -7.4880 o         1 PL6     -0.892300
     26 HAN         1.1170    1.0020   -2.9260 h1        1 PL6      0.019700
     27 HANA        0.7230    1.7900   -1.3130 h1        1 PL6      0.019700
     28 HAK         3.2870    2.7760   -0.5020 h4        1 PL6      0.134100
     29 HAA         5.4340    6.3910   -2.4840 hc        1 PL6      0.012700
     30 HAAA        5.1330    6.0830   -4.2510 hc        1 PL6      0.012700
     31 HAAB        3.9760    7.0980   -3.3010 hc        1 PL6      0.012700
     32 HOAH        2.5690    4.6210   -5.8500 ho        1 PL6      0.479000
     33 HAJ         1.5660    1.8010   -5.0810 h4        1 PL6     -0.027200
     34 HA         -0.5730    2.0910   -6.5380 h1        1 PL6      0.034700
     35 HB         -0.8580    5.1180   -7.1800 hc        1 PL6      0.041700
     36 HBA        -1.3330    3.7800   -8.3010 hc        1 PL6      0.041700
     37 HG         -2.4550    4.3560   -5.4850 hc        1 PL6      0.024200
     38 HGA        -2.8200    2.8540   -6.4250 hc        1 PL6      0.024200
@<TRIPOS>BOND
     1    1    2 1   
     2    2    3 1   
     3    2    4 1   
     4    2    5 1   
     5    5    6 1   
     6    6    7 1   
     7    6   26 1   
     8    6   27 1   
     9    7    8 ar  
    10    7   14 ar  
    11    8    9 ar  
    12    8   28 1   
    13    9   10 ar  
    14   10   11 1   
    15   10   12 ar  
    16   11   29 1   
    17   11   30 1   
    18   11   31 1   
    19   12   13 1   
    20   12   14 ar  
    21   13   32 1   
    22   14   15 1   
    23   15   16 2   
    24   15   33 1   
    25   16   17 1   
    26   17   18 1   
    27   17   21 1   
    28   17   34 1   
    29   18   19 1   
    30   18   20 1   
    31   21   22 1   
    32   21   35 1   
    33   21   36 1   
    34   22   23 1   
    35   22   37 1   
    36   22   38 1   
    37   23   24 1   
    38   23   25 1   
@<TRIPOS>SUBSTRUCTURE
     1 PL6         1 TEMP              0 ****  ****    0 ROOT
