@<TRIPOS>MOLECULE
PL7
   42    39     1     0     0
SMALL
bcc


@<TRIPOS>ATOM
      1 O16        -1.1990   -3.7920    6.5100 o         1 PL7     -0.618500
      2 C9         -0.3330   -2.9680    6.9060 c2        1 PL7      0.324000
      3 O17        -0.3690   -2.5370    8.0880 o         1 PL7     -0.618500
      4 C10         0.7740   -2.5280    5.9740 c3        1 PL7     -0.197000
      5 C11         0.3210   -1.3160    5.1890 c3        1 PL7     -0.126000
      6 C8          1.5290   -0.5950    4.6320 c2        1 PL7     -0.089000
      7 C12         2.8150   -0.5440    5.4300 c2        1 PL7      0.383000
      8 O19         3.8300   -1.1720    5.0290 o         1 PL7     -0.587500
      9 O18         2.8690    0.1270    6.4940 o         1 PL7     -0.587500
     10 N1          1.4630   -0.0180    3.4620 n1        1 PL7     -0.125000
     11 O13         0.3020   -0.0640    2.7410 o         1 PL7     -0.236000
     12 C5          0.4660    0.6300    1.5260 c3        1 PL7     -0.023000
     13 C3         -0.8280    0.5910    0.7440 c3        1 PL7     -0.082000
     14 C4         -1.8770    1.4090    1.4630 c2        1 PL7      0.336000
     15 O14        -1.7090    2.6460    1.6240 o         1 PL7     -0.590000
     16 N2         -0.6150    1.1290   -0.5530 n         1 PL7     -0.291000
     17 C6         -1.0420    0.4080   -1.7000 c2        1 PL7      0.315000
     18 O15        -1.5760   -0.6750   -1.5730 o         1 PL7     -0.395000
     19 C7         -0.8460    0.9980   -3.0820 c3        1 PL7     -0.068000
     20 O34        -0.3270    0.0110   -3.9440 os        1 PL7     -0.210000
     21 C35        -0.2590    0.4100   -5.2900 c2        1 PL7      0.109000
     22 C40         0.7360    1.2820   -5.7050 c2        1 PL7     -0.185000
     23 C39         0.8450    1.6240   -7.0440 c1        1 PL7     -0.101000
     24 C38        -0.0420    1.0940   -7.9680 c1        1 PL7     -0.170000
     25 C37        -1.0370    0.2230   -7.5540 c1        1 PL7     -0.170000
     26 C36        -1.1460   -0.1190   -6.2150 c1        1 PL7     -0.192000
     27 OXT        -2.9220    0.8540    1.8940 o         1 PL7     -0.590000
     28 H101        1.5690   -2.3000    6.4960 hc        1 PL7      0.072500
     29 H102        0.9880   -3.2550    5.3550 hc        1 PL7      0.072500
     30 H111       -0.2570   -1.6010    4.4530 hc        1 PL7      0.092000
     31 H112       -0.1750   -0.7130    5.7790 hc        1 PL7      0.092000
     32 H5C1        0.7070    1.5620    1.7110 h1        1 PL7      0.085000
     33 H5C2        1.1770    0.2080    1.0010 h1        1 PL7      0.085000
     34 H3         -1.1340   -0.3350    0.6660 h1        1 PL7      0.117000
     35 H2         -0.2310    1.9510   -0.6480 hn        1 PL7      0.209000
     36 H7C1       -1.7060    1.3140   -3.4270 h1        1 PL7      0.140000
     37 H7C2       -0.2190    1.7490   -3.0300 h1        1 PL7      0.140000
     38 H40         1.3710    1.6410   -5.0560 ha        1 PL7      0.237000
     39 H36        -1.8470   -0.7320   -5.9230 ha        1 PL7      0.129000
     40 H39         1.5460    2.2370   -7.3360 ha        1 PL7      0.126000
     41 H38         0.0340    1.3350   -8.9110 ha        1 PL7      0.094500
     42 H37        -1.6480   -0.1670   -8.2080 ha        1 PL7      0.094500
@<TRIPOS>BOND
     1    1    2 1   
     2    2    3 1   
     3    2    4 1   
     4    4    5 1   
     5    4   28 1   
     6    4   29 1   
     7    5    6 1   
     8    5   30 1   
     9    5   31 1   
    10    6    7 1   
    11    6   10 1   
    12    7    8 1   
    13    7    9 1   
    14   11   12 1   
    15   12   13 1   
    16   12   32 1   
    17   12   33 1   
    18   13   14 1   
    19   13   16 1   
    20   13   34 1   
    21   14   15 1   
    22   14   27 1   
    23   16   17 1   
    24   16   35 1   
    25   17   18 1   
    26   17   19 1   
    27   19   20 1   
    28   19   36 1   
    29   19   37 1   
    30   20   21 1   
    31   21   22 1   
    32   21   26 1   
    33   22   23 1   
    34   22   38 1   
    35   23   40 1   
    36   24   25 1   
    37   24   41 1   
    38   25   42 1   
    39   26   39 1   
@<TRIPOS>SUBSTRUCTURE
     1 PL7         1 TEMP              0 ****  ****    0 ROOT
