@<TRIPOS>MOLECULE
PL7
   42    42     1     0     0
SMALL
bcc


@<TRIPOS>ATOM
      1 O16         6.4490    3.0390   -1.2870 o         1 PL7     -0.887300
      2 C9          5.3550    3.1310   -0.6380 c         1 PL7      0.896600
      3 O17         5.3550    3.1130    0.6320 o         1 PL7     -0.887300
      4 C10         4.0480    3.2080   -1.4220 c3        1 PL7     -0.164400
      5 C11         2.8570    3.6100   -0.5790 c3        1 PL7     -0.123700
      6 C8          1.5540    3.4610   -1.3130 ce        1 PL7      0.331300
      7 C12         1.1900    4.6730   -2.1990 c         1 PL7      0.843300
      8 O19         1.3260    4.5800   -3.4500 o         1 PL7     -0.848300
      9 O18         0.7900    5.7190   -1.6120 o         1 PL7     -0.848300
     10 N1          0.6960    2.4830   -1.2380 n2        1 PL7     -0.486200
     11 O13         0.9880    1.4920   -0.3850 os        1 PL7     -0.221300
     12 C5          0.2220    0.2860   -0.6170 c3        1 PL7      0.138400
     13 C3          0.2190   -0.5580    0.6750 c3        1 PL7     -0.029300
     14 C4         -0.5370   -1.8880    0.3260 c         1 PL7      0.911600
     15 O14         0.0630   -2.7850   -0.3300 o         1 PL7     -0.850800
     16 N2          1.5470   -0.8070    1.1910 n         1 PL7     -0.487900
     17 C6          1.9990   -0.3430    2.3860 c         1 PL7      0.657100
     18 O15         1.2590    0.0790    3.3090 o         1 PL7     -0.676100
     19 C7          3.5090   -0.3100    2.6540 c3        1 PL7      0.040400
     20 O34         4.1740   -1.3990    2.0120 os        1 PL7     -0.344900
     21 C35         5.4030   -1.1180    1.4350 ca        1 PL7      0.107100
     22 C40         5.7150    0.0800    0.7820 ca        1 PL7     -0.170500
     23 C39         6.9600    0.2220    0.1680 ca        1 PL7     -0.114500
     24 C38         7.8850   -0.8230    0.2040 ca        1 PL7     -0.189000
     25 C37         7.5660   -2.0170    0.8530 ca        1 PL7     -0.114500
     26 C36         6.3310   -2.1750    1.4750 ca        1 PL7     -0.170500
     27 OXT        -1.7360   -1.9840    0.7150 o         1 PL7     -0.850800
     28 H101        4.1750    3.9280   -2.2700 hc        1 PL7      0.037700
     29 H102        3.8690    2.1950   -1.8680 hc        1 PL7      0.037700
     30 H111        2.9620    4.6850   -0.2730 hc        1 PL7      0.050200
     31 H112        2.8580    2.9950    0.3610 hc        1 PL7      0.050200
     32 H5C1       -0.8410    0.5180   -0.8820 h1        1 PL7      0.039200
     33 H5C2        0.7060   -0.2810   -1.4540 h1        1 PL7      0.039200
     34 H3         -0.3690   -0.0130    1.4680 h1        1 PL7      0.080700
     35 H2          2.1990   -1.1890    0.5450 hn        1 PL7      0.322500
     36 H7C1        3.8880    0.6940    2.3270 h1        1 PL7      0.071700
     37 H7C2        3.6780   -0.4380    3.7560 h1        1 PL7      0.071700
     38 H40         5.0160    0.9420    0.7290 ha        1 PL7      0.166500
     39 H36         6.0620   -3.1120    1.9760 ha        1 PL7      0.166500
     40 H39         7.1690    1.1880   -0.3460 ha        1 PL7      0.152000
     41 H38         8.8610   -0.7070   -0.2840 ha        1 PL7      0.102000
     42 H37         8.2910   -2.8420    0.8740 ha        1 PL7      0.152000
@<TRIPOS>BOND
     1    1    2 1   
     2    2    3 1   
     3    2    4 1   
     4    4    5 1   
     5    4   28 1   
     6    4   29 1   
     7    5    6 1   
     8    5   30 1   
     9    5   31 1   
    10    6    7 1   
    11    6   10 2   
    12    7    8 1   
    13    7    9 1   
    14   10   11 1   
    15   11   12 1   
    16   12   13 1   
    17   12   32 1   
    18   12   33 1   
    19   13   14 1   
    20   13   16 1   
    21   13   34 1   
    22   14   15 1   
    23   14   27 1   
    24   16   17 1   
    25   16   35 1   
    26   17   18 2   
    27   17   19 1   
    28   19   20 1   
    29   19   36 1   
    30   19   37 1   
    31   20   21 1   
    32   21   22 ar  
    33   21   26 ar  
    34   22   23 ar  
    35   22   38 1   
    36   23   24 ar  
    37   23   40 1   
    38   24   25 ar  
    39   24   41 1   
    40   25   26 ar  
    41   25   42 1   
    42   26   39 1   
@<TRIPOS>SUBSTRUCTURE
     1 PL7         1 TEMP              0 ****  ****    0 ROOT
