@<TRIPOS>MOLECULE
PL7
   43    43     1     0     0
SMALL
bcc


@<TRIPOS>ATOM
      1 O16         4.8070    1.4530    1.5450 o         1 PL7     -0.885300
      2 C9          4.2650    1.8200    0.4700 c         1 PL7      0.913600
      3 O17         4.1070    3.0720    0.2190 o         1 PL7     -0.885300
      4 C10         3.7700    0.8140   -0.5600 c3        1 PL7     -0.181400
      5 C11         4.7070    0.7420   -1.7490 c3        1 PL7     -0.126700
      6 C8          4.0510    0.3400   -3.0390 ce        1 PL7      0.339300
      7 C12         4.6270   -0.9710   -3.6420 c         1 PL7      0.846300
      8 O19         5.7320   -0.8790   -4.2370 o         1 PL7     -0.817800
      9 O18         3.9730   -2.0280   -3.4590 o         1 PL7     -0.817800
     10 N1          3.1210    0.9720   -3.6970 n2        1 PL7     -0.476200
     11 O13         2.5670    2.0270   -3.0730 os        1 PL7     -0.246300
     12 C5          2.3360    3.1930   -3.8780 c3        1 PL7      0.145400
     13 C3          3.3320    4.3100   -3.5250 c3        1 PL7     -0.055500
     14 C4          2.6830    5.6850   -3.9490 c         1 PL7      0.918600
     15 O14         2.5540    5.8880   -5.1760 o         1 PL7     -0.811800
     16 N2          3.6570    4.3160   -2.0690 ny        1 PL7     -0.638800
     17 C6          4.9260    5.0010   -1.7120 c         1 PL7      0.566100
     18 O15         5.9180    4.8530   -2.4180 o         1 PL7     -0.471100
     19 C7          4.8380    5.8390   -0.4480 c3        1 PL7      0.044400
     20 O34         6.0810    6.4530   -0.1570 os        1 PL7     -0.320900
     21 C35         6.9660    5.7740    0.6700 ca        1 PL7      0.110100
     22 C40         6.7790    4.4820    1.1760 ca        1 PL7     -0.172000
     23 C39         7.7610    3.9390    2.0060 ca        1 PL7     -0.109000
     24 C38         8.9080    4.6650    2.3260 ca        1 PL7     -0.180000
     25 C37         9.0840    5.9500    1.8120 ca        1 PL7     -0.109000
     26 C36         8.1210    6.5150    0.9830 ca        1 PL7     -0.172000
     27 OXT         2.3410    6.4660   -3.0150 o         1 PL7     -0.811800
     28 H101        3.6850   -0.1950   -0.0840 hc        1 PL7      0.048700
     29 H102        2.7460    1.1290   -0.8880 hc        1 PL7      0.048700
     30 H111        5.5350    0.0160   -1.5270 hc        1 PL7      0.048700
     31 H112        5.1890    1.7470   -1.9070 hc        1 PL7      0.048700
     32 H5C1        2.4020    3.0010   -4.9780 h1        1 PL7      0.069200
     33 H5C2        1.2930    3.5100   -3.6070 h1        1 PL7      0.069200
     34 H3          4.2920    4.1630   -4.0930 hx        1 PL7      0.105700
     35 H2          3.7080    3.3350   -1.6770 hn        1 PL7      0.487800
     36 H7C1        4.1480    6.7090   -0.6540 h1        1 PL7      0.127700
     37 H7C2        4.4530    5.2060    0.4020 h1        1 PL7      0.127700
     38 H40         5.8840    3.8650    0.9370 ha        1 PL7      0.179500
     39 H36         8.2490    7.5210    0.5630 ha        1 PL7      0.179500
     40 H39         7.6120    2.9200    2.3980 ha        1 PL7      0.131000
     41 H38         9.6740    4.2240    2.9780 ha        1 PL7      0.113000
     42 H37         9.9910    6.5210    2.0570 ha        1 PL7      0.131000
     43 H22         2.8850    4.8020   -1.5900 hn        1 PL7      0.487800
@<TRIPOS>BOND
     1    1    2 1   
     2    2    3 1   
     3    2    4 1   
     4    4    5 1   
     5    4   28 1   
     6    4   29 1   
     7    5    6 1   
     8    5   30 1   
     9    5   31 1   
    10    6    7 1   
    11    6   10 2   
    12    7    8 1   
    13    7    9 1   
    14   10   11 1   
    15   11   12 1   
    16   12   13 1   
    17   12   32 1   
    18   12   33 1   
    19   13   14 1   
    20   13   16 1   
    21   13   34 1   
    22   14   15 1   
    23   14   27 1   
    24   16   17 1   
    25   16   35 1   
    26   16   43 1   
    27   17   18 2   
    28   17   19 1   
    29   19   20 1   
    30   19   36 1   
    31   19   37 1   
    32   20   21 1   
    33   21   22 ar  
    34   21   26 ar  
    35   22   23 ar  
    36   22   38 1   
    37   23   24 ar  
    38   23   40 1   
    39   24   25 ar  
    40   24   41 1   
    41   25   26 ar  
    42   25   42 1   
    43   26   39 1   
@<TRIPOS>SUBSTRUCTURE
     1 PL7         1 TEMP              0 ****  ****    0 ROOT
