@<TRIPOS>MOLECULE
PL7
   43    43     1     0     0
SMALL
bcc


@<TRIPOS>ATOM
      1 O16         4.8200    1.3810    1.4900 o         1 PL7     -0.885300
      2 C9          4.2820    1.7650    0.4190 c         1 PL7      0.913600
      3 O17         4.0990    3.0190    0.1990 o         1 PL7     -0.885300
      4 C10         3.8180    0.7760   -0.6420 c3        1 PL7     -0.181400
      5 C11         4.7690    0.7540   -1.8220 c3        1 PL7     -0.126700
      6 C8          4.1350    0.3730   -3.1300 ce        1 PL7      0.339300
      7 C12         4.7430   -0.9100   -3.7600 c         1 PL7      0.846300
      8 O19         5.8520   -0.7800   -4.3400 o         1 PL7     -0.817800
      9 O18         4.1080   -1.9850   -3.6110 o         1 PL7     -0.817800
     10 N1          3.1980    1.0030   -3.7810 n2        1 PL7     -0.476200
     11 O13         2.6170    2.0300   -3.1360 os        1 PL7     -0.246300
     12 C5          2.3700    3.2120   -3.9130 c3        1 PL7      0.145400
     13 C3          3.3390    4.3390   -3.5200 c3        1 PL7     -0.055500
     14 C4          2.6670    5.7110   -3.9150 c         1 PL7      0.918600
     15 O14         2.5470    5.9440   -5.1390 o         1 PL7     -0.811800
     16 N2          3.6490    4.3130   -2.0610 n4        1 PL7     -0.638800
     17 C6          4.9010    5.0140   -1.6730 c         1 PL7      0.566100
     18 O15         5.9020    4.9040   -2.3720 o         1 PL7     -0.471100
     19 C7          4.7830    5.8160   -0.3890 c3        1 PL7      0.044400
     20 O34         6.0110    6.4470   -0.0680 os        1 PL7     -0.320900
     21 C35         6.9000    5.7630    0.7510 ca        1 PL7      0.110100
     22 C40         6.7340    4.4560    1.2210 ca        1 PL7     -0.172000
     23 C39         7.7170    3.9100    2.0470 ca        1 PL7     -0.109000
     24 C38         8.8450    4.6490    2.3990 ca        1 PL7     -0.180000
     25 C37         9.0030    5.9500    1.9200 ca        1 PL7     -0.109000
     26 C36         8.0370    6.5180    1.0950 ca        1 PL7     -0.172000
     27 OXT         2.3000    6.4600   -2.9660 o         1 PL7     -0.811800
     28 H101        3.7490   -0.2470   -0.1930 hc        1 PL7      0.048700
     29 H102        2.7910    1.0790   -0.9730 hc        1 PL7      0.048700
     30 H111        5.2310    1.7730   -1.9490 hc        1 PL7      0.048700
     31 H112        5.6090    0.0400   -1.6110 hc        1 PL7      0.048700
     32 H5C1        1.3180    3.5010   -3.6450 h1        1 PL7      0.069200
     33 H5C2        2.4520    3.0500   -5.0170 h1        1 PL7      0.069200
     34 H3          4.3080    4.2260   -4.0820 hx        1 PL7      0.106700
     35 H2          2.8630    4.7720   -1.5780 hn        1 PL7      0.487800
     36 H7C1        4.0790    6.6780   -0.5790 h1        1 PL7      0.127700
     37 H7C2        4.4020    5.1540    0.4400 h1        1 PL7      0.127700
     38 H40         5.8530    3.8280    0.9570 ha        1 PL7      0.179500
     39 H36         8.1490    7.5380    0.7030 ha        1 PL7      0.179500
     40 H39         7.5830    2.8790    2.4110 ha        1 PL7      0.131000
     41 H38         9.6130    4.2070    3.0480 ha        1 PL7      0.113000
     42 H37         9.8950    6.5330    2.1900 ha        1 PL7      0.131000
     43 H22         3.7150    3.3240   -1.6940 hn        1 PL7      0.487800
@<TRIPOS>BOND
     1    1    2 1   
     2    2    3 1   
     3    2    4 1   
     4    4    5 1   
     5    4   28 1   
     6    4   29 1   
     7    5    6 1   
     8    5   30 1   
     9    5   31 1   
    10    6    7 1   
    11    6   10 2   
    12    7    8 1   
    13    7    9 1   
    14   10   11 1   
    15   11   12 1   
    16   12   13 1   
    17   12   32 1   
    18   12   33 1   
    19   13   14 1   
    20   13   16 1   
    21   13   34 1   
    22   14   15 1   
    23   14   27 1   
    24   16   17 1   
    25   16   35 1   
    26   16   43 1   
    27   17   18 2   
    28   17   19 1   
    29   19   20 1   
    30   19   36 1   
    31   19   37 1   
    32   20   21 1   
    33   21   22 ar  
    34   21   26 ar  
    35   22   23 ar  
    36   22   38 1   
    37   23   24 ar  
    38   23   40 1   
    39   24   25 ar  
    40   24   41 1   
    41   25   26 ar  
    42   25   42 1   
    43   26   39 1   
@<TRIPOS>SUBSTRUCTURE
     1 PL7         1 TEMP              0 ****  ****    0 ROOT
