@<TRIPOS>MOLECULE
PL7
   43    43     1     0     0
SMALL
bcc


@<TRIPOS>ATOM
      1 O16         4.8580    1.3390    1.4590 o         1 PL7     -0.885300
      2 C9          4.3090    1.7340    0.3980 c         1 PL7      0.913600
      3 O17         4.1140    2.9890    0.1980 o         1 PL7     -0.885300
      4 C10         3.8480    0.7560   -0.6760 c3        1 PL7     -0.181400
      5 C11         4.7920    0.7610   -1.8620 c3        1 PL7     -0.126700
      6 C8          4.1530    0.3950   -3.1710 ce        1 PL7      0.339300
      7 C12         4.7700   -0.8720   -3.8250 c         1 PL7      0.846300
      8 O19         5.8740   -0.7220   -4.4100 o         1 PL7     -0.817800
      9 O18         4.1470   -1.9560   -3.6880 o         1 PL7     -0.817800
     10 N1          3.2050    1.0240   -3.8060 n2        1 PL7     -0.476200
     11 O13         2.6180    2.0360   -3.1420 os        1 PL7     -0.246300
     12 C5          2.3540    3.2260   -3.8990 c3        1 PL7      0.145400
     13 C3          3.3150    4.3580   -3.4950 c3        1 PL7     -0.055500
     14 C4          2.6260    5.7290   -3.8650 c         1 PL7      0.918600
     15 O14         2.4950    5.9790   -5.0840 o         1 PL7     -0.811800
     16 N2          3.6350    4.3130   -2.0390 n4        1 PL7     -0.638800
     17 C6          4.8820    5.0210   -1.6490 c         1 PL7      0.566100
     18 O15         5.8800    4.9310   -2.3550 o         1 PL7     -0.471100
     19 C7          4.7640    5.8020   -0.3520 c3        1 PL7      0.044400
     20 O34         5.9870    6.4410   -0.0290 os        1 PL7     -0.320900
     21 C35         6.8900    5.7540    0.7720 ca        1 PL7      0.110100
     22 C40         6.7400    4.4380    1.2240 ca        1 PL7     -0.172000
     23 C39         7.7350    3.8900    2.0350 ca        1 PL7     -0.109000
     24 C38         8.8580    4.6360    2.3900 ca        1 PL7     -0.180000
     25 C37         8.9980    5.9460    1.9300 ca        1 PL7     -0.109000
     26 C36         8.0210    6.5160    1.1210 ca        1 PL7     -0.172000
     27 OXT         2.2580    6.4600   -2.9010 o         1 PL7     -0.811800
     28 H101        2.8160    1.0540   -0.9960 hc        1 PL7      0.048700
     29 H102        3.7920   -0.2740   -0.2420 hc        1 PL7      0.048700
     30 H111        5.6400    0.0530   -1.6660 hc        1 PL7      0.048700
     31 H112        5.2430    1.7870   -1.9760 hc        1 PL7      0.048700
     32 H5C1        1.3010    3.5000   -3.6200 h1        1 PL7      0.069200
     33 H5C2        2.4300    3.0820   -5.0060 h1        1 PL7      0.069200
     34 H3          4.2800    4.2630   -4.0650 hx        1 PL7      0.106700
     35 H2          3.7140    3.3190   -1.6880 hn        1 PL7      0.487800
     36 H7C1        4.0500    6.6590   -0.5240 h1        1 PL7      0.127700
     37 H7C2        4.3960    5.1230    0.4700 h1        1 PL7      0.127700
     38 H40         5.8640    3.8050    0.9560 ha        1 PL7      0.179500
     39 H36         8.1200    7.5420    0.7440 ha        1 PL7      0.179500
     40 H39         7.6140    2.8520    2.3840 ha        1 PL7      0.131000
     41 H38         9.6350    4.1910    3.0260 ha        1 PL7      0.113000
     42 H37         9.8860    6.5330    2.2020 ha        1 PL7      0.131000
     43 H22         2.8480    4.7560   -1.5440 hn        1 PL7      0.487800
@<TRIPOS>BOND
     1    1    2 1   
     2    2    3 1   
     3    2    4 1   
     4    4    5 1   
     5    4   28 1   
     6    4   29 1   
     7    5    6 1   
     8    5   30 1   
     9    5   31 1   
    10    6    7 1   
    11    6   10 2   
    12    7    8 1   
    13    7    9 1   
    14   10   11 1   
    15   11   12 1   
    16   12   13 1   
    17   12   32 1   
    18   12   33 1   
    19   13   14 1   
    20   13   16 1   
    21   13   34 1   
    22   14   15 1   
    23   14   27 1   
    24   16   17 1   
    25   16   35 1   
    26   16   43 1   
    27   17   18 2   
    28   17   19 1   
    29   19   20 1   
    30   19   36 1   
    31   19   37 1   
    32   20   21 1   
    33   21   22 ar  
    34   21   26 ar  
    35   22   23 ar  
    36   22   38 1   
    37   23   24 ar  
    38   23   40 1   
    39   24   25 ar  
    40   24   41 1   
    41   25   26 ar  
    42   25   42 1   
    43   26   39 1   
@<TRIPOS>SUBSTRUCTURE
     1 PL7         1 TEMP              0 ****  ****    0 ROOT
