@<TRIPOS>MOLECULE
PL8
   47    48     1     0     0
SMALL
bcc


@<TRIPOS>ATOM
      1 CAA         3.3220    4.8380    0.8790 c3        1 PL8     -0.111400
      2 OAB        -1.6500    2.0760    0.9240 o         1 PL8     -0.725500
      3 OAC         1.5990   -2.5980    0.5100 o         1 PL8     -0.917500
      4 OAD        -8.4030   -0.1310    1.4560 oh        1 PL8     -0.601800
      5 OAE         1.0340    3.3690    0.9250 oh        1 PL8     -0.536100
      6 OAF         2.6490   -3.7990   -1.4950 o         1 PL8     -0.917500
      7 OAG         0.5690   -2.2890   -1.7770 o         1 PL8     -0.917500
      8 CAH        -3.3360   -0.7210   -1.5070 cc        1 PL8     -0.136000
      9 CAI        -1.9220   -0.7160   -1.4140 cc        1 PL8     -0.184000
     10 CAJ         4.5290    1.4660    0.0190 ca        1 PL8      0.319200
     11 CAK        -7.7690   -0.1720    0.1850 c3        1 PL8      0.129400
     12 CAL        -6.2810    0.0460    0.4040 c3        1 PL8     -0.086400
     13 CAN         0.8940    0.4380    0.5080 c3        1 PL8      0.158100
     14 CAO         3.5330   -0.8240   -0.2710 c3        1 PL8      0.243700
     15 NAP         0.1280    0.3940   -0.7320 nh        1 PL8     -0.701000
     16 NAQ        -3.4600    1.1240    0.0040 n         1 PL8     -0.429100
     17 NAR         4.5500    2.7800    0.2870 nb        1 PL8     -0.682000
     18 OAS         2.6980   -1.2380   -1.2730 os        1 PL8     -0.564200
     19 CAT         3.3720    3.3770    0.5810 ca        1 PL8      0.307600
     20 CAU        -4.0930    0.1920   -0.8110 cd        1 PL8     -0.095600
     21 CAV         3.3730    0.6470    0.0380 ca        1 PL8     -0.111600
     22 CAW         2.1550    2.6400    0.6170 ca        1 PL8      0.026800
     23 CAX        -1.2540    0.2340   -0.6570 cd        1 PL8      0.091800
     24 CAY         2.1520    1.2510    0.3700 ca        1 PL8     -0.092300
     25 CAZ        -2.0720    1.1940    0.1330 c         1 PL8      0.668700
     26 PBA         1.7910   -2.6880   -0.9840 p5        1 PL8      1.323900
     27 H1AA        2.5310    5.3140    0.2480 hc        1 PL8      0.026700
     28 H2AA        3.0420    4.9860    1.9520 hc        1 PL8      0.026700
     29 H3AA        4.2960    5.3470    0.6870 hc        1 PL8      0.026700
     30 HOAD       -9.3170   -0.3950    1.3120 ho        1 PL8      0.385000
     31 HOAE        0.2520    2.8100    0.7680 ho        1 PL8      0.462000
     32 HAH        -3.8210   -1.4790   -2.1360 ha        1 PL8      0.122000
     33 HAI        -1.3240   -1.5060   -1.9320 ha        1 PL8      0.253000
     34 HAJ         5.5070    1.0220   -0.2380 h4        1 PL8      0.001100
     35 H1AK       -7.9520   -1.1660   -0.3050 h1        1 PL8      0.013700
     36 H2AK       -8.1970    0.6350   -0.4690 h1        1 PL8      0.013700
     37 H1AL       -6.1330    0.9470    1.0550 hc        1 PL8      0.062200
     38 H2AL       -5.8500   -0.8320    0.9520 hc        1 PL8      0.062200
     39 H1AM       -5.9020   -0.5910   -1.6300 hc        1 PL8      0.037200
     40 H2AM       -5.9060    1.2020   -1.3880 hc        1 PL8      0.037200
     41 H1AN        0.2730    0.8560    1.3480 h1        1 PL8      0.101200
     42 H2AN        1.1960   -0.6440    0.7730 h1        1 PL8      0.101200
     43 H1AO        3.3460   -1.4060    0.6830 h1        1 PL8      0.015700
     44 H2AO        4.6150   -0.9790   -0.5800 h1        1 PL8      0.015700
     45 HNAP        0.5440   -0.3330   -1.3450 hn        1 PL8      0.491800
     46 HNAQ       -4.0140    1.7630    0.5250 hn        1 PL8      0.302500
     47 CAM        -5.5830    0.2270   -0.9290 c3        1 PL8     -0.021200
@<TRIPOS>BOND
     1    1   19 1   
     2    1   27 1   
     3    1   28 1   
     4    1   29 1   
     5    2   25 2   
     6    3   26 1   
     7    4   11 1   
     8    4   30 1   
     9    5   22 1   
    10    5   31 1   
    11    6   26 1   
    12    7   26 1   
    13    8    9 1   
    14    8   20 2   
    15    8   32 1   
    16    9   23 2   
    17    9   33 1   
    18   10   17 ar  
    19   10   21 ar  
    20   10   34 1   
    21   11   12 1   
    22   11   35 1   
    23   11   36 1   
    24   12   37 1   
    25   12   38 1   
    26   12   47 1   
    27   13   15 1   
    28   13   24 1   
    29   13   41 1   
    30   13   42 1   
    31   14   18 1   
    32   14   21 1   
    33   14   43 1   
    34   14   44 1   
    35   15   23 1   
    36   15   45 1   
    37   16   20 1   
    38   16   25 1   
    39   16   46 1   
    40   17   19 ar  
    41   18   26 1   
    42   19   22 ar  
    43   20   47 1   
    44   21   24 ar  
    45   22   24 ar  
    46   23   25 1   
    47   39   47 1   
    48   40   47 1   
@<TRIPOS>SUBSTRUCTURE
     1 PL8         1 TEMP              0 ****  ****    0 ROOT
