@<TRIPOS>MOLECULE
PL8
   47    46     1     0     0
SMALL
bcc


@<TRIPOS>ATOM
      1 CAA         1.9500   -2.3320    5.4590 c3        1 PL8     -0.151000
      2 OAB        -0.9030   -2.6700   -0.2740 o         1 PL8     -0.406000
      3 OAC         2.0520    5.8760    3.4240 o         1 PL8     -0.922167
      4 OAD        -0.4530   -1.9330   -7.9130 oh        1 PL8     -0.329000
      5 OAE        -0.1360   -1.7010    3.6940 oh        1 PL8     -0.283000
      6 OAF        -0.2170    5.8540    4.3950 o         1 PL8     -0.922167
      7 OAG         0.1170    5.2690    2.0250 o         1 PL8     -0.922167
      8 CAH        -1.3820    0.5450   -2.8780 c1        1 PL8     -0.132000
      9 CAI        -0.9420    0.8000   -1.4900 c1        1 PL8     -0.218000
     10 CAJ         2.1160    1.1580    4.6660 c1        1 PL8     -0.068000
     11 CAK        -1.5580   -1.6820   -7.0710 c3        1 PL8     -0.021000
     12 CAL        -1.0590   -1.3520   -5.6560 c3        1 PL8     -0.164000
     13 CAM        -2.2490   -1.1230   -4.7380 c3        1 PL8     -0.111000
     14 CAN         0.8810    0.0020    1.2630 c3        1 PL8      0.006000
     15 CAO         1.4210    2.7620    2.8400 c3        1 PL8      0.090000
     16 NAP        -0.5030   -0.0630    0.8450 n3        1 PL8     -0.262000
     17 NAQ        -1.7020   -1.9580   -2.3370 n         1 PL8     -0.273000
     18 NAR         2.1640   -0.0970    5.2130 n1        1 PL8     -0.141000
     19 OAS         0.8970    3.6550    3.8080 os        1 PL8     -0.713000
     20 CAT         1.6130   -1.1530    4.5500 c2        1 PL8     -0.146000
     21 CAU        -1.7490   -0.8620   -3.3070 c2        1 PL8     -0.067000
     22 CAV         1.5040    1.3560    3.4350 c2        1 PL8     -0.022000
     23 CAW         0.9980   -0.9580    3.3140 c2        1 PL8      0.008000
     24 CAX        -0.8280   -0.3190   -0.5400 c2        1 PL8      0.041000
     25 CAY         0.9480    0.2940    2.7670 c2        1 PL8     -0.125000
     26 CAZ        -1.1560   -1.7280   -0.9940 c2        1 PL8      0.305000
     27 PBA         0.7100    5.1820    3.4070 p5        1 PL8      1.539500
     28 H1AA        2.8950   -2.2870    5.7170 hc        1 PL8      0.066667
     29 H2AA        1.3890   -2.2950    6.2650 hc        1 PL8      0.066667
     30 H3AA        1.7810   -3.1720    4.9820 hc        1 PL8      0.066667
     31 HOAD       -0.7350   -2.0340   -8.7510 ho        1 PL8      0.190000
     32 HOAE       -0.0730   -2.5260    3.3690 ho        1 PL8      0.203000
     33 HAH        -1.4580    1.2820   -3.5090 ha        1 PL8      0.135000
     34 HAI        -0.7040    1.7060   -1.2100 ha        1 PL8      0.166000
     35 HAJ         2.5590    1.9040    5.1170 ha        1 PL8      0.221000
     36 H1AK       -2.1320   -2.4760   -7.0380 h1        1 PL8      0.057000
     37 H2AK       -2.0720   -0.9200   -7.4230 h1        1 PL8      0.057000
     38 H1AL       -0.5250   -2.0970   -5.3170 hc        1 PL8      0.099000
     39 H2AL       -0.5080   -0.5430   -5.6850 hc        1 PL8      0.099000
     40 H1AM       -2.7590   -0.3470   -5.0520 hc        1 PL8      0.086500
     41 H2AM       -2.8220   -1.9130   -4.7440 hc        1 PL8      0.086500
     42 H1AN        1.3190   -0.8530    1.0770 h1        1 PL8      0.105000
     43 H2AN        1.3380    0.7170    0.7710 h1        1 PL8      0.105000
     44 H1AO        2.3190    3.0580    2.5720 h1        1 PL8      0.065500
     45 H2AO        0.8330    2.7500    2.0530 h1        1 PL8      0.065500
     46 HNAP       -1.1730    0.0100    1.4680 hn        1 PL8      0.237000
     47 HNAQ       -2.0080   -2.7860   -2.5690 hn        1 PL8      0.229000
@<TRIPOS>BOND
     1    1   20 1   
     2    1   28 1   
     3    1   29 1   
     4    1   30 1   
     5    2   26 1   
     6    3   27 1   
     7    4   11 1   
     8    4   31 1   
     9    5   23 1   
    10    5   32 1   
    11    6   27 1   
    12    7   27 1   
    13    8   21 1   
    14    8   33 1   
    15    9   24 1   
    16    9   34 1   
    17   10   22 1   
    18   10   35 1   
    19   11   12 1   
    20   11   36 1   
    21   11   37 1   
    22   12   13 1   
    23   12   38 1   
    24   12   39 1   
    25   13   21 1   
    26   13   40 1   
    27   13   41 1   
    28   14   16 1   
    29   14   25 1   
    30   14   42 1   
    31   14   43 1   
    32   15   19 1   
    33   15   22 1   
    34   15   44 1   
    35   15   45 1   
    36   16   24 1   
    37   16   46 1   
    38   17   21 1   
    39   17   26 1   
    40   17   47 1   
    41   18   20 1   
    42   19   27 1   
    43   20   23 1   
    44   22   25 1   
    45   23   25 1   
    46   24   26 1   
@<TRIPOS>SUBSTRUCTURE
     1 PL8         1 TEMP              0 ****  ****    0 ROOT
