@<TRIPOS>MOLECULE
PL8
   48    59     1     0     0
SMALL
bcc


@<TRIPOS>ATOM
      1 CAA         0.0000    0.0000    0.0000 c3        1 PL8     -0.228000
      2 OAB         3.8420   -0.5340   -6.1040 o         1 PL8     -0.435000
      3 OAC         8.3530   -1.1440   -1.5150 o         1 PL8     -0.389833
      4 OAD         7.8700    2.6580  -11.5210 oh        1 PL8     -0.400000
      5 OAE         0.6600    0.0010   -2.7470 oh        1 PL8     -0.211000
      6 OAF         8.5130   -0.1460    0.7980 o         1 PL8     -0.389833
      7 OAG         8.4100    1.3730   -1.3450 o         1 PL8     -0.389833
      8 CAH         4.1090    3.2130   -7.3620 c3        1 PL8     -0.108000
      9 CAI         3.8130    2.9720   -6.0130 c3        1 PL8     -0.318000
     10 CAJ         3.6770    0.0000    0.0000 c2        1 PL8     -0.162000
     11 CAK         6.4540    2.6890  -11.3310 DU        1 PL8      0.086000
     12 CAL         6.1300    2.4140   -9.8620 DU        1 PL8      0.321000
     13 CAN         3.3280    0.0270   -3.7630 DU        1 PL8     -0.606000
     14 CAO         5.4570    0.0060   -1.7640 c3        1 PL8      0.122000
     15 NAP         3.4240    1.4120   -4.2270 ny        1 PL8      0.607000
     16 NAQ         4.1980    0.8920   -7.7740 n7        1 PL8     -0.112000
     17 NAR         2.4140    0.0000    0.3820 n2        1 PL8      0.028000
     18 OAS         6.2940   -0.0020   -0.6060 os        1 PL8     -0.522000
     19 CAT         1.4250    0.0010   -0.4890 c3        1 PL8      0.004000
     20 CAU         4.2950    2.1770   -8.2110 c2        1 PL8     -0.245000
     21 CAV         4.0120    0.0060   -1.3410 DU        1 PL8     -0.106000
     22 CAW         1.6830    0.0010   -1.8530 c2        1 PL8      0.003000
     23 CAX         3.7210    1.6820   -5.5700 c2        1 PL8     -0.852000
     24 CAY         3.0030    0.0140   -2.2910 c2        1 PL8     -0.206000
     25 CAZ         3.9260    0.6230   -6.4820 c3        1 PL8      0.495000
     26 PBA         7.9020   -0.0050   -0.6850 p5        1 PL8      1.069500
     27 H1AA        0.4670    0.2410   -0.9470 DU        1 PL8      0.076000
     28 H2AA       -0.4760   -0.9330   -0.2760 hc        1 PL8      0.085500
     29 H3AA       -0.5370    0.8260   -0.4500 hc        1 PL8      0.085500
     30 HOAD        7.3770    2.4980  -10.7330 DU        1 PL8      0.309000
     31 HOAE        1.2180    0.2140   -3.4770 ho        1 PL8      0.229000
     32 HAH         3.5490    2.5730   -6.6920 DU        1 PL8      0.152500
     33 HAI         4.0170    3.6040   -6.8680 DU        1 PL8      0.152500
     34 HAJ         3.6740    0.6290   -0.8820 DU        1 PL8      0.173000
     35 H1AK        6.2820    2.4560  -10.2870 ha        1 PL8     -0.267000
     36 H2AK        6.0740    3.6650  -11.6090 ha        1 PL8     -0.267000
     37 H1AL        6.0580    2.1690  -10.9150 DU        1 PL8      0.082000
     38 H2AL        6.4750    1.4260   -9.5820 ha        1 PL8      0.091000
     39 H1AM        5.6110    2.8120   -9.4410 DU        1 PL8      0.154000
     40 H2AM        4.4880    3.4510  -10.0490 hc        1 PL8      0.053000
     41 H1AN        3.4890    0.2930   -4.8000 hx        1 PL8      0.261000
     42 H2AN        4.2730   -0.4760   -3.9280 hx        1 PL8      0.261000
     43 H1AO        4.6480   -0.1310   -2.4710 DU        1 PL8      0.149000
     44 H2AO        5.6620    0.8930   -2.3510 h1        1 PL8     -0.019000
     45 HNAP        4.0280    0.7930   -3.7240 DU        1 PL8      0.179000
     46 HNAQ        4.1660    1.1330   -6.8030 DU        1 PL8      0.098000
     47 HAP2        2.5040    1.6290   -3.8990 hn        1 PL8      0.054000
     48 CAM         4.6140    2.4480   -9.6580 c3        1 PL8     -0.149000
@<TRIPOS>BOND
     1    1   19 1   
     2    1   27 1   
     3    1   28 1   
     4    1   29 1   
     5    2   25 1   
     6    3   26 1   
     7    4   11 1   
     8    4   30 1   
     9    5   22 1   
    10    5   31 1   
    11    6   26 1   
    12    7   26 1   
    13    8    9 1   
    14    8   20 1   
    15    8   32 1   
    16    8   33 1   
    17    9   23 1   
    18    9   32 1   
    19    9   33 1   
    20   10   17 1   
    21   10   21 1   
    22   10   34 1   
    23   11   12 1   
    24   11   30 1   
    25   11   35 1   
    26   11   36 1   
    27   11   37 1   
    28   12   37 1   
    29   12   38 1   
    30   12   39 1   
    31   12   48 1   
    32   13   15 1   
    33   13   24 1   
    34   13   41 1   
    35   13   42 1   
    36   13   45 1   
    37   14   18 1   
    38   14   21 1   
    39   14   43 1   
    40   14   44 1   
    41   15   23 1   
    42   15   45 1   
    43   15   47 1   
    44   16   20 1   
    45   16   25 1   
    46   16   46 1   
    47   17   19 1   
    48   18   26 1   
    49   19   22 1   
    50   19   27 1   
    51   20   48 1   
    52   21   24 1   
    53   21   34 1   
    54   21   43 1   
    55   22   24 1   
    56   23   25 1   
    57   25   46 1   
    58   39   48 1   
    59   40   48 1   
@<TRIPOS>SUBSTRUCTURE
     1 PL8         1 TEMP              0 ****  ****    0 ROOT
