@<TRIPOS>MOLECULE
PL9
  135   135     1     0     0
SMALL
bcc


@<TRIPOS>ATOM
      1 C2          1.5650   -0.0880    0.0370 cc        1 PL9     -0.200200
      2 C3          2.4740    0.8930   -0.0750 cd        1 PL9     -0.112400
      3 C4          2.7560    1.7980    1.0700 c         1 PL9      0.557500
      4 C5          1.7850    1.7590    2.1920 cc        1 PL9     -0.141400
      5 C6          0.8610    0.7760    2.2890 cd        1 PL9     -0.134400
      6 C1          0.7810   -0.2990    1.2690 c         1 PL9      0.553500
      7 C7          3.2580    1.1170   -1.3250 c3        1 PL9     -0.014000
      8 C8          2.7970    2.3280   -2.0510 c2        1 PL9     -0.179200
      9 C9          1.9530    2.3370   -3.0930 c2        1 PL9     -0.101400
     10 C10         1.5890    3.6040   -3.7770 c3        1 PL9     -0.063900
     11 C11         1.3020    1.1150   -3.6440 c3        1 PL9     -0.047200
     12 C12         2.1550    0.4480   -4.7120 c3        1 PL9     -0.042200
     13 C13         1.4580   -0.7330   -5.2770 c2        1 PL9     -0.183200
     14 C14         1.6620   -2.0030   -4.8950 c2        1 PL9     -0.110400
     15 C15         2.6290   -2.3770   -3.8330 c3        1 PL9     -0.059900
     16 C16         0.8950   -3.1240   -5.5110 c3        1 PL9     -0.039200
     17 C17         1.7700   -4.0730   -6.3150 c3        1 PL9     -0.041200
     18 C18         2.2070   -3.4820   -7.6010 c2        1 PL9     -0.171200
     19 C19         1.7630   -3.8480   -8.8130 c2        1 PL9     -0.116400
     20 C20         0.7360   -4.9000   -9.0170 c3        1 PL9     -0.058900
     21 C21         2.3060   -3.2220  -10.0540 c3        1 PL9     -0.040200
     22 C22         1.3480   -2.2190  -10.6740 c3        1 PL9     -0.042200
     23 C23         1.4100   -0.8870  -10.0280 c2        1 PL9     -0.167200
     24 C24         0.9150    0.2290  -10.5860 c2        1 PL9     -0.126400
     25 C25         0.2540    0.2180  -11.9140 c3        1 PL9     -0.057900
     26 C26         1.0380    1.5580   -9.9230 c3        1 PL9     -0.036200
     27 C27        -0.2900    2.0940   -9.4130 c3        1 PL9     -0.042200
     28 C28        -0.6040    1.6720   -8.0280 c2        1 PL9     -0.172200
     29 C29        -1.8020    1.8530   -7.4490 c2        1 PL9     -0.122400
     30 C30        -2.9500    2.4590   -8.1660 c3        1 PL9     -0.059900
     31 C31        -2.0530    1.4230   -6.0430 c3        1 PL9     -0.038200
     32 C32        -2.0120    2.5790   -5.0560 c3        1 PL9     -0.045200
     33 C33        -3.2860    3.3320   -4.9870 c2        1 PL9     -0.173200
     34 C34        -3.3860    4.6600   -4.8100 c2        1 PL9     -0.119400
     35 C35        -2.2040    5.5480   -4.6990 c3        1 PL9     -0.057900
     36 C36        -4.7200    5.3240   -4.7450 c3        1 PL9     -0.040200
     37 C37        -5.0720    5.8250   -3.3560 c3        1 PL9     -0.041200
     38 C38        -5.2050    4.7310   -2.3660 c2        1 PL9     -0.174200
     39 C39        -5.8640    4.8450   -1.2020 c2        1 PL9     -0.123400
     40 C40        -6.5700    6.0860   -0.8050 c3        1 PL9     -0.057900
     41 C41        -5.9310    3.7060   -0.2410 c3        1 PL9     -0.039200
     42 C42        -5.0440    3.9080    0.9760 c3        1 PL9     -0.042200
     43 C43        -3.6070    3.9890    0.6300 c2        1 PL9     -0.167200
     44 C44        -2.6080    3.8270    1.5120 c2        1 PL9     -0.128400
     45 C45        -2.8460    3.5090    2.9400 c3        1 PL9     -0.057900
     46 C46        -1.1820    3.9370    1.0890 c3        1 PL9     -0.042200
     47 C47        -0.5330    5.2370    1.5330 c3        1 PL9     -0.042200
     48 C48        -1.0580    6.4160    0.8070 c2        1 PL9     -0.172200
     49 C49        -0.4500    7.6130    0.7910 c2        1 PL9     -0.127400
     50 C50         0.8300    7.8630    1.4970 c3        1 PL9     -0.056900
     51 C51        -1.0200    8.7680    0.0570 c3        1 PL9     -0.056900
     52 C52         1.8800    2.8460    3.1930 c3        1 PL9     -0.071900
     53 C53        -0.1150    0.7210    3.4010 c3        1 PL9     -0.071900
     54 O1          3.7490    2.5350    1.0880 o         1 PL9     -0.502100
     55 O2          0.0900   -1.3130    1.4260 o         1 PL9     -0.503100
     56 HC2         1.3570   -0.7910   -0.7880 ha        1 PL9      0.159000
     57 HC71        3.1930    0.2080   -1.9840 hc        1 PL9      0.067200
     58 HC72        4.3410    1.2550   -1.0450 hc        1 PL9      0.067200
     59 HC8         3.2190    3.2730   -1.6650 ha        1 PL9      0.133000
     60 H101        0.4870    3.7870   -3.6870 hc        1 PL9      0.044700
     61 H102        1.8400    3.5330   -4.8650 hc        1 PL9      0.044700
     62 H103        2.1300    4.4800   -3.3430 hc        1 PL9      0.044700
     63 H111        0.3060    1.3900   -4.0900 hc        1 PL9      0.049700
     64 H112        1.1020    0.3800   -2.8180 hc        1 PL9      0.049700
     65 H121        3.1460    0.1550   -4.2720 hc        1 PL9      0.047700
     66 H122        2.3620    1.1850   -5.5350 hc        1 PL9      0.047700
     67 H13         0.7200   -0.5010   -6.0650 ha        1 PL9      0.124000
     68 H151        2.5120   -3.4480   -3.5360 hc        1 PL9      0.041033
     69 H152        3.6780   -2.2260   -4.1930 hc        1 PL9      0.041033
     70 H153        2.4770   -1.7420   -2.9230 hc        1 PL9      0.041033
     71 H161        0.3980   -3.7070   -4.6880 hc        1 PL9      0.048700
     72 H162        0.0830   -2.7250   -6.1750 hc        1 PL9      0.048700
     73 H171        2.6800   -4.3430   -5.7120 hc        1 PL9      0.045700
     74 H172        1.1960   -5.0230   -6.4910 hc        1 PL9      0.045700
     75 H18         2.9590   -2.6800   -7.5050 ha        1 PL9      0.122000
     76 H201        0.3720   -4.9080  -10.0730 hc        1 PL9      0.040700
     77 H202        1.1640   -5.9080   -8.7860 hc        1 PL9      0.040700
     78 H203       -0.1430   -4.7310   -8.3460 hc        1 PL9      0.040700
     79 H211        3.2860   -2.7170   -9.8390 hc        1 PL9      0.046200
     80 H212        2.5100   -4.0350  -10.8030 hc        1 PL9      0.046200
     81 H221        1.5950   -2.1150  -11.7670 hc        1 PL9      0.048200
     82 H222        0.2960   -2.6120  -10.6140 hc        1 PL9      0.048200
     83 H23         1.8910   -0.8580   -9.0360 ha        1 PL9      0.127000
     84 H251        1.0070    0.0130  -12.7170 hc        1 PL9      0.040033
     85 H252       -0.2360    1.1970  -12.1350 hc        1 PL9      0.040033
     86 H253       -0.5240   -0.5850  -11.9580 hc        1 PL9      0.040033
     87 H261        1.7750    1.5050   -9.0770 hc        1 PL9      0.044200
     88 H262        1.4530    2.2860  -10.6740 hc        1 PL9      0.044200
     89 H271       -1.1170    1.7740  -10.1050 hc        1 PL9      0.048700
     90 H272       -0.2590    3.2190   -9.4430 hc        1 PL9      0.048700
     91 H28         0.2190    1.1980   -7.4680 ha        1 PL9      0.121000
     92 H301       -3.4510    1.6860   -8.8020 hc        1 PL9      0.042367
     93 H302       -3.7000    2.8680   -7.4450 hc        1 PL9      0.042367
     94 H303       -2.6120    3.2920   -8.8330 hc        1 PL9      0.042367
     95 H311       -1.2740    0.6710   -5.7360 hc        1 PL9      0.045200
     96 H312       -3.0500    0.9090   -5.9870 hc        1 PL9      0.045200
     97 H321       -1.8010    2.1650   -4.0300 hc        1 PL9      0.049200
     98 H322       -1.1560    3.2590   -5.3170 hc        1 PL9      0.049200
     99 H33        -4.1970    2.7160   -5.0700 ha        1 PL9      0.120000
    100 H351       -1.6690    5.6030   -5.6810 hc        1 PL9      0.041367
    101 H352       -2.5010    6.5840   -4.4030 hc        1 PL9      0.041367
    102 H353       -1.4850    5.1580   -3.9340 hc        1 PL9      0.041367
    103 H361       -4.7210    6.1980   -5.4520 hc        1 PL9      0.045700
    104 H362       -5.5210    4.6160   -5.0900 hc        1 PL9      0.045700
    105 H371       -6.0330    6.4060   -3.4180 hc        1 PL9      0.047700
    106 H372       -4.2790    6.5400   -3.0020 hc        1 PL9      0.047700
    107 H38        -4.6980    3.7880   -2.6360 ha        1 PL9      0.129000
    108 H401       -7.4990    6.2110   -1.4170 hc        1 PL9      0.040367
    109 H402       -5.9210    6.9820   -0.9740 hc        1 PL9      0.040367
    110 H403       -6.8610    6.0610    0.2740 hc        1 PL9      0.040367
    111 H411       -5.6360    2.7510   -0.7540 hc        1 PL9      0.045700
    112 H412       -6.9940    3.5850    0.1050 hc        1 PL9      0.045700
    113 H421       -5.3450    4.8540    1.5050 hc        1 PL9      0.047700
    114 H422       -5.2200    3.0600    1.6920 hc        1 PL9      0.047700
    115 H43        -3.3890    4.2150   -0.4290 ha        1 PL9      0.131000
    116 H451       -3.1230    2.4290    3.0500 hc        1 PL9      0.039367
    117 H452       -3.6840    4.1260    3.3500 hc        1 PL9      0.039367
    118 H453       -1.9330    3.7000    3.5550 hc        1 PL9      0.039367
    119 H461       -1.1010    3.8490   -0.0270 hc        1 PL9      0.045700
    120 H462       -0.6060    3.0780    1.5340 hc        1 PL9      0.045700
    121 H471        0.5780    5.1570    1.3740 hc        1 PL9      0.046200
    122 H472       -0.6960    5.3810    2.6370 hc        1 PL9      0.046200
    123 H48        -2.0110    6.2590    0.2730 ha        1 PL9      0.130000
    124 H501        0.7810    7.4800    2.5480 hc        1 PL9      0.039700
    125 H502        1.0690    8.9540    1.5300 hc        1 PL9      0.039700
    126 H503        1.6680    7.3340    0.9760 hc        1 PL9      0.039700
    127 H511       -0.2780    9.1540   -0.6860 hc        1 PL9      0.039700
    128 H512       -1.9550    8.4900   -0.4880 hc        1 PL9      0.039700
    129 H513       -1.2600    9.5950    0.7710 hc        1 PL9      0.039700
    130 H521        2.8050    3.4560    3.0400 hc        1 PL9      0.060367
    131 H522        1.8980    2.4250    4.2300 hc        1 PL9      0.060367
    132 H523        0.9880    3.5210    3.1060 hc        1 PL9      0.060367
    133 H531       -0.7880    1.6180    3.3640 hc        1 PL9      0.060700
    134 H532       -0.7440   -0.2020    3.3400 hc        1 PL9      0.060700
    135 H533        0.4160    0.7260    4.3860 hc        1 PL9      0.060700
@<TRIPOS>BOND
     1    1    2 2   
     2    1    6 1   
     3    1   56 1   
     4    2    3 1   
     5    2    7 1   
     6    3    4 1   
     7    3   54 2   
     8    4    5 2   
     9    4   52 1   
    10    5    6 1   
    11    5   53 1   
    12    6   55 2   
    13    7    8 1   
    14    7   57 1   
    15    7   58 1   
    16    8    9 2   
    17    8   59 1   
    18    9   10 1   
    19    9   11 1   
    20   10   60 1   
    21   10   61 1   
    22   10   62 1   
    23   11   12 1   
    24   11   63 1   
    25   11   64 1   
    26   12   13 1   
    27   12   65 1   
    28   12   66 1   
    29   13   14 2   
    30   13   67 1   
    31   14   15 1   
    32   14   16 1   
    33   15   68 1   
    34   15   69 1   
    35   15   70 1   
    36   16   17 1   
    37   16   71 1   
    38   16   72 1   
    39   17   18 1   
    40   17   73 1   
    41   17   74 1   
    42   18   19 2   
    43   18   75 1   
    44   19   20 1   
    45   19   21 1   
    46   20   76 1   
    47   20   77 1   
    48   20   78 1   
    49   21   22 1   
    50   21   79 1   
    51   21   80 1   
    52   22   23 1   
    53   22   81 1   
    54   22   82 1   
    55   23   24 2   
    56   23   83 1   
    57   24   25 1   
    58   24   26 1   
    59   25   84 1   
    60   25   85 1   
    61   25   86 1   
    62   26   27 1   
    63   26   87 1   
    64   26   88 1   
    65   27   28 1   
    66   27   89 1   
    67   27   90 1   
    68   28   29 2   
    69   28   91 1   
    70   29   30 1   
    71   29   31 1   
    72   30   92 1   
    73   30   93 1   
    74   30   94 1   
    75   31   32 1   
    76   31   95 1   
    77   31   96 1   
    78   32   33 1   
    79   32   97 1   
    80   32   98 1   
    81   33   34 2   
    82   33   99 1   
    83   34   35 1   
    84   34   36 1   
    85   35  100 1   
    86   35  101 1   
    87   35  102 1   
    88   36   37 1   
    89   36  103 1   
    90   36  104 1   
    91   37   38 1   
    92   37  105 1   
    93   37  106 1   
    94   38   39 2   
    95   38  107 1   
    96   39   40 1   
    97   39   41 1   
    98   40  108 1   
    99   40  109 1   
   100   40  110 1   
   101   41   42 1   
   102   41  111 1   
   103   41  112 1   
   104   42   43 1   
   105   42  113 1   
   106   42  114 1   
   107   43   44 2   
   108   43  115 1   
   109   44   45 1   
   110   44   46 1   
   111   45  116 1   
   112   45  117 1   
   113   45  118 1   
   114   46   47 1   
   115   46  119 1   
   116   46  120 1   
   117   47   48 1   
   118   47  121 1   
   119   47  122 1   
   120   48   49 2   
   121   48  123 1   
   122   49   50 1   
   123   49   51 1   
   124   50  124 1   
   125   50  125 1   
   126   50  126 1   
   127   51  127 1   
   128   51  128 1   
   129   51  129 1   
   130   52  130 1   
   131   52  131 1   
   132   52  132 1   
   133   53  133 1   
   134   53  134 1   
   135   53  135 1   
@<TRIPOS>SUBSTRUCTURE
     1 PL9         1 TEMP              0 ****  ****    0 ROOT
