@<TRIPOS>MOLECULE
PL9
  135   135     1     0     0
SMALL
bcc


@<TRIPOS>ATOM
      1 C2          1.5810   -0.0720    0.0380 cc        1 PL9     -0.200200
      2 C3          2.4810    0.9170   -0.0750 cd        1 PL9     -0.112400
      3 C4          2.7540    1.8260    1.0690 c         1 PL9      0.557500
      4 C5          1.7820    1.7800    2.1900 cc        1 PL9     -0.141400
      5 C6          0.8660    0.7900    2.2880 cd        1 PL9     -0.134400
      6 C1          0.7970   -0.2880    1.2690 c         1 PL9      0.553500
      7 C7          3.2640    1.1460   -1.3240 c3        1 PL9     -0.014000
      8 C8          2.7940    2.3530   -2.0520 c2        1 PL9     -0.179200
      9 C9          1.9490    2.3540   -3.0940 c2        1 PL9     -0.101400
     10 C10         1.5750    3.6180   -3.7790 c3        1 PL9     -0.063900
     11 C11         1.3070    1.1270   -3.6430 c3        1 PL9     -0.047200
     12 C12         2.1630    0.4640   -4.7110 c3        1 PL9     -0.042200
     13 C13         1.4760   -0.7230   -5.2720 c2        1 PL9     -0.183200
     14 C14         1.6920   -1.9910   -4.8870 c2        1 PL9     -0.110400
     15 C15         2.6620   -2.3540   -3.8250 c3        1 PL9     -0.059900
     16 C16         0.9340   -3.1200   -5.5000 c3        1 PL9     -0.039200
     17 C17         1.8170   -4.0650   -6.3000 c3        1 PL9     -0.041200
     18 C18         2.2480   -3.4750   -7.5890 c2        1 PL9     -0.172200
     19 C19         1.7950   -3.8410   -8.7980 c2        1 PL9     -0.116400
     20 C20         0.7640   -4.8900   -8.9940 c3        1 PL9     -0.058900
     21 C21         2.3330   -3.2190  -10.0430 c3        1 PL9     -0.040200
     22 C22         1.3730   -2.2150  -10.6600 c3        1 PL9     -0.042200
     23 C23         1.4380   -0.8830  -10.0140 c2        1 PL9     -0.167200
     24 C24         0.9480    0.2350  -10.5730 c2        1 PL9     -0.126400
     25 C25         0.2900    0.2260  -11.9030 c3        1 PL9     -0.057900
     26 C26         1.0720    1.5630   -9.9090 c3        1 PL9     -0.036200
     27 C27        -0.2560    2.1030   -9.4040 c3        1 PL9     -0.042200
     28 C28        -0.5790    1.6770   -8.0220 c2        1 PL9     -0.172200
     29 C29        -1.7810    1.8540   -7.4510 c2        1 PL9     -0.122400
     30 C30        -2.9250    2.4600   -8.1750 c3        1 PL9     -0.059900
     31 C31        -2.0410    1.4190   -6.0480 c3        1 PL9     -0.038200
     32 C32        -2.0130    2.5730   -5.0580 c3        1 PL9     -0.045200
     33 C33        -3.2910    3.3180   -4.9940 c2        1 PL9     -0.173200
     34 C34        -3.4010    4.6440   -4.8150 c2        1 PL9     -0.119400
     35 C35        -2.2250    5.5400   -4.6950 c3        1 PL9     -0.057900
     36 C36        -4.7400    5.2990   -4.7540 c3        1 PL9     -0.040200
     37 C37        -5.1010    5.7960   -3.3650 c3        1 PL9     -0.041200
     38 C38        -5.2280    4.7000   -2.3770 c2        1 PL9     -0.174200
     39 C39        -5.8890    4.8070   -1.2130 c2        1 PL9     -0.123400
     40 C40        -6.6050    6.0430   -0.8160 c3        1 PL9     -0.057900
     41 C41        -5.9510    3.6660   -0.2550 c3        1 PL9     -0.039200
     42 C42        -5.0660    3.8730    0.9630 c3        1 PL9     -0.042200
     43 C43        -3.6290    3.9640    0.6190 c2        1 PL9     -0.167200
     44 C44        -2.6300    3.8100    1.5020 c2        1 PL9     -0.128400
     45 C45        -2.8680    3.4890    2.9300 c3        1 PL9     -0.057900
     46 C46        -1.2050    3.9310    1.0820 c3        1 PL9     -0.042200
     47 C47        -0.5670    5.2360    1.5260 c3        1 PL9     -0.042200
     48 C48        -1.1000    6.4110    0.7980 c2        1 PL9     -0.172200
     49 C49        -0.5010    7.6120    0.7830 c2        1 PL9     -0.127400
     50 C50         0.7760    7.8730    1.4900 c3        1 PL9     -0.056900
     51 C51        -1.0790    8.7620    0.0470 c3        1 PL9     -0.056900
     52 C52         1.8660    2.8700    3.1900 c3        1 PL9     -0.071900
     53 C53        -0.1100    0.7280    3.3980 c3        1 PL9     -0.071900
     54 O1          3.7400    2.5720    1.0880 o         1 PL9     -0.502100
     55 O2          0.1150   -1.3070    1.4270 o         1 PL9     -0.503100
     56 HC2         1.3800   -0.7780   -0.7860 ha        1 PL9      0.159000
     57 HC71        3.2070    0.2360   -1.9830 hc        1 PL9      0.067200
     58 HC72        4.3460    1.2930   -1.0440 hc        1 PL9      0.067200
     59 HC8         3.2100    3.3010   -1.6680 ha        1 PL9      0.133000
     60 H101        0.4730    3.7950   -3.6840 hc        1 PL9      0.044700
     61 H102        1.8230    3.5460   -4.8680 hc        1 PL9      0.044700
     62 H103        2.1130    4.4980   -3.3490 hc        1 PL9      0.044700
     63 H111        0.3090    1.3940   -4.0870 hc        1 PL9      0.049700
     64 H112        1.1140    0.3910   -2.8160 hc        1 PL9      0.049700
     65 H121        3.1580    0.1810   -4.2720 hc        1 PL9      0.047700
     66 H122        2.3620    1.2020   -5.5350 hc        1 PL9      0.047700
     67 H13         0.7350   -0.5000   -6.0590 ha        1 PL9      0.124000
     68 H151        2.5550   -3.4250   -3.5250 hc        1 PL9      0.041033
     69 H152        3.7100   -2.1940   -4.1860 hc        1 PL9      0.041033
     70 H153        2.5060   -1.7180   -2.9170 hc        1 PL9      0.041033
     71 H161        0.4410   -3.7040   -4.6750 hc        1 PL9      0.048700
     72 H162        0.1180   -2.7290   -6.1650 hc        1 PL9      0.048700
     73 H171        2.7290   -4.3240   -5.6960 hc        1 PL9      0.045700
     74 H172        1.2510   -5.0200   -6.4720 hc        1 PL9      0.045700
     75 H18         3.0030   -2.6750   -7.4990 ha        1 PL9      0.122000
     76 H201        0.3910   -4.8970  -10.0480 hc        1 PL9      0.040700
     77 H202        1.1920   -5.8990   -8.7680 hc        1 PL9      0.040700
     78 H203       -0.1090   -4.7200   -8.3160 hc        1 PL9      0.040700
     79 H211        3.3140   -2.7150   -9.8350 hc        1 PL9      0.046200
     80 H212        2.5310   -4.0340  -10.7920 hc        1 PL9      0.046200
     81 H221        1.6160   -2.1110  -11.7540 hc        1 PL9      0.048200
     82 H222        0.3210   -2.6080  -10.5960 hc        1 PL9      0.048200
     83 H23         1.9160   -0.8560   -9.0200 ha        1 PL9      0.127000
     84 H251       -0.4920   -0.5730  -11.9490 hc        1 PL9      0.040033
     85 H252        1.0440    0.0170  -12.7040 hc        1 PL9      0.040033
     86 H253       -0.1950    1.2070  -12.1260 hc        1 PL9      0.040033
     87 H261        1.8060    1.5070   -9.0610 hc        1 PL9      0.044200
     88 H262        1.4920    2.2890  -10.6580 hc        1 PL9      0.044200
     89 H271       -1.0800    1.7890  -10.1020 hc        1 PL9      0.048700
     90 H272       -0.2200    3.2280   -9.4290 hc        1 PL9      0.048700
     91 H28         0.2420    1.2020   -7.4570 ha        1 PL9      0.121000
     92 H301       -3.4200    1.6880   -8.8170 hc        1 PL9      0.042367
     93 H302       -3.6820    2.8630   -7.4570 hc        1 PL9      0.042367
     94 H303       -2.5840    3.2960   -8.8350 hc        1 PL9      0.042367
     95 H311       -1.2620    0.6700   -5.7370 hc        1 PL9      0.045200
     96 H312       -3.0360    0.9010   -6.0010 hc        1 PL9      0.045200
     97 H321       -1.8040    2.1580   -4.0320 hc        1 PL9      0.049200
     98 H322       -1.1600    3.2590   -5.3130 hc        1 PL9      0.049200
     99 H33        -4.1990    2.6960   -5.0820 ha        1 PL9      0.120000
    100 H351       -1.6860    5.6000   -5.6750 hc        1 PL9      0.041367
    101 H352       -2.5300    6.5740   -4.4000 hc        1 PL9      0.041367
    102 H353       -1.5080    5.1530   -3.9280 hc        1 PL9      0.041367
    103 H361       -4.7440    6.1750   -5.4590 hc        1 PL9      0.045700
    104 H362       -5.5350    4.5870   -5.1040 hc        1 PL9      0.045700
    105 H371       -6.0670    6.3690   -3.4300 hc        1 PL9      0.047700
    106 H372       -4.3150    6.5170   -3.0070 hc        1 PL9      0.047700
    107 H38        -4.7150    3.7600   -2.6480 ha        1 PL9      0.129000
    108 H401       -7.5340    6.1620   -1.4290 hc        1 PL9      0.040367
    109 H402       -5.9620    6.9430   -0.9840 hc        1 PL9      0.040367
    110 H403       -6.8970    6.0150    0.2620 hc        1 PL9      0.040367
    111 H411       -5.6480    2.7140   -0.7680 hc        1 PL9      0.045700
    112 H412       -7.0120    3.5380    0.0900 hc        1 PL9      0.045700
    113 H421       -5.3740    4.8160    1.4940 hc        1 PL9      0.047700
    114 H422       -5.2370    3.0220    1.6790 hc        1 PL9      0.047700
    115 H43        -3.4110    4.1920   -0.4390 ha        1 PL9      0.131000
    116 H451       -3.1350    2.4080    3.0400 hc        1 PL9      0.039367
    117 H452       -3.7120    4.0990    3.3390 hc        1 PL9      0.039367
    118 H453       -1.9570    3.6900    3.5470 hc        1 PL9      0.039367
    119 H461       -1.1210    3.8430   -0.0340 hc        1 PL9      0.045700
    120 H462       -0.6220    3.0770    1.5280 hc        1 PL9      0.045700
    121 H471        0.5450    5.1650    1.3680 hc        1 PL9      0.046200
    122 H472       -0.7320    5.3800    2.6300 hc        1 PL9      0.046200
    123 H48        -2.0510    6.2460    0.2630 ha        1 PL9      0.130000
    124 H501        0.7290    7.4910    2.5410 hc        1 PL9      0.039700
    125 H502        1.0060    8.9660    1.5220 hc        1 PL9      0.039700
    126 H503        1.6190    7.3510    0.9700 hc        1 PL9      0.039700
    127 H511       -0.3400    9.1540   -0.6960 hc        1 PL9      0.039700
    128 H512       -2.0120    8.4770   -0.4990 hc        1 PL9      0.039700
    129 H513       -1.3270    9.5880    0.7600 hc        1 PL9      0.039700
    130 H521        2.7850    3.4880    3.0360 hc        1 PL9      0.060367
    131 H522        1.8870    2.4500    4.2270 hc        1 PL9      0.060367
    132 H523        0.9680    3.5360    3.1010 hc        1 PL9      0.060367
    133 H531       -0.7920    1.6180    3.3580 hc        1 PL9      0.060700
    134 H532       -0.7310   -0.2010    3.3380 hc        1 PL9      0.060700
    135 H533        0.4190    0.7390    4.3850 hc        1 PL9      0.060700
@<TRIPOS>BOND
     1    1    2 2   
     2    1    6 1   
     3    1   56 1   
     4    2    3 1   
     5    2    7 1   
     6    3    4 1   
     7    3   54 2   
     8    4    5 2   
     9    4   52 1   
    10    5    6 1   
    11    5   53 1   
    12    6   55 2   
    13    7    8 1   
    14    7   57 1   
    15    7   58 1   
    16    8    9 2   
    17    8   59 1   
    18    9   10 1   
    19    9   11 1   
    20   10   60 1   
    21   10   61 1   
    22   10   62 1   
    23   11   12 1   
    24   11   63 1   
    25   11   64 1   
    26   12   13 1   
    27   12   65 1   
    28   12   66 1   
    29   13   14 2   
    30   13   67 1   
    31   14   15 1   
    32   14   16 1   
    33   15   68 1   
    34   15   69 1   
    35   15   70 1   
    36   16   17 1   
    37   16   71 1   
    38   16   72 1   
    39   17   18 1   
    40   17   73 1   
    41   17   74 1   
    42   18   19 2   
    43   18   75 1   
    44   19   20 1   
    45   19   21 1   
    46   20   76 1   
    47   20   77 1   
    48   20   78 1   
    49   21   22 1   
    50   21   79 1   
    51   21   80 1   
    52   22   23 1   
    53   22   81 1   
    54   22   82 1   
    55   23   24 2   
    56   23   83 1   
    57   24   25 1   
    58   24   26 1   
    59   25   84 1   
    60   25   85 1   
    61   25   86 1   
    62   26   27 1   
    63   26   87 1   
    64   26   88 1   
    65   27   28 1   
    66   27   89 1   
    67   27   90 1   
    68   28   29 2   
    69   28   91 1   
    70   29   30 1   
    71   29   31 1   
    72   30   92 1   
    73   30   93 1   
    74   30   94 1   
    75   31   32 1   
    76   31   95 1   
    77   31   96 1   
    78   32   33 1   
    79   32   97 1   
    80   32   98 1   
    81   33   34 2   
    82   33   99 1   
    83   34   35 1   
    84   34   36 1   
    85   35  100 1   
    86   35  101 1   
    87   35  102 1   
    88   36   37 1   
    89   36  103 1   
    90   36  104 1   
    91   37   38 1   
    92   37  105 1   
    93   37  106 1   
    94   38   39 2   
    95   38  107 1   
    96   39   40 1   
    97   39   41 1   
    98   40  108 1   
    99   40  109 1   
   100   40  110 1   
   101   41   42 1   
   102   41  111 1   
   103   41  112 1   
   104   42   43 1   
   105   42  113 1   
   106   42  114 1   
   107   43   44 2   
   108   43  115 1   
   109   44   45 1   
   110   44   46 1   
   111   45  116 1   
   112   45  117 1   
   113   45  118 1   
   114   46   47 1   
   115   46  119 1   
   116   46  120 1   
   117   47   48 1   
   118   47  121 1   
   119   47  122 1   
   120   48   49 2   
   121   48  123 1   
   122   49   50 1   
   123   49   51 1   
   124   50  124 1   
   125   50  125 1   
   126   50  126 1   
   127   51  127 1   
   128   51  128 1   
   129   51  129 1   
   130   52  130 1   
   131   52  131 1   
   132   52  132 1   
   133   53  133 1   
   134   53  134 1   
   135   53  135 1   
@<TRIPOS>SUBSTRUCTURE
     1 PL9         1 TEMP              0 ****  ****    0 ROOT
