@<TRIPOS>MOLECULE
PL9
  135   135     1     0     0
SMALL
bcc


@<TRIPOS>ATOM
      1 C2          0.0320    1.8380    5.9700 cc        1 PL9     -0.197200
      2 C3         -0.4190    2.9390    5.3490 cd        1 PL9     -0.113400
      3 C4         -1.8270    3.3840    5.5180 c         1 PL9      0.556500
      4 C5         -2.7480    2.4200    6.1720 cc        1 PL9     -0.142400
      5 C6         -2.2850    1.3070    6.7850 cd        1 PL9     -0.135400
      6 C1         -0.8340    1.0000    6.8210 c         1 PL9      0.552500
      7 C7          0.4560    3.7780    4.4780 c3        1 PL9     -0.014000
      8 C8          0.0520    3.6660    3.0530 c2        1 PL9     -0.180200
      9 C9          0.7720    3.1410    2.0510 c2        1 PL9     -0.099400
     10 C10         0.2250    3.1150    0.6690 c3        1 PL9     -0.067900
     11 C11         2.1210    2.5250    2.1990 c3        1 PL9     -0.045200
     12 C12         3.2490    3.4240    1.7200 c3        1 PL9     -0.041200
     13 C13         3.4100    4.6450    2.5400 c2        1 PL9     -0.173200
     14 C14         4.5200    5.3980    2.5920 c2        1 PL9     -0.122400
     15 C15         4.5770    6.6260    3.4240 c3        1 PL9     -0.057900
     16 C16         5.7720    5.0820    1.8480 c3        1 PL9     -0.041200
     17 C17         5.6970    5.5480    0.4030 c3        1 PL9     -0.043200
     18 C18         6.9530    5.2670   -0.3310 c2        1 PL9     -0.170200
     19 C19         7.0770    5.3020   -1.6670 c2        1 PL9     -0.124400
     20 C20         8.3730    5.0220   -2.3330 c3        1 PL9     -0.057900
     21 C21         5.9480    5.6290   -2.5830 c3        1 PL9     -0.040200
     22 C22         5.2040    4.3740   -3.0160 c3        1 PL9     -0.045200
     23 C23         4.0980    4.7050   -3.9430 c2        1 PL9     -0.171200
     24 C24         2.7890    4.4920   -3.7390 c2        1 PL9     -0.115400
     25 C25         1.7900    4.8640   -4.7750 c3        1 PL9     -0.060900
     26 C26         2.2060    3.9140   -2.4950 c3        1 PL9     -0.042200
     27 C27         1.8970    2.4290   -2.6100 c3        1 PL9     -0.044200
     28 C28         3.1210    1.5980   -2.6340 c2        1 PL9     -0.170200
     29 C29         3.3520    0.4750   -1.9380 c2        1 PL9     -0.120400
     30 C30         4.6360   -0.2580   -2.0980 c3        1 PL9     -0.059900
     31 C31         2.4200   -0.1290   -0.9450 c3        1 PL9     -0.041200
     32 C32         1.6260   -1.3010   -1.4980 c3        1 PL9     -0.042200
     33 C33         0.4760   -0.8770   -2.3300 c2        1 PL9     -0.169200
     34 C34        -0.5840   -1.6490   -2.6170 c2        1 PL9     -0.125400
     35 C35        -1.6960   -1.1510   -3.4640 c3        1 PL9     -0.060900
     36 C36        -0.7320   -3.0520   -2.1380 c3        1 PL9     -0.041200
     37 C37        -1.4370   -3.1180   -0.7930 c3        1 PL9     -0.043200
     38 C38        -1.6630   -4.5160   -0.3590 c2        1 PL9     -0.171200
     39 C39        -2.1600   -4.8740    0.8350 c2        1 PL9     -0.123400
     40 C40        -2.3610   -6.3010    1.1910 c3        1 PL9     -0.057900
     41 C41        -2.5350   -3.8980    1.8960 c3        1 PL9     -0.040200
     42 C42        -3.9940   -3.4820    1.7850 c3        1 PL9     -0.043200
     43 C43        -4.3740   -2.5860    2.9020 c2        1 PL9     -0.170200
     44 C44        -4.4840   -1.2510    2.8350 c2        1 PL9     -0.117400
     45 C45        -4.8790   -0.4510    4.0220 c3        1 PL9     -0.061900
     46 C46        -4.2090   -0.4580    1.6040 c3        1 PL9     -0.041200
     47 C47        -5.4550   -0.3120    0.7440 c3        1 PL9     -0.042200
     48 C48        -5.1810    0.5220   -0.4500 c2        1 PL9     -0.178200
     49 C49        -5.0980    0.0650   -1.7090 c2        1 PL9     -0.116400
     50 C50        -4.8260    0.9780   -2.8470 c3        1 PL9     -0.061900
     51 C51        -5.2630   -1.3660   -2.0640 c3        1 PL9     -0.061900
     52 C52        -4.1940    2.7370    6.1240 c3        1 PL9     -0.069900
     53 C53        -3.1960    0.3420    7.4420 c3        1 PL9     -0.070900
     54 O1         -2.2080    4.4970    5.1390 o         1 PL9     -0.502100
     55 O2         -0.3660    0.0870    7.5120 o         1 PL9     -0.502100
     56 HC2         1.0770    1.5000    5.8760 ha        1 PL9      0.159000
     57 HC71        1.5320    3.4970    4.6310 hc        1 PL9      0.068700
     58 HC72        0.3420    4.8560    4.7920 hc        1 PL9      0.068700
     59 HC8        -0.9520    4.0820    2.8510 ha        1 PL9      0.133000
     60 H101        0.0860    2.0550    0.3350 hc        1 PL9      0.044700
     61 H102       -0.7600    3.6380    0.6030 hc        1 PL9      0.044700
     62 H103        0.9370    3.6120   -0.0390 hc        1 PL9      0.044700
     63 H111        2.1470    1.5770    1.5910 hc        1 PL9      0.047200
     64 H112        2.3100    2.2330    3.2660 hc        1 PL9      0.047200
     65 H121        3.0560    3.7250    0.6520 hc        1 PL9      0.051200
     66 H122        4.2000    2.8240    1.7220 hc        1 PL9      0.051200
     67 H13         2.5170    4.9360    3.1220 ha        1 PL9      0.126000
     68 H151        4.8830    7.4990    2.7940 hc        1 PL9      0.040700
     69 H152        3.5900    6.8570    3.8930 hc        1 PL9      0.040700
     70 H153        5.3340    6.5030    4.2390 hc        1 PL9      0.040700
     71 H161        6.6450    5.5780    2.3520 hc        1 PL9      0.045700
     72 H162        5.9650    3.9760    1.8700 hc        1 PL9      0.045700
     73 H171        5.4920    6.6530    0.3790 hc        1 PL9      0.051700
     74 H172        4.8300    5.0410   -0.1030 hc        1 PL9      0.051700
     75 H18         7.8280    5.0260    0.2970 ha        1 PL9      0.120000
     76 H201        8.7480    5.9450   -2.8430 hc        1 PL9      0.040033
     77 H202        8.2410    4.2260   -3.1080 hc        1 PL9      0.040033
     78 H203        9.1490    4.6820   -1.6050 hc        1 PL9      0.040033
     79 H211        5.2300    6.3280   -2.0760 hc        1 PL9      0.047200
     80 H212        6.3420    6.1590   -3.4910 hc        1 PL9      0.047200
     81 H221        5.9200    3.6840   -3.5430 hc        1 PL9      0.050700
     82 H222        4.8370    3.8270   -2.1080 hc        1 PL9      0.050700
     83 H23         4.4310    5.1690   -4.8890 ha        1 PL9      0.117000
     84 H251        1.1290    3.9910   -5.0030 hc        1 PL9      0.040367
     85 H252        2.2800    5.1930   -5.7230 hc        1 PL9      0.040367
     86 H253        1.1470    5.7010   -4.4020 hc        1 PL9      0.040367
     87 H261        1.2460    4.4550   -2.2670 hc        1 PL9      0.046700
     88 H262        2.8890    4.0850   -1.6190 hc        1 PL9      0.046700
     89 H271        1.3210    2.2420   -3.5580 hc        1 PL9      0.048200
     90 H272        1.2250    2.1460   -1.7540 hc        1 PL9      0.048200
     91 H28         3.8990    1.9800   -3.3230 ha        1 PL9      0.127000
     92 H301        5.2590    0.1720   -2.9200 hc        1 PL9      0.039700
     93 H302        4.4400   -1.3340   -2.3310 hc        1 PL9      0.039700
     94 H303        5.2250   -0.2090   -1.1480 hc        1 PL9      0.039700
     95 H311        1.7110    0.6430   -0.5410 hc        1 PL9      0.044700
     96 H312        3.0260   -0.4960   -0.0710 hc        1 PL9      0.044700
     97 H321        1.2620   -1.9220   -0.6340 hc        1 PL9      0.049700
     98 H322        2.3020   -1.9580   -2.1130 hc        1 PL9      0.049700
     99 H33         0.5410    0.1490   -2.7330 ha        1 PL9      0.125000
    100 H351       -2.6750   -1.2930   -2.9360 hc        1 PL9      0.041033
    101 H352       -1.7320   -1.7230   -4.4250 hc        1 PL9      0.041033
    102 H353       -1.5810   -0.0660   -3.7050 hc        1 PL9      0.041033
    103 H361       -1.3170   -3.6430   -2.8930 hc        1 PL9      0.046200
    104 H362        0.2780   -3.5360   -2.0510 hc        1 PL9      0.046200
    105 H371       -0.8220   -2.5700   -0.0270 hc        1 PL9      0.051700
    106 H372       -2.4240   -2.5820   -0.8600 hc        1 PL9      0.051700
    107 H38        -1.3960   -5.2920   -1.0970 ha        1 PL9      0.121000
    108 H401       -2.1580   -6.9770    0.3250 hc        1 PL9      0.040367
    109 H402       -3.4140   -6.4660    1.5310 hc        1 PL9      0.040367
    110 H403       -1.6760   -6.5860    2.0290 hc        1 PL9      0.040367
    111 H411       -2.3560   -4.3550    2.9060 hc        1 PL9      0.048200
    112 H412       -1.8880   -2.9820    1.8260 hc        1 PL9      0.048200
    113 H421       -4.1650   -2.9880    0.7900 hc        1 PL9      0.047700
    114 H422       -4.6430   -4.3990    1.8120 hc        1 PL9      0.047700
    115 H43        -4.5700   -3.1060    3.8560 ha        1 PL9      0.118000
    116 H451       -5.1960   -1.1000    4.8740 hc        1 PL9      0.039700
    117 H452       -4.0160    0.1780    4.3600 hc        1 PL9      0.039700
    118 H453       -5.7260    0.2320    3.7610 hc        1 PL9      0.039700
    119 H461       -3.3970   -0.9480    1.0010 hc        1 PL9      0.048700
    120 H462       -3.8360    0.5620    1.8900 hc        1 PL9      0.048700
    121 H471       -5.8230   -1.3310    0.4500 hc        1 PL9      0.047700
    122 H472       -6.2690    0.1720    1.3500 hc        1 PL9      0.047700
    123 H48        -5.0380    1.5960   -0.2390 ha        1 PL9      0.119000
    124 H501       -4.7550    2.0430   -2.5170 hc        1 PL9      0.041700
    125 H502       -5.6410    0.8970   -3.6080 hc        1 PL9      0.041700
    126 H503       -3.8590    0.6950   -3.3370 hc        1 PL9      0.041700
    127 H511       -6.3120   -1.6990   -1.8640 hc        1 PL9      0.041700
    128 H512       -5.0400   -1.5420   -3.1450 hc        1 PL9      0.041700
    129 H513       -4.5720   -2.0040   -1.4550 hc        1 PL9      0.041700
    130 H521       -4.3770    3.7230    5.6280 hc        1 PL9      0.059700
    131 H522       -4.6170    2.7760    7.1600 hc        1 PL9      0.059700
    132 H523       -4.7410    1.9400    5.5560 hc        1 PL9      0.059700
    133 H531       -3.8150    0.8590    8.2180 hc        1 PL9      0.060367
    134 H532       -2.6230   -0.4840    7.9330 hc        1 PL9      0.060367
    135 H533       -3.8910   -0.1030    6.6830 hc        1 PL9      0.060367
@<TRIPOS>BOND
     1    1    2 2   
     2    1    6 1   
     3    1   56 1   
     4    2    3 1   
     5    2    7 1   
     6    3    4 1   
     7    3   54 2   
     8    4    5 2   
     9    4   52 1   
    10    5    6 1   
    11    5   53 1   
    12    6   55 2   
    13    7    8 1   
    14    7   57 1   
    15    7   58 1   
    16    8    9 2   
    17    8   59 1   
    18    9   10 1   
    19    9   11 1   
    20   10   60 1   
    21   10   61 1   
    22   10   62 1   
    23   11   12 1   
    24   11   63 1   
    25   11   64 1   
    26   12   13 1   
    27   12   65 1   
    28   12   66 1   
    29   13   14 2   
    30   13   67 1   
    31   14   15 1   
    32   14   16 1   
    33   15   68 1   
    34   15   69 1   
    35   15   70 1   
    36   16   17 1   
    37   16   71 1   
    38   16   72 1   
    39   17   18 1   
    40   17   73 1   
    41   17   74 1   
    42   18   19 2   
    43   18   75 1   
    44   19   20 1   
    45   19   21 1   
    46   20   76 1   
    47   20   77 1   
    48   20   78 1   
    49   21   22 1   
    50   21   79 1   
    51   21   80 1   
    52   22   23 1   
    53   22   81 1   
    54   22   82 1   
    55   23   24 2   
    56   23   83 1   
    57   24   25 1   
    58   24   26 1   
    59   25   84 1   
    60   25   85 1   
    61   25   86 1   
    62   26   27 1   
    63   26   87 1   
    64   26   88 1   
    65   27   28 1   
    66   27   89 1   
    67   27   90 1   
    68   28   29 2   
    69   28   91 1   
    70   29   30 1   
    71   29   31 1   
    72   30   92 1   
    73   30   93 1   
    74   30   94 1   
    75   31   32 1   
    76   31   95 1   
    77   31   96 1   
    78   32   33 1   
    79   32   97 1   
    80   32   98 1   
    81   33   34 2   
    82   33   99 1   
    83   34   35 1   
    84   34   36 1   
    85   35  100 1   
    86   35  101 1   
    87   35  102 1   
    88   36   37 1   
    89   36  103 1   
    90   36  104 1   
    91   37   38 1   
    92   37  105 1   
    93   37  106 1   
    94   38   39 2   
    95   38  107 1   
    96   39   40 1   
    97   39   41 1   
    98   40  108 1   
    99   40  109 1   
   100   40  110 1   
   101   41   42 1   
   102   41  111 1   
   103   41  112 1   
   104   42   43 1   
   105   42  113 1   
   106   42  114 1   
   107   43   44 2   
   108   43  115 1   
   109   44   45 1   
   110   44   46 1   
   111   45  116 1   
   112   45  117 1   
   113   45  118 1   
   114   46   47 1   
   115   46  119 1   
   116   46  120 1   
   117   47   48 1   
   118   47  121 1   
   119   47  122 1   
   120   48   49 2   
   121   48  123 1   
   122   49   50 1   
   123   49   51 1   
   124   50  124 1   
   125   50  125 1   
   126   50  126 1   
   127   51  127 1   
   128   51  128 1   
   129   51  129 1   
   130   52  130 1   
   131   52  131 1   
   132   52  132 1   
   133   53  133 1   
   134   53  134 1   
   135   53  135 1   
@<TRIPOS>SUBSTRUCTURE
     1 PL9         1 TEMP              0 ****  ****    0 ROOT
