@<TRIPOS>MOLECULE
PLA
   41    41     1     0     0
SMALL
bcc


@<TRIPOS>ATOM
      1 N1          0.0600    0.0220   -0.0920 nb        1 PLA     -0.670000
      2 C2          1.4060    0.1010    0.0880 ca        1 PLA      0.303600
      3 C2A         2.3070    0.1860   -1.0980 c3        1 PLA     -0.114400
      4 C3          1.9850    0.1230    1.3830 ca        1 PLA      0.047800
      5 O3          3.3470    0.2750    1.4340 oh        1 PLA     -0.540100
      6 C4          1.1530    0.0620    2.5250 ca        1 PLA     -0.225300
      7 C4A         1.7320    0.1520    3.8990 c3        1 PLA      0.168100
      8 C5         -0.2320   -0.0150    2.3320 ca        1 PLA     -0.092600
      9 C6         -0.7140   -0.0360    0.9940 ca        1 PLA      0.370200
     10 C5A        -1.2210   -0.0490    3.4600 c3        1 PLA      0.213700
     11 O4P        -2.5040   -0.2380    3.0120 os        1 PLA     -0.557200
     12 P          -3.5920   -0.1140    4.3870 p5        1 PLA      1.308900
     13 O1P        -4.9330   -0.3880    3.7710 o         1 PLA     -0.927500
     14 O2P        -3.0000   -1.1790    5.2690 o         1 PLA     -0.927500
     15 O3P        -3.3120    1.3020    4.8160 o         1 PLA     -0.927500
     16 N           1.9660   -1.1830    4.5200 n4        1 PLA     -0.766000
     17 CA          3.1840   -1.2230    5.4670 c3        1 PLA      0.051200
     18 CB1         3.2710   -2.6410    6.0350 c3        1 PLA     -0.212400
     19 CB2         3.0350   -0.1820    6.5580 c3        1 PLA     -0.096100
     20 CG          4.1980   -2.8720    7.2520 c         1 PLA      0.932600
     21 OD1         4.9680   -3.8730    7.1900 o         1 PLA     -0.846800
     22 OD2         4.0890   -2.1440    8.2790 o         1 PLA     -0.846800
     23 C           4.4350   -0.9240    4.5500 c         1 PLA      0.920600
     24 O           4.4720   -1.5470    3.4430 o         1 PLA     -0.818800
     25 OXT         5.2590   -0.0550    4.9110 o         1 PLA     -0.818800
     26 H2A1        3.2620   -0.3520   -0.8780 hc        1 PLA      0.029367
     27 H2A2        2.5500    1.2580   -1.3070 hc        1 PLA      0.029367
     28 H2A3        1.8400   -0.2560   -2.0110 hc        1 PLA      0.029367
     29 HO3         3.6990   -0.2150    2.2060 ho        1 PLA      0.473000
     30 H4A1        1.0270    0.7260    4.5710 hx        1 PLA      0.104700
     31 H4A2        2.7210    0.6970    3.8680 hx        1 PLA      0.104700
     32 H6         -1.8130   -0.1050    0.8480 h4        1 PLA      0.072100
     33 H5A1       -0.9410   -0.8780    4.1770 h1        1 PLA      0.038700
     34 H5A2       -1.1600    0.9330    4.0260 h1        1 PLA      0.038700
     35 HN          1.1250   -1.4800    5.0210 hn        1 PLA      0.444300
     36 HB11        2.2580   -2.9770    6.3860 hc        1 PLA      0.042200
     37 HB12        3.6180   -3.3270    5.2180 hc        1 PLA      0.042200
     38 HB21        2.1560   -0.3990    7.2100 hc        1 PLA      0.058700
     39 HB22        2.9540    0.8470    6.1350 hc        1 PLA      0.058700
     40 HB23        3.9630   -0.2400    7.1880 hc        1 PLA      0.058700
     41 H2          2.1780   -1.8610    3.7770 hn        1 PLA      0.444300
@<TRIPOS>BOND
     1    1    2 ar  
     2    1    9 ar  
     3    2    3 1   
     4    2    4 ar  
     5    3   26 1   
     6    3   27 1   
     7    3   28 1   
     8    4    5 1   
     9    4    6 ar  
    10    5   29 1   
    11    6    7 1   
    12    6    8 ar  
    13    7   16 1   
    14    7   30 1   
    15    7   31 1   
    16    8    9 ar  
    17    8   10 1   
    18    9   32 1   
    19   10   11 1   
    20   10   33 1   
    21   10   34 1   
    22   11   12 1   
    23   12   13 1   
    24   12   14 1   
    25   12   15 1   
    26   16   17 1   
    27   16   35 1   
    28   16   41 1   
    29   17   18 1   
    30   17   19 1   
    31   17   23 1   
    32   18   20 1   
    33   18   36 1   
    34   18   37 1   
    35   19   38 1   
    36   19   39 1   
    37   19   40 1   
    38   20   21 1   
    39   20   22 1   
    40   23   24 1   
    41   23   25 1   
@<TRIPOS>SUBSTRUCTURE
     1 PLA         1 TEMP              0 ****  ****    0 ROOT
