@<TRIPOS>MOLECULE
PLA
   41    41     1     0     0
SMALL
bcc


@<TRIPOS>ATOM
      1 N1          0.0530   -0.0310   -0.0970 nb        1 PLA     -0.670000
      2 C2          1.3990    0.0440    0.0770 ca        1 PLA      0.303600
      3 C2A         2.2980    0.1070   -1.1120 c3        1 PLA     -0.114400
      4 C3          1.9830    0.0840    1.3700 ca        1 PLA      0.047800
      5 O3          3.3450    0.2300    1.4160 oh        1 PLA     -0.540100
      6 C4          1.1530    0.0460    2.5150 ca        1 PLA     -0.225300
      7 C4A         1.7360    0.1540    3.8870 c3        1 PLA      0.168100
      8 C5         -0.2330   -0.0280    2.3270 ca        1 PLA     -0.092600
      9 C6         -0.7180   -0.0680    0.9910 ca        1 PLA      0.370200
     10 C5A        -1.2190   -0.0390    3.4580 c3        1 PLA      0.213700
     11 O4P        -2.5040   -0.2300    3.0170 os        1 PLA     -0.557200
     12 P          -3.5880   -0.0800    4.3930 p5        1 PLA      1.308900
     13 O1P        -4.9320   -0.3570    3.7850 o         1 PLA     -0.927500
     14 O2P        -2.9980   -1.1350    5.2890 o         1 PLA     -0.927500
     15 O3P        -3.3000    1.3400    4.8000 o         1 PLA     -0.927500
     16 N           1.9650   -1.1720    4.5280 n4        1 PLA     -0.766000
     17 CA          3.1850   -1.2030    5.4730 c3        1 PLA      0.051200
     18 CB1         3.2670   -2.6120    6.0620 c3        1 PLA     -0.212400
     19 CB2         3.0450   -0.1440    6.5470 c3        1 PLA     -0.096100
     20 CG          4.1970   -2.8280    7.2810 c         1 PLA      0.932600
     21 OD1         4.9620   -3.8330    7.2330 o         1 PLA     -0.846800
     22 OD2         4.0950   -2.0830    8.2960 o         1 PLA     -0.846800
     23 C           4.4360   -0.9240    4.5470 c         1 PLA      0.920600
     24 O           4.4670   -1.5640    3.4500 o         1 PLA     -0.818800
     25 OXT         5.2650   -0.0530    4.8920 o         1 PLA     -0.818800
     26 H2A1        1.8260   -0.3470   -2.0170 hc        1 PLA      0.029367
     27 H2A2        2.5460    1.1740   -1.3380 hc        1 PLA      0.029367
     28 H2A3        3.2510   -0.4340   -0.8860 hc        1 PLA      0.029367
     29 HO3         3.6970   -0.2490    2.1940 ho        1 PLA      0.473000
     30 H4A1        1.0360    0.7420    4.5510 hx        1 PLA      0.104700
     31 H4A2        2.7280    0.6940    3.8440 hx        1 PLA      0.104700
     32 H6         -1.8180   -0.1340    0.8490 h4        1 PLA      0.072100
     33 H5A1       -0.9410   -0.8590    4.1870 h1        1 PLA      0.039200
     34 H5A2       -1.1510    0.9510    4.0090 h1        1 PLA      0.039200
     35 HN          2.1730   -1.8630    3.7950 hn        1 PLA      0.444300
     36 HB11        3.6090   -3.3120    5.2550 hc        1 PLA      0.042200
     37 HB12        2.2540   -2.9370    6.4210 hc        1 PLA      0.042200
     38 HB21        2.1660   -0.3460    7.2050 hc        1 PLA      0.058700
     39 HB22        3.9740   -0.1960    7.1760 hc        1 PLA      0.058700
     40 HB23        2.9670    0.8790    6.1080 hc        1 PLA      0.058700
     41 H2          1.1240   -1.4570    5.0350 hn        1 PLA      0.444300
@<TRIPOS>BOND
     1    1    2 ar  
     2    1    9 ar  
     3    2    3 1   
     4    2    4 ar  
     5    3   26 1   
     6    3   27 1   
     7    3   28 1   
     8    4    5 1   
     9    4    6 ar  
    10    5   29 1   
    11    6    7 1   
    12    6    8 ar  
    13    7   16 1   
    14    7   30 1   
    15    7   31 1   
    16    8    9 ar  
    17    8   10 1   
    18    9   32 1   
    19   10   11 1   
    20   10   33 1   
    21   10   34 1   
    22   11   12 1   
    23   12   13 1   
    24   12   14 1   
    25   12   15 1   
    26   16   17 1   
    27   16   35 1   
    28   16   41 1   
    29   17   18 1   
    30   17   19 1   
    31   17   23 1   
    32   18   20 1   
    33   18   36 1   
    34   18   37 1   
    35   19   38 1   
    36   19   39 1   
    37   19   40 1   
    38   20   21 1   
    39   20   22 1   
    40   23   24 1   
    41   23   25 1   
@<TRIPOS>SUBSTRUCTURE
     1 PLA         1 TEMP              0 ****  ****    0 ROOT
