@<TRIPOS>MOLECULE
PLA
   40    40     1     0     0
SMALL
bcc


@<TRIPOS>ATOM
      1 N1          2.7370    1.1150    2.7270 nb        1 PLA     -0.700000
      2 C2          3.2070    0.9420    1.4650 ca        1 PLA      0.257600
      3 C2A         4.6130    1.3100    1.1340 c3        1 PLA     -0.094400
      4 C3          2.3930    0.4100    0.4280 ca        1 PLA      0.070800
      5 O3          3.0320    0.2450   -0.7680 oh        1 PLA     -0.552100
      6 C4          1.0380    0.0770    0.6870 ca        1 PLA     -0.138300
      7 C4A         0.1820   -0.4600   -0.4340 c3        1 PLA      0.205100
      8 C5          0.5760    0.2150    2.0050 ca        1 PLA     -0.127600
      9 C6          1.4770    0.7460    2.9710 ca        1 PLA      0.348200
     10 C5A        -0.8030   -0.1830    2.4900 c3        1 PLA      0.240700
     11 O4P        -1.0880    0.3160    3.7380 os        1 PLA     -0.581200
     12 P          -1.7620   -0.7440    4.9380 p5        1 PLA      1.322900
     13 O1P        -1.7320   -2.1030    4.2850 o         1 PLA     -0.939500
     14 O2P        -0.8030   -0.5570    6.0860 o         1 PLA     -0.939500
     15 O3P        -3.1380   -0.1720    5.1630 o         1 PLA     -0.939500
     16 N           0.2500    0.3340   -1.6510 n3        1 PLA     -0.828200
     17 CA         -0.0980   -0.3770   -2.8890 c3        1 PLA      0.106200
     18 CB1         0.0620    0.5640   -4.1070 c3        1 PLA     -0.158400
     19 CB2        -1.5400   -0.9090   -2.8860 c3        1 PLA     -0.106100
     20 CG         -0.9040    1.7350   -4.2560 c         1 PLA      0.900600
     21 OD1        -1.5180    2.2320   -3.2650 o         1 PLA     -0.890800
     22 OD2        -1.0520    2.2230   -5.4280 o         1 PLA     -0.890800
     23 C           0.8510   -1.5920   -3.1980 c         1 PLA      0.911600
     24 O           0.4340   -2.4860   -3.9990 o         1 PLA     -0.874300
     25 OXT         2.0170   -1.6600   -2.7020 o         1 PLA     -0.874300
     26 H2A1        5.1410    0.4160    0.7160 hc        1 PLA      0.010700
     27 H2A2        4.6120    2.1040    0.3460 hc        1 PLA      0.010700
     28 H2A3        5.1810    1.6830    2.0200 hc        1 PLA      0.010700
     29 HO3         2.4370   -0.2030   -1.4130 ho        1 PLA      0.503000
     30 H4A1        0.5610   -1.4980   -0.6740 h1        1 PLA      0.045700
     31 H4A2       -0.8770   -0.5680   -0.0570 h1        1 PLA      0.045700
     32 H6          1.1120    0.8680    4.0120 h4        1 PLA      0.063100
     33 H5A1       -1.5430    0.2300    1.7360 h1        1 PLA      0.027700
     34 H5A2       -0.8720   -1.3130    2.4910 h1        1 PLA      0.027700
     35 HN         -0.3270    1.1550   -1.5840 hn        1 PLA      0.386800
     36 HB11        1.0980    0.9910   -4.0980 hc        1 PLA      0.033200
     37 HB12       -0.0330   -0.0770   -5.0230 hc        1 PLA      0.033200
     38 HB21       -2.2600   -0.0590   -2.8020 hc        1 PLA      0.025033
     39 HB22       -1.7260   -1.4580   -3.8390 hc        1 PLA      0.025033
     40 HB23       -1.6950   -1.6140   -2.0360 hc        1 PLA      0.025033
@<TRIPOS>BOND
     1    1    2 ar  
     2    1    9 ar  
     3    2    3 1   
     4    2    4 ar  
     5    3   26 1   
     6    3   27 1   
     7    3   28 1   
     8    4    5 1   
     9    4    6 ar  
    10    5   29 1   
    11    6    7 1   
    12    6    8 ar  
    13    7   16 1   
    14    7   30 1   
    15    7   31 1   
    16    8    9 ar  
    17    8   10 1   
    18    9   32 1   
    19   10   11 1   
    20   10   33 1   
    21   10   34 1   
    22   11   12 1   
    23   12   13 1   
    24   12   14 1   
    25   12   15 1   
    26   16   17 1   
    27   16   35 1   
    28   17   18 1   
    29   17   19 1   
    30   17   23 1   
    31   18   20 1   
    32   18   36 1   
    33   18   37 1   
    34   19   38 1   
    35   19   39 1   
    36   19   40 1   
    37   20   21 1   
    38   20   22 1   
    39   23   24 1   
    40   23   25 1   
@<TRIPOS>SUBSTRUCTURE
     1 PLA         1 TEMP              0 ****  ****    0 ROOT
