@<TRIPOS>MOLECULE
PLA
   41    41     1     0     0
SMALL
bcc


@<TRIPOS>ATOM
      1 N1          0.0520    0.0320   -0.0870 nb        1 PLA     -0.670000
      2 C2          1.3980    0.1000    0.0880 ca        1 PLA      0.303600
      3 C2A         2.2960    0.1790   -1.1010 c3        1 PLA     -0.114400
      4 C3          1.9830    0.1180    1.3810 ca        1 PLA      0.047800
      5 O3          3.3460    0.2600    1.4270 oh        1 PLA     -0.540100
      6 C4          1.1540    0.0650    2.5250 ca        1 PLA     -0.225300
      7 C4A         1.7380    0.1500    3.8980 c3        1 PLA      0.168100
      8 C5         -0.2330   -0.0030    2.3370 ca        1 PLA     -0.092600
      9 C6         -0.7190   -0.0210    1.0010 ca        1 PLA      0.370200
     10 C5A        -1.2170   -0.0290    3.4690 c3        1 PLA      0.213700
     11 O4P        -2.5030   -0.2090    3.0250 os        1 PLA     -0.557200
     12 P          -3.5860   -0.0770    4.4050 p5        1 PLA      1.308900
     13 O1P        -4.9310   -0.3410    3.7930 o         1 PLA     -0.927500
     14 O2P        -2.9980   -1.1470    5.2840 o         1 PLA     -0.927500
     15 O3P        -3.2940    1.3360    4.8340 o         1 PLA     -0.927500
     16 N           1.9640   -1.1860    4.5180 ny        1 PLA     -0.766000
     17 CA          3.1850   -1.2350    5.4620 c3        1 PLA      0.051200
     18 CB1         3.2630   -2.6530    6.0300 c3        1 PLA     -0.212400
     19 CB2         3.0480   -0.1920    6.5520 c3        1 PLA     -0.096100
     20 CG          4.1930   -2.8910    7.2440 c         1 PLA      0.932600
     21 OD1         4.9560   -3.8980    7.1790 o         1 PLA     -0.846800
     22 OD2         4.0940   -2.1620    8.2710 o         1 PLA     -0.846800
     23 C           4.4360   -0.9450    4.5390 c         1 PLA      0.920600
     24 O           4.4640   -1.5690    3.4330 o         1 PLA     -0.818800
     25 OXT         5.2670   -0.0820    4.8970 o         1 PLA     -0.818800
     26 H2A1        3.2480   -0.3670   -0.8850 hc        1 PLA      0.029367
     27 H2A2        2.5470    1.2480   -1.3110 hc        1 PLA      0.029367
     28 H2A3        1.8230   -0.2600   -2.0130 hc        1 PLA      0.029367
     29 HO3         3.6970   -0.2320    2.1980 ho        1 PLA      0.473000
     30 H4A1        1.0400    0.7300    4.5720 hx        1 PLA      0.104700
     31 H4A2        2.7320    0.6880    3.8630 hx        1 PLA      0.104700
     32 H6         -1.8190   -0.0820    0.8590 h4        1 PLA      0.072100
     33 H5A1       -1.1470    0.9530    4.0350 h1        1 PLA      0.039200
     34 H5A2       -0.9420   -0.8610    4.1850 h1        1 PLA      0.039200
     35 HN          2.1690   -1.8660    3.7750 hn        1 PLA      0.444300
     36 HB11        2.2490   -2.9810    6.3850 hc        1 PLA      0.042200
     37 HB12        3.6020   -3.3420    5.2120 hc        1 PLA      0.042200
     38 HB21        2.9730    0.8370    6.1290 hc        1 PLA      0.058700
     39 HB22        3.9780   -0.2570    7.1790 hc        1 PLA      0.058700
     40 HB23        2.1700   -0.4020    7.2080 hc        1 PLA      0.058700
     41 H2          1.1230   -1.4770    5.0220 hn        1 PLA      0.444300
@<TRIPOS>BOND
     1    1    2 ar  
     2    1    9 ar  
     3    2    3 1   
     4    2    4 ar  
     5    3   26 1   
     6    3   27 1   
     7    3   28 1   
     8    4    5 1   
     9    4    6 ar  
    10    5   29 1   
    11    6    7 1   
    12    6    8 ar  
    13    7   16 1   
    14    7   30 1   
    15    7   31 1   
    16    8    9 ar  
    17    8   10 1   
    18    9   32 1   
    19   10   11 1   
    20   10   33 1   
    21   10   34 1   
    22   11   12 1   
    23   12   13 1   
    24   12   14 1   
    25   12   15 1   
    26   16   17 1   
    27   16   35 1   
    28   16   41 1   
    29   17   18 1   
    30   17   19 1   
    31   17   23 1   
    32   18   20 1   
    33   18   36 1   
    34   18   37 1   
    35   19   38 1   
    36   19   39 1   
    37   19   40 1   
    38   20   21 1   
    39   20   22 1   
    40   23   24 1   
    41   23   25 1   
@<TRIPOS>SUBSTRUCTURE
     1 PLA         1 TEMP              0 ****  ****    0 ROOT
