@<TRIPOS>MOLECULE
PLB
   37    39     1     0     0
SMALL
bcc


@<TRIPOS>ATOM
      1 CL20        0.0560    1.3700   -0.2290 cl        1 PLB     -0.113400
      2 C16         1.6860    0.8990   -0.0690 ca        1 PLB      0.033400
      3 C15         2.0550    0.0660    0.9880 ca        1 PLB     -0.151000
      4 C14         3.3960   -0.3150    1.1240 ca        1 PLB      0.064400
      5 CL19        3.7930   -1.3630    2.4020 cl        1 PLB     -0.081400
      6 C17         2.6330    1.3420   -0.9960 ca        1 PLB     -0.134000
      7 C18         3.9640    0.9580   -0.8540 ca        1 PLB     -0.076000
      8 C13         4.3590    0.1430    0.2170 ca        1 PLB     -0.132600
      9 C11         5.8200   -0.1750    0.3610 c         1 PLB      0.666700
     10 O12         6.4210    0.0230    1.4350 o         1 PLB     -0.597100
     11 N10         6.4120   -0.7250   -0.7690 n         1 PLB     -0.431100
     12 C2          7.8000   -0.6400   -1.0220 ca        1 PLB      0.066600
     13 C3          8.7320   -0.9890   -0.0190 ca        1 PLB     -0.151000
     14 C4         10.0950   -0.9900   -0.2890 ca        1 PLB     -0.119000
     15 C5         10.5290   -0.6340   -1.5690 ca        1 PLB      0.037100
     16 C6          9.6300   -0.2800   -2.5760 ca        1 PLB     -0.074000
     17 C1          8.2590   -0.2580   -2.3100 ca        1 PLB     -0.157600
     18 C7          7.3400    0.1990   -3.4370 c         1 PLB      0.917200
     19 O9          6.1690    0.6050   -3.1570 o         1 PLB     -0.830800
     20 O8          7.7940    0.1690   -4.6110 o         1 PLB     -0.830800
     21 O21        11.9090   -0.4950   -1.8060 os        1 PLB     -0.332400
     22 C22        12.5830   -1.6150   -2.2530 ca        1 PLB      0.858300
     23 N27        11.9500   -2.8360   -2.3550 nb        1 PLB     -0.710000
     24 C26        12.7130   -3.8460   -2.8050 ca        1 PLB      0.451200
     25 C25        14.0700   -3.6910   -3.1460 ca        1 PLB     -0.426600
     26 C24        14.6130   -2.4020   -2.9930 ca        1 PLB      0.451200
     27 N23        13.9060   -1.3470   -2.5520 nb        1 PLB     -0.710000
     28 H15         1.3020   -0.2920    1.7070 ha        1 PLB      0.151000
     29 H17         2.3360    1.9820   -1.8410 ha        1 PLB      0.155000
     30 H18         4.7120    1.2860   -1.6100 ha        1 PLB      0.218000
     31 H10         5.8590   -0.6670   -1.6160 hn        1 PLB      0.355500
     32 H3          8.3780   -1.2460    0.9920 ha        1 PLB      0.150000
     33 H4         10.8200   -1.2610    0.4890 ha        1 PLB      0.129000
     34 H6          9.9770   -0.0050   -3.5860 ha        1 PLB      0.172000
     35 H26        12.2050   -4.8230   -2.8930 h4        1 PLB      0.021100
     36 H25        14.6690   -4.5280   -3.5140 ha        1 PLB      0.144000
     37 H24        15.6700   -2.1940   -3.2370 h4        1 PLB      0.021100
@<TRIPOS>BOND
     1    1    2 1   
     2    2    3 ar  
     3    2    6 ar  
     4    3    4 ar  
     5    3   28 1   
     6    4    5 1   
     7    4    8 ar  
     8    6    7 ar  
     9    6   29 1   
    10    7    8 ar  
    11    7   30 1   
    12    8    9 1   
    13    9   10 2   
    14    9   11 1   
    15   11   12 1   
    16   11   31 1   
    17   12   13 ar  
    18   12   17 ar  
    19   13   14 ar  
    20   13   32 1   
    21   14   15 ar  
    22   14   33 1   
    23   15   16 ar  
    24   15   21 1   
    25   16   17 ar  
    26   16   34 1   
    27   17   18 1   
    28   18   19 1   
    29   18   20 1   
    30   21   22 1   
    31   22   23 ar  
    32   22   27 ar  
    33   23   24 ar  
    34   24   25 ar  
    35   24   35 1   
    36   25   26 ar  
    37   25   36 1   
    38   26   27 ar  
    39   26   37 1   
@<TRIPOS>SUBSTRUCTURE
     1 PLB         1 TEMP              0 ****  ****    0 ROOT
