@<TRIPOS>MOLECULE
PLB
   37    39     1     0     0
SMALL
bcc


@<TRIPOS>ATOM
      1 CL20        1.4050   -0.1830    7.3590 cl        1 PLB     -0.113400
      2 C16         0.7700   -0.1720    5.7770 ca        1 PLB      0.033400
      3 C15        -0.5430    0.2520    5.5720 ca        1 PLB     -0.151000
      4 C14        -1.0670    0.2540    4.2740 ca        1 PLB      0.064400
      5 CL19       -2.6580    0.8170    4.0650 cl        1 PLB     -0.081400
      6 C17         1.5690   -0.5790    4.7050 ca        1 PLB     -0.134000
      7 C18         1.0390   -0.5730    3.4160 ca        1 PLB     -0.076000
      8 C13        -0.2870   -0.1760    3.1930 ca        1 PLB     -0.132600
      9 C11        -0.8250   -0.2640    1.7930 c         1 PLB      0.666700
     10 O12        -1.8880   -0.8650    1.5460 o         1 PLB     -0.597100
     11 N10        -0.0660    0.3970    0.8340 n         1 PLB     -0.431100
     12 C2         -0.0970    0.0500   -0.5360 ca        1 PLB      0.066600
     13 C3         -1.3310   -0.1010   -1.2070 ca        1 PLB     -0.151000
     14 C4         -1.3670   -0.3570   -2.5720 ca        1 PLB     -0.119000
     15 C5         -0.1610   -0.4700   -3.2690 ca        1 PLB      0.037100
     16 C6          1.0720   -0.3300   -2.6290 ca        1 PLB     -0.074000
     17 C1          1.1190   -0.0910   -1.2540 ca        1 PLB     -0.157600
     18 C7          2.4990   -0.0130   -0.6090 c         1 PLB      0.917200
     19 O9          2.6080   -0.1860    0.6450 o         1 PLB     -0.830800
     20 O8          3.4840    0.2070   -1.3610 o         1 PLB     -0.830800
     21 O21        -0.1860   -0.8690   -4.6180 os        1 PLB     -0.332400
     22 C22        -0.2790    0.1310   -5.5660 ca        1 PLB      0.858300
     23 N27        -0.4480    1.4500   -5.1980 nb        1 PLB     -0.710000
     24 C26        -0.5230    2.3270   -6.2130 ca        1 PLB      0.451200
     25 C25        -0.4430    1.9460   -7.5660 ca        1 PLB     -0.426600
     26 C24        -0.2800    0.5720   -7.8220 ca        1 PLB      0.451200
     27 N23        -0.1950   -0.3590   -6.8560 nb        1 PLB     -0.710000
     28 H15        -1.1620    0.5850    6.4200 ha        1 PLB      0.151000
     29 H17         2.6110   -0.8930    4.8670 ha        1 PLB      0.155000
     30 H18         1.6850   -0.8670    2.5590 ha        1 PLB      0.218000
     31 H10         0.8540    0.6900    1.1400 hn        1 PLB      0.355500
     32 H3         -2.2740   -0.0320   -0.6420 ha        1 PLB      0.150000
     33 H4         -2.3250   -0.4740   -3.0960 ha        1 PLB      0.129000
     34 H6          2.0210   -0.4140   -3.1840 ha        1 PLB      0.172000
     35 H26        -0.6510    3.3840   -5.9190 h4        1 PLB      0.020600
     36 H25        -0.5020    2.6800   -8.3740 ha        1 PLB      0.144000
     37 H24        -0.2110    0.1880   -8.8560 h4        1 PLB      0.020600
@<TRIPOS>BOND
     1    1    2 1   
     2    2    3 ar  
     3    2    6 ar  
     4    3    4 ar  
     5    3   28 1   
     6    4    5 1   
     7    4    8 ar  
     8    6    7 ar  
     9    6   29 1   
    10    7    8 ar  
    11    7   30 1   
    12    8    9 1   
    13    9   10 2   
    14    9   11 1   
    15   11   12 1   
    16   11   31 1   
    17   12   13 ar  
    18   12   17 ar  
    19   13   14 ar  
    20   13   32 1   
    21   14   15 ar  
    22   14   33 1   
    23   15   16 ar  
    24   15   21 1   
    25   16   17 ar  
    26   16   34 1   
    27   17   18 1   
    28   18   19 1   
    29   18   20 1   
    30   21   22 1   
    31   22   23 ar  
    32   22   27 ar  
    33   23   24 ar  
    34   24   25 ar  
    35   24   35 1   
    36   25   26 ar  
    37   25   36 1   
    38   26   27 ar  
    39   26   37 1   
@<TRIPOS>SUBSTRUCTURE
     1 PLB         1 TEMP              0 ****  ****    0 ROOT
