@<TRIPOS>MOLECULE
PLB
   38    40     1     0     0
SMALL
bcc


@<TRIPOS>ATOM
      1 CL20       -0.1220    0.4660    0.1850 cl        1 PLB     -0.067400
      2 C16         1.5730    0.4240    0.1930 ca        1 PLB      0.044400
      3 C15         2.2330   -0.7730   -0.0970 ca        1 PLB     -0.126000
      4 C14         3.6330   -0.8050   -0.0970 ca        1 PLB      0.048400
      5 CL19        4.4060   -2.2780   -0.4310 cl        1 PLB     -0.062400
      6 C17         2.2960    1.5840    0.4940 ca        1 PLB     -0.130000
      7 C18         3.6880    1.5410    0.4970 ca        1 PLB     -0.066000
      8 C13         4.3650    0.3540    0.1920 ca        1 PLB     -0.150600
      9 C11         5.8600    0.3860    0.2400 c         1 PLB      0.688700
     10 O12         6.4580    0.8110    1.2410 o         1 PLB     -0.564100
     11 N10         6.5070   -0.0220   -0.9240 n         1 PLB     -0.474100
     12 C2          7.8880   -0.1570   -1.1180 ca        1 PLB      0.109600
     13 C3          8.8290   -0.0150   -0.0720 ca        1 PLB     -0.159000
     14 C4         10.1880   -0.1770   -0.3090 ca        1 PLB     -0.069000
     15 C5         10.6340   -0.4850   -1.6000 ca        1 PLB      0.064100
     16 C6          9.7350   -0.6440   -2.6540 ca        1 PLB     -0.044000
     17 C1          8.3700   -0.4610   -2.4220 ca        1 PLB     -0.225600
     18 C7          7.4490   -0.6230   -3.5640 c         1 PLB      0.636700
     19 O9          7.3200   -1.6010   -4.2970 o         1 PLB     -0.469000
     20 O8          6.6050    0.4100   -3.8810 oh        1 PLB     -0.591100
     21 O21        12.0140   -0.4960   -1.8220 os        1 PLB     -0.332400
     22 C22        12.5910   -1.7220   -2.1420 ca        1 PLB      0.835300
     23 N27        11.8230   -2.8600   -2.2140 nb        1 PLB     -0.707000
     24 C26        12.4950   -3.9850   -2.5270 ca        1 PLB      0.454200
     25 C25        13.8810   -4.0050   -2.7650 ca        1 PLB     -0.396600
     26 C24        14.5600   -2.7760   -2.6630 ca        1 PLB      0.454200
     27 N23        13.9480   -1.6160   -2.3540 nb        1 PLB     -0.707000
     28 H15         1.6590   -1.6870   -0.3240 ha        1 PLB      0.170000
     29 H17         1.7720    2.5220    0.7320 ha        1 PLB      0.160000
     30 H18         4.2690    2.4430    0.7530 ha        1 PLB      0.161000
     31 H10         6.8530    1.2050   -3.3890 ho        1 PLB      0.434000
     32 H3          8.4950    0.2230    0.9530 ha        1 PLB      0.184000
     33 H4         10.9140   -0.0610    0.5100 ha        1 PLB      0.160000
     34 H6         10.0910   -0.9180   -3.6600 ha        1 PLB      0.167000
     35 H26        11.8830   -4.9040   -2.5880 h4        1 PLB      0.035100
     36 H25        14.4070   -4.9310   -3.0180 ha        1 PLB      0.160000
     37 H24        15.6500   -2.7040   -2.8350 h4        1 PLB      0.035100
     38 H102        5.9250   -0.3560   -1.6660 hn        1 PLB      0.335500
@<TRIPOS>BOND
     1    1    2 1   
     2    2    3 ar  
     3    2    6 ar  
     4    3    4 ar  
     5    3   28 1   
     6    4    5 1   
     7    4    8 ar  
     8    6    7 ar  
     9    6   29 1   
    10    7    8 ar  
    11    7   30 1   
    12    8    9 1   
    13    9   10 2   
    14    9   11 1   
    15   11   12 1   
    16   11   38 1   
    17   12   13 ar  
    18   12   17 ar  
    19   13   14 ar  
    20   13   32 1   
    21   14   15 ar  
    22   14   33 1   
    23   15   16 ar  
    24   15   21 1   
    25   16   17 ar  
    26   16   34 1   
    27   17   18 1   
    28   18   19 2   
    29   18   20 1   
    30   20   31 1   
    31   21   22 1   
    32   22   23 ar  
    33   22   27 ar  
    34   23   24 ar  
    35   24   25 ar  
    36   24   35 1   
    37   25   26 ar  
    38   25   36 1   
    39   26   27 ar  
    40   26   37 1   
@<TRIPOS>SUBSTRUCTURE
     1 PLB         1 TEMP              0 ****  ****    0 ROOT
