@<TRIPOS>MOLECULE
PLB
   37    39     1     0     0
SMALL
bcc


@<TRIPOS>ATOM
      1 Cl20        0.0570    1.3710   -0.2200 cl        1 PLB     -0.113400
      2 C16         1.6870    0.8990   -0.0630 ca        1 PLB      0.033400
      3 C15         2.0560    0.0620    0.9910 ca        1 PLB     -0.151000
      4 C14         3.3970   -0.3200    1.1240 ca        1 PLB      0.064400
      5 Cl19        3.7950   -1.3720    2.3980 cl        1 PLB     -0.081400
      6 C17         2.6320    1.3450   -0.9910 ca        1 PLB     -0.134000
      7 C18         3.9640    0.9600   -0.8510 ca        1 PLB     -0.076000
      8 C13         4.3600    0.1410    0.2170 ca        1 PLB     -0.132600
      9 C11         5.8210   -0.1780    0.3580 c         1 PLB      0.666700
     10 O12         6.4230    0.0160    1.4320 o         1 PLB     -0.597100
     11 N10         6.4120   -0.7240   -0.7740 ns        1 PLB     -0.431100
     12 C2          7.7990   -0.6390   -1.0290 ca        1 PLB      0.066600
     13 C3          8.7320   -0.9910   -0.0270 ca        1 PLB     -0.151000
     14 C4         10.0940   -0.9920   -0.2990 ca        1 PLB     -0.119000
     15 C5         10.5280   -0.6320   -1.5780 ca        1 PLB      0.037100
     16 C6          9.6270   -0.2750   -2.5830 ca        1 PLB     -0.074000
     17 C1          8.2570   -0.2530   -2.3150 ca        1 PLB     -0.157600
     18 C7          7.3370    0.2080   -3.4400 c         1 PLB      0.917200
     19 O9          6.1670    0.6140   -3.1580 o         1 PLB     -0.830800
     20 O8          7.7890    0.1790   -4.6150 o         1 PLB     -0.830800
     21 O21        11.9070   -0.4930   -1.8170 os        1 PLB     -0.332400
     22 C22        12.5830   -1.6150   -2.2560 ca        1 PLB      0.858300
     23 N27        11.9510   -2.8370   -2.3480 nb        1 PLB     -0.710000
     24 C26        12.7170   -3.8490   -2.7900 ca        1 PLB      0.451200
     25 C25        14.0730   -3.6950   -3.1340 ca        1 PLB     -0.426600
     26 C24        14.6140   -2.4040   -2.9900 ca        1 PLB      0.451200
     27 N23        13.9050   -1.3460   -2.5570 nb        1 PLB     -0.710000
     28 H15         1.3040   -0.2980    1.7080 ha        1 PLB      0.151000
     29 H17         2.3350    1.9880   -1.8330 ha        1 PLB      0.155000
     30 H18         4.7110    1.2900   -1.6060 ha        1 PLB      0.218000
     31 H10         5.8570   -0.6630   -1.6200 hn        1 PLB      0.355500
     32 H3          8.3790   -1.2510    0.9830 ha        1 PLB      0.150000
     33 H4         10.8210   -1.2660    0.4770 ha        1 PLB      0.129000
     34 H6          9.9740    0.0030   -3.5930 ha        1 PLB      0.172000
     35 H26        12.2100   -4.8280   -2.8710 h4        1 PLB      0.021100
     36 H25        14.6740   -4.5340   -3.4960 ha        1 PLB      0.144000
     37 H24        15.6710   -2.1960   -3.2360 h4        1 PLB      0.021100
@<TRIPOS>BOND
     1    1    2 1   
     2    2    3 ar  
     3    2    6 ar  
     4    3    4 ar  
     5    3   28 1   
     6    4    5 1   
     7    4    8 ar  
     8    6    7 ar  
     9    6   29 1   
    10    7    8 ar  
    11    7   30 1   
    12    8    9 1   
    13    9   10 2   
    14    9   11 1   
    15   11   12 1   
    16   11   31 1   
    17   12   13 ar  
    18   12   17 ar  
    19   13   14 ar  
    20   13   32 1   
    21   14   15 ar  
    22   14   33 1   
    23   15   16 ar  
    24   15   21 1   
    25   16   17 ar  
    26   16   34 1   
    27   17   18 1   
    28   18   19 1   
    29   18   20 1   
    30   21   22 1   
    31   22   23 ar  
    32   22   27 ar  
    33   23   24 ar  
    34   24   25 ar  
    35   24   35 1   
    36   25   26 ar  
    37   25   36 1   
    38   26   27 ar  
    39   26   37 1   
@<TRIPOS>SUBSTRUCTURE
     1 PLB         1 TEMP              0 ****  ****    0 ROOT
