@<TRIPOS>MOLECULE
PLC
  106   105     1     0     0
SMALL
bcc


@<TRIPOS>ATOM
      1 C1         -1.9940    0.0300    0.2460 c3        1 PLC      0.169400
      2 C2         -1.2730    1.1600   -0.4900 c3        1 PLC      0.145100
      3 C3         -0.4560    2.0430    0.4500 c3        1 PLC      0.115400
      4 C4         -4.9860   -1.4690    2.7120 c3        1 PLC      0.190400
      5 C5         -6.4500   -1.2760    3.1590 c3        1 PLC      0.086800
      6 C6         -7.2340   -2.9050    1.4780 c3        1 PLC      0.076767
      7 C7         -8.8220   -1.6980    2.8640 c3        1 PLC      0.076767
      8 C8         -7.6120   -0.5210    1.1200 c3        1 PLC      0.076767
      9 C1'         0.8130    0.4080   -3.4810 c3        1 PLC     -0.127400
     10 C2'         0.4840    0.7240   -4.9250 c3        1 PLC     -0.079400
     11 C3'         1.4310    0.0050   -5.8610 c3        1 PLC     -0.078400
     12 C4'         1.0970    0.3030   -7.3070 c3        1 PLC     -0.079400
     13 C5'         2.0450   -0.4100   -8.2470 c3        1 PLC     -0.079400
     14 C6'         1.7100   -0.1140   -9.6930 c3        1 PLC     -0.079400
     15 C7'         2.6590   -0.8260  -10.6340 c3        1 PLC     -0.078400
     16 C8'         2.3240   -0.5300  -12.0800 c3        1 PLC     -0.079400
     17 C9'         3.2720   -1.2420  -13.0210 c3        1 PLC     -0.079400
     18 CA'         2.9380   -0.9470  -14.4670 c3        1 PLC     -0.080400
     19 CB'         3.8800   -1.6540  -15.4080 c3        1 PLC     -0.092100
     20 CB          1.1470    1.7800    2.1980 c         1 PLC      0.631100
     21 C1B         2.0060    0.8000    2.9340 c3        1 PLC     -0.128400
     22 C2B         2.2060    1.2230    4.3740 c3        1 PLC     -0.078400
     23 C3B         3.1820    0.3020    5.0730 c3        1 PLC     -0.079400
     24 C4B         3.3740    0.7080    6.5190 c3        1 PLC     -0.078400
     25 C5B         4.3530   -0.2080    7.2210 c3        1 PLC     -0.079400
     26 C6B         4.5440    0.1970    8.6660 c3        1 PLC     -0.078400
     27 C7B         5.5230   -0.7190    9.3690 c3        1 PLC     -0.079400
     28 C8B         5.7150   -0.3140   10.8150 c3        1 PLC     -0.079400
     29 C9B         6.6930   -1.2300   11.5170 c3        1 PLC     -0.079400
     30 CAA         6.8860   -0.8260   12.9630 c3        1 PLC     -0.080400
     31 CBA         7.8590   -1.7360   13.6670 c3        1 PLC     -0.092100
     32 O'         -0.3860    2.3970   -2.6550 o         1 PLC     -0.554000
     33 OB          1.0700    3.0040    2.3330 o         1 PLC     -0.548000
     34 O2         -0.4090    0.5140   -1.4420 os        1 PLC     -0.426900
     35 O3          0.3700    1.1810    1.2460 os        1 PLC     -0.433900
     36 O1P        -3.2220   -2.4540    0.7710 o         1 PLC     -0.819500
     37 O2P        -5.3570   -1.5960   -0.4690 o         1 PLC     -0.819500
     38 O3P        -3.2630   -0.1330   -0.3350 os        1 PLC     -0.556200
     39 O4P        -4.6700   -0.6290    1.6650 os        1 PLC     -0.577200
     40 N          -7.5170   -1.6020    2.1480 n4        1 PLC     -0.581800
     41 P          -4.0960   -1.3820    0.2740 p5        1 PLC      1.428800
     42 H11        -1.4230   -0.9360    0.1710 h1        1 PLC      0.061700
     43 H12        -2.1310    0.3020    1.3280 h1        1 PLC      0.061700
     44 H2         -2.0130    1.8130   -1.0360 h1        1 PLC      0.100700
     45 H31        -1.1330    2.6290    1.1240 h1        1 PLC      0.066200
     46 H32         0.1990    2.7420   -0.1320 h1        1 PLC      0.066200
     47 H41        -4.7790   -2.5460    2.4540 h1        1 PLC      0.059200
     48 H42        -4.3720   -1.1860    3.6180 h1        1 PLC      0.059200
     49 H51        -6.6240   -1.9330    4.0560 hx        1 PLC      0.078700
     50 H52        -6.5920   -0.1970    3.4460 hx        1 PLC      0.078700
     51 H61        -6.3560   -2.7710    0.7660 hx        1 PLC      0.100144
     52 H62        -6.9990   -3.6760    2.2550 hx        1 PLC      0.100144
     53 H63        -8.1310   -3.2140    0.8830 hx        1 PLC      0.100144
     54 H71        -9.6440   -1.8550    2.1170 hx        1 PLC      0.100144
     55 H72        -9.0080   -0.7480    3.4290 hx        1 PLC      0.100144
     56 H73        -8.7980   -2.5620    3.5780 hx        1 PLC      0.100144
     57 H81        -8.4020   -0.7950    0.3760 hx        1 PLC      0.100144
     58 H82        -7.8640    0.4450    1.6250 hx        1 PLC      0.100144
     59 H83        -6.6120   -0.4390    0.5820 hx        1 PLC      0.100144
     60 H1'1        1.8860    0.6550   -3.2610 hc        1 PLC      0.078200
     61 H1'2        0.6610   -0.6840   -3.2720 hc        1 PLC      0.078200
     62 H2'1       -0.5720    0.4170   -5.1450 hc        1 PLC      0.058200
     63 H2'2        0.5480    1.8330   -5.0880 hc        1 PLC      0.058200
     64 H3'1        2.4860    0.3220   -5.6470 hc        1 PLC      0.040700
     65 H3'2        1.3730   -1.1010   -5.6810 hc        1 PLC      0.040700
     66 H4'1        0.0430   -0.0170   -7.5220 hc        1 PLC      0.042700
     67 H4'2        1.1500    1.4090   -7.4860 hc        1 PLC      0.042700
     68 H5'1        3.0990   -0.0910   -8.0320 hc        1 PLC      0.039200
     69 H5'2        1.9920   -1.5170   -8.0680 hc        1 PLC      0.039200
     70 H6'1        0.6560   -0.4340   -9.9080 hc        1 PLC      0.040200
     71 H6'2        1.7630    0.9920   -9.8730 hc        1 PLC      0.040200
     72 H7'1        2.6060   -1.9330  -10.4540 hc        1 PLC      0.039200
     73 H7'2        3.7120   -0.5070  -10.4190 hc        1 PLC      0.039200
     74 H8'1        1.2700   -0.8500  -12.2950 hc        1 PLC      0.039700
     75 H8'2        2.3760    0.5760  -12.2590 hc        1 PLC      0.039700
     76 H9'1        4.3260   -0.9230  -12.8060 hc        1 PLC      0.039700
     77 H9'2        3.2200   -2.3490  -12.8420 hc        1 PLC      0.039700
     78 HT'1        1.8830   -1.2660  -14.6800 hc        1 PLC      0.038700
     79 HT'2        2.9890    0.1600  -14.6440 hc        1 PLC      0.038700
     80 HE'1        3.6160   -1.4230  -16.4680 hc        1 PLC      0.032367
     81 HE'2        4.9340   -1.3300  -15.2280 hc        1 PLC      0.032367
     82 HE'3        3.8250   -2.7600  -15.2640 hc        1 PLC      0.032367
     83 H1A1        2.9920    0.7520    2.3990 hc        1 PLC      0.080200
     84 H1A2        1.5400   -0.2200    2.8820 hc        1 PLC      0.080200
     85 H2A1        1.2200    1.2080    4.9100 hc        1 PLC      0.055700
     86 H2A2        2.5830    2.2800    4.4040 hc        1 PLC      0.055700
     87 H3A1        4.1700    0.3260    4.5420 hc        1 PLC      0.041200
     88 H3A2        2.8060   -0.7540    5.0250 hc        1 PLC      0.041200
     89 H4A1        2.3860    0.6830    7.0510 hc        1 PLC      0.041700
     90 H4A2        3.7470    1.7660    6.5660 hc        1 PLC      0.041700
     91 H5A1        5.3400   -0.1820    6.6890 hc        1 PLC      0.040200
     92 H5A2        3.9800   -1.2650    7.1730 hc        1 PLC      0.040200
     93 H6A1        3.5570    0.1720    9.1980 hc        1 PLC      0.039700
     94 H6A2        4.9180    1.2540    8.7140 hc        1 PLC      0.039700
     95 H7A1        6.5110   -0.6930    8.8370 hc        1 PLC      0.039700
     96 H7A2        5.1500   -1.7760    9.3210 hc        1 PLC      0.039700
     97 H8A1        4.7270   -0.3390   11.3460 hc        1 PLC      0.039200
     98 H8A2        6.0880    0.7430   10.8630 hc        1 PLC      0.039200
     99 H9A1        7.6810   -1.2050   10.9860 hc        1 PLC      0.039700
    100 H9A2        6.3200   -2.2870   11.4690 hc        1 PLC      0.039700
    101 HTA1        5.8970   -0.8510   13.4930 hc        1 PLC      0.038200
    102 HTA2        7.2580    0.2310   13.0090 hc        1 PLC      0.038200
    103 HEA1        8.8580   -1.7060   13.1680 hc        1 PLC      0.032367
    104 HEA2        7.4930   -2.7910   13.6530 hc        1 PLC      0.032367
    105 HEA3        7.9860   -1.4210   14.7310 hc        1 PLC      0.032367
    106 C'         -0.0320    1.2210   -2.5490 c         1 PLC      0.636100
@<TRIPOS>BOND
     1    1    2 1   
     2    1   38 1   
     3    1   42 1   
     4    1   43 1   
     5    2    3 1   
     6    2   34 1   
     7    2   44 1   
     8    3   35 1   
     9    3   45 1   
    10    3   46 1   
    11    4    5 1   
    12    4   39 1   
    13    4   47 1   
    14    4   48 1   
    15    5   40 1   
    16    5   49 1   
    17    5   50 1   
    18    6   40 1   
    19    6   51 1   
    20    6   52 1   
    21    6   53 1   
    22    7   40 1   
    23    7   54 1   
    24    7   55 1   
    25    7   56 1   
    26    8   40 1   
    27    8   57 1   
    28    8   58 1   
    29    8   59 1   
    30    9   10 1   
    31    9   60 1   
    32    9   61 1   
    33    9  106 1   
    34   10   11 1   
    35   10   62 1   
    36   10   63 1   
    37   11   12 1   
    38   11   64 1   
    39   11   65 1   
    40   12   13 1   
    41   12   66 1   
    42   12   67 1   
    43   13   14 1   
    44   13   68 1   
    45   13   69 1   
    46   14   15 1   
    47   14   70 1   
    48   14   71 1   
    49   15   16 1   
    50   15   72 1   
    51   15   73 1   
    52   16   17 1   
    53   16   74 1   
    54   16   75 1   
    55   17   18 1   
    56   17   76 1   
    57   17   77 1   
    58   18   19 1   
    59   18   78 1   
    60   18   79 1   
    61   19   80 1   
    62   19   81 1   
    63   19   82 1   
    64   20   21 1   
    65   20   33 2   
    66   20   35 1   
    67   21   22 1   
    68   21   83 1   
    69   21   84 1   
    70   22   23 1   
    71   22   85 1   
    72   22   86 1   
    73   23   24 1   
    74   23   87 1   
    75   23   88 1   
    76   24   25 1   
    77   24   89 1   
    78   24   90 1   
    79   25   26 1   
    80   25   91 1   
    81   25   92 1   
    82   26   27 1   
    83   26   93 1   
    84   26   94 1   
    85   27   28 1   
    86   27   95 1   
    87   27   96 1   
    88   28   29 1   
    89   28   97 1   
    90   28   98 1   
    91   29   30 1   
    92   29   99 1   
    93   29  100 1   
    94   30   31 1   
    95   30  101 1   
    96   30  102 1   
    97   31  103 1   
    98   31  104 1   
    99   31  105 1   
   100   32  106 2   
   101   34  106 1   
   102   36   41 1   
   103   37   41 1   
   104   38   41 1   
   105   39   41 1   
@<TRIPOS>SUBSTRUCTURE
     1 PLC         1 TEMP              0 ****  ****    0 ROOT
