@<TRIPOS>MOLECULE
PLC
  106   103     1     0     0
SMALL
bcc


@<TRIPOS>ATOM
      1 C1         -1.1190    0.6480   -0.2090 c3        1 PLC      0.156400
      2 C2          0.4150    0.6120   -0.1630 c3        1 PLC      0.110100
      3 C3          0.9990    0.6500    1.2460 c3        1 PLC      0.154400
      4 C4         -7.0110   -1.4250    1.8880 c1        1 PLC     -0.169000
      5 C5         -8.1160   -1.4000    2.3440 c1        1 PLC     -0.169000
      6 C6         -4.1360   -2.1930    5.7520 c3        1 PLC      0.145767
      7 C7         -4.6240   -3.4250    3.7400 c3        1 PLC      0.145767
      8 C8         -2.3690   -3.3520    4.5870 c3        1 PLC      0.145767
      9 C1'         1.4400   -1.9190   -2.6850 c3        1 PLC     -0.128400
     10 C2'         2.3240   -1.8130   -3.9090 c3        1 PLC     -0.078400
     11 C3'         2.5490   -3.1770   -4.5250 c3        1 PLC     -0.079400
     12 C4'         3.4470   -3.0830   -5.7400 c3        1 PLC     -0.078400
     13 C5'         3.6710   -4.4450   -6.3620 c3        1 PLC     -0.079400
     14 C6'         4.5700   -4.3520   -7.5770 c3        1 PLC     -0.079400
     15 C7'         4.7950   -5.7130   -8.1990 c3        1 PLC     -0.079400
     16 C8'         5.6930   -5.6200   -9.4140 c3        1 PLC     -0.079400
     17 C9'         5.9180   -6.9810  -10.0360 c3        1 PLC     -0.079400
     18 CA'         6.8160   -6.8900  -11.2510 c3        1 PLC     -0.080400
     19 CB'         7.0430   -8.2430  -11.8750 c3        1 PLC     -0.092100
     20 CB          1.3720   -0.8150    3.0920 c         1 PLC      0.633100
     21 C1B         1.1530   -2.2020    3.6080 c3        1 PLC     -0.137400
     22 C2B         1.7560   -2.3820    4.9850 c3        1 PLC     -0.078400
     23 C3B         1.4350   -3.7560    5.5320 c3        1 PLC     -0.080400
     24 C4B         2.0210   -3.9410    6.9150 c3        1 PLC     -0.079400
     25 C5B         1.7040   -5.3160    7.4650 c3        1 PLC     -0.079400
     26 C6B         2.2900   -5.5010    8.8490 c3        1 PLC     -0.079400
     27 C7B         1.9730   -6.8750    9.3990 c3        1 PLC     -0.078400
     28 C8B         2.5590   -7.0610   10.7830 c3        1 PLC     -0.079400
     29 C9B         2.2430   -8.4340   11.3340 c3        1 PLC     -0.079400
     30 CAA         2.8280   -8.6210   12.7170 c3        1 PLC     -0.080400
     31 CBA         2.5160   -9.9880   13.2700 c3        1 PLC     -0.093100
     32 O'          0.9690    0.5070   -2.7370 o         1 PLC     -0.540000
     33 OB          1.9030    0.1550    3.6310 o         1 PLC     -0.531000
     34 O2          0.8910   -0.5880   -0.7880 os        1 PLC     -0.446900
     35 O3          0.8800   -0.6590    1.8200 os        1 PLC     -0.454900
     36 O1P        -2.4690   -1.8140   -1.0070 o         1 PLC     -0.794300
     37 O2P        -3.7450   -1.4980    1.2450 oh        1 PLC     -0.772900
     38 O3P        -1.7060   -0.1330    0.7990 os        1 PLC     -0.598200
     39 O4P        -1.5250   -2.4710    1.3620 oh        1 PLC     -0.772900
     40 N          -3.6380   -2.6680    4.4810 n3        1 PLC     -0.755600
     41 P          -2.3970   -1.5330    0.4140 p5        1 PLC      1.651500
     42 H11        -1.4510    1.7090   -0.0270 h1        1 PLC      0.073700
     43 H12        -1.4720    0.2940   -1.2200 h1        1 PLC      0.073700
     44 H2          0.7950    1.5150   -0.7260 h1        1 PLC      0.095700
     45 H31         0.4240    1.3780    1.8770 h1        1 PLC      0.067200
     46 H32         2.0840    0.9290    1.2190 h1        1 PLC      0.067200
     47 H41        -6.0290   -1.4440    1.4760 ha        1 PLC      0.169000
     48 H42        -0.6260   -2.1920    1.5440 ho        1 PLC      0.499500
     49 H51        -9.0970   -1.3780    2.7470 ha        1 PLC      0.169000
     50 H52        -3.6680   -1.5210    2.2000 ho        1 PLC      0.499500
     51 H61        -4.3610   -3.0230    6.4780 h1        1 PLC      0.035589
     52 H62        -3.3710   -1.5160    6.2130 h1        1 PLC      0.035589
     53 H63        -5.0780   -1.6090    5.5790 h1        1 PLC      0.035589
     54 H71        -4.1770   -3.7540    2.7640 h1        1 PLC      0.035589
     55 H72        -5.5010   -2.7570    3.5220 h1        1 PLC      0.035589
     56 H73        -4.9910   -4.3340    4.2890 h1        1 PLC      0.035589
     57 H81        -1.6520   -2.7110    5.1660 h1        1 PLC      0.035589
     58 H82        -1.9610   -3.5070    3.5500 h1        1 PLC      0.035589
     59 H83        -2.4410   -4.3500    5.0980 h1        1 PLC      0.035589
     60 H1'1        1.9410   -2.5260   -1.8850 hc        1 PLC      0.087700
     61 H1'2        0.4690   -2.4260   -2.9420 hc        1 PLC      0.087700
     62 H2'1        3.3090   -1.3570   -3.6250 hc        1 PLC      0.057200
     63 H2'2        1.8450   -1.1270   -4.6580 hc        1 PLC      0.057200
     64 H3'1        1.5630   -3.6250   -4.8200 hc        1 PLC      0.042700
     65 H3'2        3.0120   -3.8630   -3.7670 hc        1 PLC      0.042700
     66 H4'1        2.9850   -2.3950   -6.4960 hc        1 PLC      0.042200
     67 H4'2        4.4340   -2.6360   -5.4460 hc        1 PLC      0.042200
     68 H5'1        4.1320   -5.1330   -5.6050 hc        1 PLC      0.040200
     69 H5'2        2.6850   -4.8900   -6.6570 hc        1 PLC      0.040200
     70 H6'1        5.5560   -3.9050   -7.2820 hc        1 PLC      0.040200
     71 H6'2        4.1090   -3.6630   -8.3330 hc        1 PLC      0.040200
     72 H7'1        3.8080   -6.1590   -8.4940 hc        1 PLC      0.039200
     73 H7'2        5.2550   -6.4010   -7.4420 hc        1 PLC      0.039200
     74 H8'1        6.6790   -5.1740   -9.1190 hc        1 PLC      0.039700
     75 H8'2        5.2320   -4.9320  -10.1710 hc        1 PLC      0.039700
     76 H9'1        4.9320   -7.4270  -10.3320 hc        1 PLC      0.039200
     77 H9'2        6.3780   -7.6700   -9.2800 hc        1 PLC      0.039200
     78 HT'1        7.8010   -6.4420  -10.9540 hc        1 PLC      0.038700
     79 HT'2        6.3550   -6.2000  -12.0060 hc        1 PLC      0.038700
     80 HE'1        7.5250   -8.9380  -11.1450 hc        1 PLC      0.032700
     81 HE'2        7.7070   -8.1530  -12.7680 hc        1 PLC      0.032700
     82 HE'3        6.0750   -8.6950  -12.2000 hc        1 PLC      0.032700
     83 H1A1        1.6040   -2.9300    2.8810 hc        1 PLC      0.082200
     84 H1A2        0.0450   -2.3970    3.6370 hc        1 PLC      0.082200
     85 H2A1        1.3570   -1.5910    5.6740 hc        1 PLC      0.059200
     86 H2A2        2.8670   -2.2390    4.9310 hc        1 PLC      0.059200
     87 H3A1        0.3200   -3.8950    5.5720 hc        1 PLC      0.040700
     88 H3A2        1.8410   -4.5420    4.8430 hc        1 PLC      0.040700
     89 H4A1        3.1330   -3.7990    6.8750 hc        1 PLC      0.043200
     90 H4A2        1.6120   -3.1560    7.6050 hc        1 PLC      0.043200
     91 H5A1        2.1130   -6.1010    6.7760 hc        1 PLC      0.039700
     92 H5A2        0.5920   -5.4580    7.5050 hc        1 PLC      0.039700
     93 H6A1        1.8810   -4.7160    9.5390 hc        1 PLC      0.040700
     94 H6A2        3.4020   -5.3590    8.8090 hc        1 PLC      0.040700
     95 H7A1        2.3820   -7.6600    8.7100 hc        1 PLC      0.039700
     96 H7A2        0.8610   -7.0180    9.4400 hc        1 PLC      0.039700
     97 H8A1        3.6710   -6.9180   10.7420 hc        1 PLC      0.039700
     98 H8A2        2.1500   -6.2760   11.4720 hc        1 PLC      0.039700
     99 H9A1        2.6510   -9.2200   10.6440 hc        1 PLC      0.039700
    100 H9A2        1.1310   -8.5770   11.3740 hc        1 PLC      0.039700
    101 HTA1        2.4200   -7.8340   13.4050 hc        1 PLC      0.038700
    102 HTA2        3.9400   -8.4770   12.6750 hc        1 PLC      0.038700
    103 HEA1        1.4120  -10.1410   13.3430 hc        1 PLC      0.032700
    104 HEA2        2.9560  -10.1050   14.2890 hc        1 PLC      0.032700
    105 HEA3        2.9360  -10.7860   12.6110 hc        1 PLC      0.032700
    106 C'          1.0970   -0.5660   -2.1470 c         1 PLC      0.643100
@<TRIPOS>BOND
     1    1    2 1   
     2    1   38 1   
     3    1   42 1   
     4    1   43 1   
     5    2    3 1   
     6    2   34 1   
     7    2   44 1   
     8    3   35 1   
     9    3   45 1   
    10    3   46 1   
    11    4    5 3   
    12    4   47 1   
    13    5   49 1   
    14    6   40 1   
    15    6   51 1   
    16    6   52 1   
    17    6   53 1   
    18    7   40 1   
    19    7   54 1   
    20    7   55 1   
    21    7   56 1   
    22    8   40 1   
    23    8   57 1   
    24    8   58 1   
    25    8   59 1   
    26    9   10 1   
    27    9   60 1   
    28    9   61 1   
    29    9  106 1   
    30   10   11 1   
    31   10   62 1   
    32   10   63 1   
    33   11   12 1   
    34   11   64 1   
    35   11   65 1   
    36   12   13 1   
    37   12   66 1   
    38   12   67 1   
    39   13   14 1   
    40   13   68 1   
    41   13   69 1   
    42   14   15 1   
    43   14   70 1   
    44   14   71 1   
    45   15   16 1   
    46   15   72 1   
    47   15   73 1   
    48   16   17 1   
    49   16   74 1   
    50   16   75 1   
    51   17   18 1   
    52   17   76 1   
    53   17   77 1   
    54   18   19 1   
    55   18   78 1   
    56   18   79 1   
    57   19   80 1   
    58   19   81 1   
    59   19   82 1   
    60   20   21 1   
    61   20   33 2   
    62   20   35 1   
    63   21   22 1   
    64   21   83 1   
    65   21   84 1   
    66   22   23 1   
    67   22   85 1   
    68   22   86 1   
    69   23   24 1   
    70   23   87 1   
    71   23   88 1   
    72   24   25 1   
    73   24   89 1   
    74   24   90 1   
    75   25   26 1   
    76   25   91 1   
    77   25   92 1   
    78   26   27 1   
    79   26   93 1   
    80   26   94 1   
    81   27   28 1   
    82   27   95 1   
    83   27   96 1   
    84   28   29 1   
    85   28   97 1   
    86   28   98 1   
    87   29   30 1   
    88   29   99 1   
    89   29  100 1   
    90   30   31 1   
    91   30  101 1   
    92   30  102 1   
    93   31  103 1   
    94   31  104 1   
    95   31  105 1   
    96   32  106 2   
    97   34  106 1   
    98   36   41 2   
    99   37   41 1   
   100   37   50 1   
   101   38   41 1   
   102   39   41 1   
   103   39   48 1   
@<TRIPOS>SUBSTRUCTURE
     1 PLC         1 TEMP              0 ****  ****    0 ROOT
