@<TRIPOS>MOLECULE
PLC
  106   102     1     0     0
SMALL
bcc


@<TRIPOS>ATOM
      1 C1          3.4950    1.8610    0.8280 c2        1 PLC     -0.203000
      2 C2          4.1010    0.6740    0.9070 c2        1 PLC      0.015900
      3 C3          4.8200    0.1490    2.1130 c3        1 PLC      0.174600
      4 C4          2.1270   -8.6080   -0.1610 c1        1 PLC     -0.179500
      5 C5          1.8770   -9.7790   -0.1680 c1        1 PLC     -0.179500
      6 C6          1.6960   -7.2950    3.2920 c3        1 PLC      0.137767
      7 C7          0.0520   -5.8300    4.2700 c3        1 PLC      0.137767
      8 C8         -0.1470   -6.5000    1.9630 c3        1 PLC      0.137767
      9 C1'         4.3280   -1.1560   -2.3000 c3        1 PLC     -0.135400
     10 C2'         3.3560   -1.0140   -3.4520 c3        1 PLC     -0.077400
     11 C3'         3.4860   -2.1820   -4.4060 c3        1 PLC     -0.079400
     12 C4'         2.5100   -2.0570   -5.5560 c3        1 PLC     -0.078400
     13 C5'         2.6410   -3.2210   -6.5140 c3        1 PLC     -0.079400
     14 C6'         1.6670   -3.0950   -7.6670 c3        1 PLC     -0.078400
     15 C7'         1.7980   -4.2590   -8.6250 c3        1 PLC     -0.079400
     16 C8'         0.8260   -4.1330   -9.7790 c3        1 PLC     -0.079400
     17 C9'         0.9560   -5.2970  -10.7380 c3        1 PLC     -0.079400
     18 CA'        -0.0150   -5.1720  -11.8920 c3        1 PLC     -0.080400
     19 CB'         0.1110   -6.3280  -12.8490 c3        1 PLC     -0.092100
     20 CB          3.2830   -0.6460    3.7900 c         1 PLC      0.643100
     21 C1B         2.5720   -1.8630    4.2900 c3        1 PLC     -0.139400
     22 C2B         2.0400   -1.6510    5.6910 c3        1 PLC     -0.076400
     23 C3B         1.3450   -2.8980    6.1940 c3        1 PLC     -0.078400
     24 C4B         0.7770   -2.6840    7.5800 c3        1 PLC     -0.080400
     25 C5B         0.1040   -3.9380    8.0960 c3        1 PLC     -0.078400
     26 C6B        -0.4740   -3.7210    9.4780 c3        1 PLC     -0.079400
     27 C7B        -1.1440   -4.9760    9.9960 c3        1 PLC     -0.078400
     28 C8B        -1.7220   -4.7590   11.3780 c3        1 PLC     -0.079400
     29 C9B        -2.3920   -6.0130   11.8970 c3        1 PLC     -0.079400
     30 CAA        -2.9700   -5.7980   13.2800 c3        1 PLC     -0.080400
     31 CBA        -3.6370   -7.0450   13.8000 c3        1 PLC     -0.093100
     32 O'          4.4150    1.2420   -1.7170 o         1 PLC     -0.526000
     33 OB          3.2460    0.5120    4.2060 o         1 PLC     -0.541000
     34 O2          4.0960   -0.2910   -0.1010 os        1 PLC     -0.386200
     35 O3          4.0850   -0.9250    2.7090 os        1 PLC     -0.457900
     36 O1P         2.7020   -5.4810    0.3560 o         1 PLC     -0.841300
     37 O2P         1.6730   -3.4120    1.4680 oh        1 PLC     -0.773067
     38 O3P         3.8730   -3.1250    0.4110 oh        1 PLC     -0.773067
     39 O4P         3.6510   -4.4850    2.4900 oh        1 PLC     -0.773067
     40 N           0.7510   -6.2210    3.0650 n3        1 PLC     -0.765600
     41 P           2.9740   -4.2400    1.0670 p5        1 PLC      1.669500
     42 H11         3.0130    2.2230   -0.0900 ha        1 PLC      0.142000
     43 H12         3.9200   -2.2710    0.8550 ho        1 PLC      0.495333
     44 H2          3.4750    2.5420    1.6890 ha        1 PLC      0.142000
     45 H31         4.9960    0.9760    2.8500 h1        1 PLC      0.083200
     46 H32         5.7900   -0.3330    1.8110 h1        1 PLC      0.083200
     47 H41         2.3540   -7.5620   -0.1630 ha        1 PLC      0.179000
     48 H42         3.5220   -5.3490    2.8760 ho        1 PLC      0.495333
     49 H51         0.8740   -3.9100    1.6290 ho        1 PLC      0.495333
     50 H52         1.6560  -10.8150   -0.1760 ha        1 PLC      0.179000
     51 H61         1.2130   -8.2350    3.6750 h1        1 PLC      0.039256
     52 H62         2.4530   -6.9570    4.0480 h1        1 PLC      0.039256
     53 H63         2.2180   -7.5330    2.3240 h1        1 PLC      0.039256
     54 H71         0.8030   -5.5290    5.0480 h1        1 PLC      0.039256
     55 H72        -0.6000   -4.9460    4.0420 h1        1 PLC      0.039256
     56 H73        -0.5930   -6.6480    4.6940 h1        1 PLC      0.039256
     57 H81         0.4620   -6.7470    1.0500 h1        1 PLC      0.039256
     58 H82        -0.7620   -5.5840    1.7580 h1        1 PLC      0.039256
     59 H83        -0.8470   -7.3550    2.1690 h1        1 PLC      0.039256
     60 H1'1        4.0960   -2.0740   -1.6920 hc        1 PLC      0.090200
     61 H1'2        5.3790   -1.2520   -2.6850 hc        1 PLC      0.090200
     62 H2'1        2.3070   -0.9650   -3.0570 hc        1 PLC      0.054700
     63 H2'2        3.5540   -0.0520   -3.9950 hc        1 PLC      0.054700
     64 H3'1        4.5340   -2.2270   -4.8060 hc        1 PLC      0.044700
     65 H3'2        3.3000   -3.1420   -3.8560 hc        1 PLC      0.044700
     66 H4'1        2.6960   -1.0950   -6.1040 hc        1 PLC      0.041200
     67 H4'2        1.4620   -2.0130   -5.1580 hc        1 PLC      0.041200
     68 H5'1        3.6890   -3.2660   -6.9120 hc        1 PLC      0.041200
     69 H5'2        2.4530   -4.1820   -5.9660 hc        1 PLC      0.041200
     70 H6'1        1.8540   -2.1340   -8.2140 hc        1 PLC      0.039700
     71 H6'2        0.6190   -3.0510   -7.2700 hc        1 PLC      0.039700
     72 H7'1        1.6090   -5.2210   -8.0780 hc        1 PLC      0.040200
     73 H7'2        2.8470   -4.3050   -9.0210 hc        1 PLC      0.040200
     74 H8'1        1.0140   -3.1720  -10.3260 hc        1 PLC      0.039200
     75 H8'2       -0.2230   -4.0880   -9.3830 hc        1 PLC      0.039200
     76 H9'1        2.0050   -5.3430  -11.1330 hc        1 PLC      0.039700
     77 H9'2        0.7670   -6.2580  -10.1910 hc        1 PLC      0.039700
     78 HT'1       -1.0640   -5.1250  -11.4940 hc        1 PLC      0.038700
     79 HT'2        0.1740   -4.2090  -12.4370 hc        1 PLC      0.038700
     80 HE'1       -0.0980   -7.2950  -12.3300 hc        1 PLC      0.032367
     81 HE'2       -0.6130   -6.2160  -13.6910 hc        1 PLC      0.032367
     82 HE'3        1.1430   -6.3770  -13.2750 hc        1 PLC      0.032367
     83 H1A1        1.7320   -2.0840    3.5750 hc        1 PLC      0.094700
     84 H1A2        3.2760   -2.7390    4.2580 hc        1 PLC      0.094700
     85 H2A1        1.3270   -0.7840    5.6940 hc        1 PLC      0.056200
     86 H2A2        2.8850   -1.3820    6.3780 hc        1 PLC      0.056200
     87 H3A1        0.5210   -3.1840    5.4870 hc        1 PLC      0.039200
     88 H3A2        2.0730   -3.7530    6.2120 hc        1 PLC      0.039200
     89 H4A1        0.0380   -1.8410    7.5580 hc        1 PLC      0.043700
     90 H4A2        1.6000   -2.3830    8.2810 hc        1 PLC      0.043700
     91 H5A1        0.8470   -4.7780    8.1270 hc        1 PLC      0.037200
     92 H5A2       -0.7120   -4.2440    7.3900 hc        1 PLC      0.037200
     93 H6A1       -1.2180   -2.8820    9.4470 hc        1 PLC      0.041700
     94 H6A2        0.3430   -3.4130   10.1830 hc        1 PLC      0.041700
     95 H7A1       -1.9610   -5.2840    9.2910 hc        1 PLC      0.038700
     96 H7A2       -0.4000   -5.8150   10.0270 hc        1 PLC      0.038700
     97 H8A1       -0.9050   -4.4500   12.0830 hc        1 PLC      0.039700
     98 H8A2       -2.4660   -3.9200   11.3480 hc        1 PLC      0.039700
     99 H9A1       -1.6470   -6.8520   11.9280 hc        1 PLC      0.039200
    100 H9A2       -3.2080   -6.3230   11.1930 hc        1 PLC      0.039200
    101 HTA1       -3.7130   -4.9580   13.2470 hc        1 PLC      0.038700
    102 HTA2       -2.1520   -5.4870   13.9820 hc        1 PLC      0.038700
    103 HEA1       -4.0560   -6.8640   14.8190 hc        1 PLC      0.032700
    104 HEA2       -4.4720   -7.3560   13.1260 hc        1 PLC      0.032700
    105 HEA3       -2.9060   -7.8870   13.8630 hc        1 PLC      0.032700
    106 C'          4.2880    0.0570   -1.4200 c         1 PLC      0.644100
@<TRIPOS>BOND
     1    1    2 2   
     2    1   42 1   
     3    1   44 1   
     4    2    3 1   
     5    2   34 1   
     6    3   35 1   
     7    3   45 1   
     8    3   46 1   
     9    4    5 3   
    10    4   47 1   
    11    5   50 1   
    12    6   40 1   
    13    6   51 1   
    14    6   52 1   
    15    6   53 1   
    16    7   40 1   
    17    7   54 1   
    18    7   55 1   
    19    7   56 1   
    20    8   40 1   
    21    8   57 1   
    22    8   58 1   
    23    8   59 1   
    24    9   10 1   
    25    9   60 1   
    26    9   61 1   
    27    9  106 1   
    28   10   11 1   
    29   10   62 1   
    30   10   63 1   
    31   11   12 1   
    32   11   64 1   
    33   11   65 1   
    34   12   13 1   
    35   12   66 1   
    36   12   67 1   
    37   13   14 1   
    38   13   68 1   
    39   13   69 1   
    40   14   15 1   
    41   14   70 1   
    42   14   71 1   
    43   15   16 1   
    44   15   72 1   
    45   15   73 1   
    46   16   17 1   
    47   16   74 1   
    48   16   75 1   
    49   17   18 1   
    50   17   76 1   
    51   17   77 1   
    52   18   19 1   
    53   18   78 1   
    54   18   79 1   
    55   19   80 1   
    56   19   81 1   
    57   19   82 1   
    58   20   21 1   
    59   20   33 2   
    60   20   35 1   
    61   21   22 1   
    62   21   83 1   
    63   21   84 1   
    64   22   23 1   
    65   22   85 1   
    66   22   86 1   
    67   23   24 1   
    68   23   87 1   
    69   23   88 1   
    70   24   25 1   
    71   24   89 1   
    72   24   90 1   
    73   25   26 1   
    74   25   91 1   
    75   25   92 1   
    76   26   27 1   
    77   26   93 1   
    78   26   94 1   
    79   27   28 1   
    80   27   95 1   
    81   27   96 1   
    82   28   29 1   
    83   28   97 1   
    84   28   98 1   
    85   29   30 1   
    86   29   99 1   
    87   29  100 1   
    88   30   31 1   
    89   30  101 1   
    90   30  102 1   
    91   31  103 1   
    92   31  104 1   
    93   31  105 1   
    94   32  106 2   
    95   34  106 1   
    96   36   41 2   
    97   37   41 1   
    98   37   49 1   
    99   38   41 1   
   100   38   43 1   
   101   39   41 1   
   102   39   48 1   
@<TRIPOS>SUBSTRUCTURE
     1 PLC         1 TEMP              0 ****  ****    0 ROOT
