@<TRIPOS>MOLECULE
PLC
  106   102     1     0     0
SMALL
bcc


@<TRIPOS>ATOM
      1 C1         -0.7690   -0.4530   -0.2150 c3        1 PLC      0.214600
      2 C2          0.6880   -0.3500   -0.5760 c2        1 PLC      0.016900
      3 C3          1.5410    0.5420   -0.0650 c2        1 PLC     -0.199000
      4 C4         -6.2130   -2.4420    2.2870 c1        1 PLC     -0.169500
      5 C5         -7.3380   -2.3730    2.6860 c1        1 PLC     -0.169500
      6 C6         -3.8600   -3.6340    4.8960 c3        1 PLC      0.146433
      7 C7         -3.5010   -1.2630    4.6530 c3        1 PLC      0.146433
      8 C8         -2.1810   -2.5270    6.2250 c3        1 PLC      0.146433
      9 C1'         2.0370   -2.3270   -3.3880 c3        1 PLC     -0.128400
     10 C2'         2.6800   -1.9870   -4.7150 c3        1 PLC     -0.079400
     11 C3'         2.9150   -3.2390   -5.5320 c3        1 PLC     -0.079400
     12 C4'         3.5490   -2.9070   -6.8650 c3        1 PLC     -0.078400
     13 C5'         3.7880   -4.1570   -7.6850 c3        1 PLC     -0.079400
     14 C6'         4.4200   -3.8250   -9.0190 c3        1 PLC     -0.079400
     15 C7'         4.6600   -5.0740   -9.8390 c3        1 PLC     -0.079400
     16 C8'         5.2910   -4.7420  -11.1750 c3        1 PLC     -0.079400
     17 C9'         5.5310   -5.9920  -11.9950 c3        1 PLC     -0.079400
     18 CA'         6.1610   -5.6610  -13.3310 c3        1 PLC     -0.080400
     19 CB'         6.4020   -6.9020  -14.1510 c3        1 PLC     -0.092100
     20 CB          1.8250   -1.9060    3.4140 c         1 PLC      0.639100
     21 C1B         2.1720   -3.1070    4.2340 c3        1 PLC     -0.127400
     22 C2B         1.6010   -2.9890    5.6310 c3        1 PLC     -0.082400
     23 C3B         2.0150   -4.1690    6.4840 c3        1 PLC     -0.079400
     24 C4B         1.3900   -4.0880    7.8600 c3        1 PLC     -0.079400
     25 C5B         1.7900   -5.2730    8.7140 c3        1 PLC     -0.079400
     26 C6B         1.1670   -5.1920   10.0910 c3        1 PLC     -0.079400
     27 C7B         1.5660   -6.3760   10.9450 c3        1 PLC     -0.079400
     28 C8B         0.9430   -6.2950   12.3220 c3        1 PLC     -0.079400
     29 C9B         1.3420   -7.4790   13.1760 c3        1 PLC     -0.079400
     30 CAA         0.7190   -7.4000   14.5530 c3        1 PLC     -0.080400
     31 CBA         1.1140   -8.5770   15.4070 c3        1 PLC     -0.093100
     32 O'          2.3000    0.0320   -2.6950 o         1 PLC     -0.518000
     33 OB          1.9180   -0.7090    3.6950 o         1 PLC     -0.546000
     34 O2          1.0470   -1.3680   -1.4580 os        1 PLC     -0.393200
     35 O3          1.3540   -2.2070    2.1700 oh        1 PLC     -0.640100
     36 O1P        -2.3620   -2.7940   -0.9570 o         1 PLC     -0.786300
     37 O2P        -2.9780   -2.6540    1.5580 oh        1 PLC     -0.776400
     38 O3P        -0.9590   -1.4540    0.7590 os        1 PLC     -0.608200
     39 O4P        -0.9340   -3.8430    1.0170 oh        1 PLC     -0.776400
     40 N          -2.9110   -2.5440    4.9770 n3        1 PLC     -0.756600
     41 P          -1.8840   -2.7250    0.4100 p5        1 PLC      1.654500
     42 H11        -1.3810   -0.6960   -1.1300 h1        1 PLC      0.074200
     43 H12         1.1370   -1.3890    1.6810 ho        1 PLC      0.468000
     44 H2         -1.0990    0.5240    0.2380 h1        1 PLC      0.074200
     45 H31         1.2170    1.2730    0.6870 ha        1 PLC      0.140000
     46 H32         2.5880    0.6130   -0.3880 ha        1 PLC      0.140000
     47 H41        -5.2140   -2.5020    1.9210 ha        1 PLC      0.169500
     48 H42        -0.0700   -3.5790    1.3390 ho        1 PLC      0.502000
     49 H51        -8.3360   -2.3130    3.0400 ha        1 PLC      0.169500
     50 H52        -2.6850   -2.8310    2.4530 ho        1 PLC      0.502000
     51 H61        -4.6600   -3.5850    5.6830 h1        1 PLC      0.035478
     52 H62        -4.3540   -3.6110    3.8860 h1        1 PLC      0.035478
     53 H63        -3.3080   -4.6030    5.0090 h1        1 PLC      0.035478
     54 H71        -3.9800   -1.3310    3.6390 h1        1 PLC      0.035478
     55 H72        -2.6910   -0.4880    4.6210 h1        1 PLC      0.035478
     56 H73        -4.2790   -0.9340    5.3940 h1        1 PLC      0.035478
     57 H81        -1.4070   -1.7160    6.1840 h1        1 PLC      0.035478
     58 H82        -2.8380   -2.3460    7.1200 h1        1 PLC      0.035478
     59 H83        -1.6640   -3.5140    6.3600 h1        1 PLC      0.035478
     60 H1'1        1.0360   -2.8140   -3.5450 hc        1 PLC      0.084700
     61 H1'2        2.6770   -3.0470   -2.8110 hc        1 PLC      0.084700
     62 H2'1        3.6520   -1.4560   -4.5360 hc        1 PLC      0.058200
     63 H2'2        2.0200   -1.2790   -5.2810 hc        1 PLC      0.058200
     64 H3'1        3.5800   -3.9420   -4.9630 hc        1 PLC      0.042200
     65 H3'2        1.9400   -3.7690   -5.7000 hc        1 PLC      0.042200
     66 H4'1        4.5220   -2.3750   -6.6970 hc        1 PLC      0.042700
     67 H4'2        2.8830   -2.2050   -7.4340 hc        1 PLC      0.042700
     68 H5'1        2.8140   -4.6890   -7.8520 hc        1 PLC      0.040200
     69 H5'2        4.4550   -4.8580   -7.1170 hc        1 PLC      0.040200
     70 H6'1        3.7530   -3.1240   -9.5880 hc        1 PLC      0.040200
     71 H6'2        5.3930   -3.2920   -8.8530 hc        1 PLC      0.040200
     72 H7'1        5.3270   -5.7750   -9.2720 hc        1 PLC      0.039700
     73 H7'2        3.6870   -5.6070  -10.0060 hc        1 PLC      0.039700
     74 H8'1        4.6230   -4.0420  -11.7420 hc        1 PLC      0.039700
     75 H8'2        6.2640   -4.2090  -11.0080 hc        1 PLC      0.039700
     76 H9'1        4.5580   -6.5260  -12.1610 hc        1 PLC      0.039700
     77 H9'2        6.1990   -6.6920  -11.4270 hc        1 PLC      0.039700
     78 HT'1        5.4920   -4.9600  -13.8960 hc        1 PLC      0.038700
     79 HT'2        7.1330   -5.1250  -13.1630 hc        1 PLC      0.038700
     80 HE'1        5.4420   -7.4360  -14.3500 hc        1 PLC      0.032700
     81 HE'2        6.8670   -6.6360  -15.1310 hc        1 PLC      0.032700
     82 HE'3        7.0880   -7.6020  -13.6140 hc        1 PLC      0.032700
     83 H1A1        1.7870   -4.0330    3.7300 hc        1 PLC      0.077700
     84 H1A2        3.2920   -3.1760    4.2760 hc        1 PLC      0.077700
     85 H2A1        1.9560   -2.0320    6.1000 hc        1 PLC      0.058700
     86 H2A2        0.4800   -2.9360    5.5780 hc        1 PLC      0.058700
     87 H3A1        1.7030   -5.1240    5.9840 hc        1 PLC      0.042200
     88 H3A2        3.1330   -4.1940    6.5770 hc        1 PLC      0.042200
     89 H4A1        0.2720   -4.0530    7.7630 hc        1 PLC      0.041200
     90 H4A2        1.7090   -3.1370    8.3630 hc        1 PLC      0.041200
     91 H5A1        1.4700   -6.2240    8.2120 hc        1 PLC      0.040700
     92 H5A2        2.9070   -5.3080    8.8080 hc        1 PLC      0.040700
     93 H6A1        1.4870   -4.2410   10.5930 hc        1 PLC      0.040200
     94 H6A2        0.0490   -5.1560    9.9970 hc        1 PLC      0.040200
     95 H7A1        2.6830   -6.4120   11.0390 hc        1 PLC      0.039700
     96 H7A2        1.2460   -7.3270   10.4420 hc        1 PLC      0.039700
     97 H8A1        1.2620   -5.3450   12.8240 hc        1 PLC      0.039700
     98 H8A2       -0.1750   -6.2600   12.2270 hc        1 PLC      0.039700
     99 H9A1        1.0230   -8.4310   12.6740 hc        1 PLC      0.039700
    100 H9A2        2.4590   -7.5150   13.2710 hc        1 PLC      0.039700
    101 HTA1       -0.3980   -7.3630   14.4560 hc        1 PLC      0.038700
    102 HTA2        1.0380   -6.4480   15.0530 hc        1 PLC      0.038700
    103 HEA1        2.2230   -8.6160   15.5360 hc        1 PLC      0.032700
    104 HEA2        0.6450   -8.4990   16.4180 hc        1 PLC      0.032700
    105 HEA3        0.7830   -9.5350   14.9370 hc        1 PLC      0.032700
    106 C'          1.8500   -1.1010   -2.5480 c         1 PLC      0.643100
@<TRIPOS>BOND
     1    1    2 1   
     2    1   38 1   
     3    1   42 1   
     4    1   44 1   
     5    2    3 2   
     6    2   34 1   
     7    3   45 1   
     8    3   46 1   
     9    4    5 3   
    10    4   47 1   
    11    5   49 1   
    12    6   40 1   
    13    6   51 1   
    14    6   52 1   
    15    6   53 1   
    16    7   40 1   
    17    7   54 1   
    18    7   55 1   
    19    7   56 1   
    20    8   40 1   
    21    8   57 1   
    22    8   58 1   
    23    8   59 1   
    24    9   10 1   
    25    9   60 1   
    26    9   61 1   
    27    9  106 1   
    28   10   11 1   
    29   10   62 1   
    30   10   63 1   
    31   11   12 1   
    32   11   64 1   
    33   11   65 1   
    34   12   13 1   
    35   12   66 1   
    36   12   67 1   
    37   13   14 1   
    38   13   68 1   
    39   13   69 1   
    40   14   15 1   
    41   14   70 1   
    42   14   71 1   
    43   15   16 1   
    44   15   72 1   
    45   15   73 1   
    46   16   17 1   
    47   16   74 1   
    48   16   75 1   
    49   17   18 1   
    50   17   76 1   
    51   17   77 1   
    52   18   19 1   
    53   18   78 1   
    54   18   79 1   
    55   19   80 1   
    56   19   81 1   
    57   19   82 1   
    58   20   21 1   
    59   20   33 2   
    60   20   35 1   
    61   21   22 1   
    62   21   83 1   
    63   21   84 1   
    64   22   23 1   
    65   22   85 1   
    66   22   86 1   
    67   23   24 1   
    68   23   87 1   
    69   23   88 1   
    70   24   25 1   
    71   24   89 1   
    72   24   90 1   
    73   25   26 1   
    74   25   91 1   
    75   25   92 1   
    76   26   27 1   
    77   26   93 1   
    78   26   94 1   
    79   27   28 1   
    80   27   95 1   
    81   27   96 1   
    82   28   29 1   
    83   28   97 1   
    84   28   98 1   
    85   29   30 1   
    86   29   99 1   
    87   29  100 1   
    88   30   31 1   
    89   30  101 1   
    90   30  102 1   
    91   31  103 1   
    92   31  104 1   
    93   31  105 1   
    94   32  106 2   
    95   34  106 1   
    96   35   43 1   
    97   36   41 2   
    98   37   41 1   
    99   37   50 1   
   100   38   41 1   
   101   39   41 1   
   102   39   48 1   
@<TRIPOS>SUBSTRUCTURE
     1 PLC         1 TEMP              0 ****  ****    0 ROOT
