@<TRIPOS>MOLECULE
PLD
  160   159     1     0     0
SMALL
bcc


@<TRIPOS>ATOM
      1 C1         -0.2740   -5.3980   -1.0380 c3        1 PLD      0.166400
      2 C2          0.5970   -5.2520   -2.2910 c3        1 PLD      0.121100
      3 C3         -0.2190   -4.9670   -3.5560 c3        1 PLD      0.128400
      4 C4         -2.3230   -2.2750    1.3040 c3        1 PLD      0.219400
      5 C5         -1.5810   -0.9170    1.1790 c3        1 PLD      0.081800
      6 C6         -0.2530   -1.0630    3.2780 c3        1 PLD      0.091100
      7 C7         -0.5530    1.0600    2.1410 c3        1 PLD      0.091100
      8 C8         -2.4330    0.0260    3.2780 c3        1 PLD      0.091100
      9 C1'         3.4230   -3.1240   -1.1920 c3        1 PLD     -0.127400
     10 C2'         4.9220   -3.2580   -1.3530 c3        1 PLD     -0.080400
     11 C3'         5.6340   -2.0350   -0.8180 c3        1 PLD     -0.077400
     12 C4'         7.1330   -2.1550   -0.9950 c3        1 PLD     -0.080400
     13 C5'         7.8490   -0.9350   -0.4570 c3        1 PLD     -0.078400
     14 C6'         9.3470   -1.0550   -0.6350 c3        1 PLD     -0.079400
     15 C7'        10.0650    0.1640   -0.0970 c3        1 PLD     -0.078400
     16 C8'        11.5630    0.0430   -0.2760 c3        1 PLD     -0.079400
     17 C9'        12.2810    1.2630    0.2610 c3        1 PLD     -0.078400
     18 CA'        13.7790    1.1420    0.0820 c3        1 PLD     -0.079400
     19 CB'        14.4970    2.3610    0.6190 c3        1 PLD     -0.078400
     20 CB         -2.4090   -4.0290   -3.2160 c         1 PLD      0.641100
     21 C1B        -3.0900   -2.8270   -2.6410 c3        1 PLD     -0.140400
     22 C2B        -4.5860   -2.8790   -2.8540 c3        1 PLD     -0.079400
     23 C3B        -5.2720   -1.7530   -2.1110 c3        1 PLD     -0.074400
     24 C4B        -6.7710   -1.8000   -2.3100 c3        1 PLD     -0.081400
     25 C5B        -7.4610   -0.6720   -1.5730 c3        1 PLD     -0.076400
     26 C6B        -8.9600   -0.7220   -1.7730 c3        1 PLD     -0.080400
     27 C7B        -9.6510    0.4070   -1.0380 c3        1 PLD     -0.077400
     28 C8B       -11.1500    0.3570   -1.2380 c3        1 PLD     -0.079400
     29 C9B       -11.8410    1.4850   -0.5030 c3        1 PLD     -0.078400
     30 CAA       -13.3410    1.4350   -0.7050 c3        1 PLD     -0.079400
     31 CBA       -14.0320    2.5630    0.0300 c3        1 PLD     -0.078400
     32 O'          3.1160   -5.5500   -1.4750 o         1 PLD     -0.549000
     33 OB         -2.8880   -5.1130   -3.5500 o         1 PLD     -0.544000
     34 O2          1.4960   -4.1420   -2.1400 os        1 PLD     -0.416900
     35 O3         -1.0600   -3.8270   -3.3650 os        1 PLD     -0.434900
     36 O1P        -1.6300   -5.5470    1.4290 o         1 PLD     -0.825500
     37 O2P        -0.1380   -3.5260    2.2580 o         1 PLD     -0.825500
     38 O3P         0.2590   -4.6180   -0.0020 os        1 PLD     -0.556200
     39 O4P        -1.7380   -3.1990    0.4680 os        1 PLD     -0.560200
     40 N          -1.2080   -0.2400    2.4740 n4        1 PLD     -0.591800
     41 P          -0.7810   -4.3720    1.2260 p5        1 PLD      1.437800
     42 CC'        15.9950    2.2400    0.4400 c3        1 PLD     -0.079400
     43 CD'        16.7140    3.4590    0.9770 c3        1 PLD     -0.078400
     44 CE'        18.2120    3.3380    0.7970 c3        1 PLD     -0.079400
     45 CF'        18.9300    4.5570    1.3340 c3        1 PLD     -0.078400
     46 CG'        20.4280    4.4350    1.1550 c3        1 PLD     -0.079400
     47 CH'        21.1470    5.6550    1.6920 c3        1 PLD     -0.079400
     48 CI'        22.6450    5.5330    1.5130 c3        1 PLD     -0.079400
     49 CJ'        23.3650    6.7520    2.0490 c3        1 PLD     -0.080400
     50 CK'        24.8570    6.6350    1.8740 c3        1 PLD     -0.092100
     51 CCA       -15.5320    2.5120   -0.1720 c3        1 PLD     -0.079400
     52 CDA       -16.2240    3.6400    0.5630 c3        1 PLD     -0.078400
     53 CEA       -17.7230    3.5890    0.3610 c3        1 PLD     -0.079400
     54 CFA       -18.4150    4.7170    1.0960 c3        1 PLD     -0.078400
     55 CGA       -19.9140    4.6660    0.8950 c3        1 PLD     -0.079400
     56 CHA       -20.6060    5.7940    1.6300 c3        1 PLD     -0.079400
     57 CIA       -22.1050    5.7430    1.4280 c3        1 PLD     -0.079400
     58 CJA       -22.7990    6.8700    2.1630 c3        1 PLD     -0.080400
     59 CKA       -24.2920    6.8230    1.9650 c3        1 PLD     -0.093100
     60 H11        -1.3280   -5.0580   -1.2450 h1        1 PLD      0.045200
     61 H12        -0.3000   -6.4700   -0.7030 h1        1 PLD      0.045200
     62 H2          1.1870   -6.1970   -2.4570 h1        1 PLD      0.081700
     63 H31         0.4650   -4.6710   -4.3960 h1        1 PLD      0.075200
     64 H32        -0.8150   -5.8770   -3.8300 h1        1 PLD      0.075200
     65 H41        -2.3270   -2.6460    2.3670 h1        1 PLD      0.036700
     66 H42        -3.3840   -2.1060    0.9600 h1        1 PLD      0.036700
     67 H51        -0.6260   -1.0800    0.6010 hx        1 PLD      0.090700
     68 H52        -2.2320   -0.1950    0.6140 hx        1 PLD      0.090700
     69 H61         0.5740   -1.4440    2.6140 hx        1 PLD      0.097144
     70 H62         0.1520   -0.4330    4.1110 hx        1 PLD      0.097144
     71 H63        -0.7730   -1.9730    3.6890 hx        1 PLD      0.097144
     72 H71        -1.2450    1.6840    1.5180 hx        1 PLD      0.097144
     73 H72        -0.3030    1.6060    3.0870 hx        1 PLD      0.097144
     74 H73         0.3890    0.8550    1.5670 hx        1 PLD      0.097144
     75 H81        -2.9430   -0.9470    3.5090 hx        1 PLD      0.097144
     76 H82        -2.1460    0.5330    4.2360 hx        1 PLD      0.097144
     77 H83        -3.1290    0.6830    2.6950 hx        1 PLD      0.097144
     78 H1'1        3.0320   -2.2720   -1.8060 hc        1 PLD      0.075700
     79 H1'2        3.1580   -2.9250   -0.1180 hc        1 PLD      0.075700
     80 H2'1        5.2740   -4.1760   -0.8120 hc        1 PLD      0.057700
     81 H2'2        5.1720   -3.3980   -2.4380 hc        1 PLD      0.057700
     82 H3'1        5.2640   -1.1190   -1.3500 hc        1 PLD      0.036200
     83 H3'2        5.3940   -1.9050    0.2710 hc        1 PLD      0.036200
     84 H4'1        7.5010   -3.0730   -0.4650 hc        1 PLD      0.043700
     85 H4'2        7.3730   -2.2830   -2.0830 hc        1 PLD      0.043700
     86 H5'1        7.4800   -0.0170   -0.9860 hc        1 PLD      0.036700
     87 H5'2        7.6100   -0.8080    0.6320 hc        1 PLD      0.036700
     88 H6'1        9.7170   -1.9730   -0.1060 hc        1 PLD      0.041200
     89 H6'2        9.5870   -1.1830   -1.7240 hc        1 PLD      0.041200
     90 H7'1        9.6960    1.0820   -0.6260 hc        1 PLD      0.038200
     91 H7'2        9.8260    0.2910    0.9910 hc        1 PLD      0.038200
     92 H8'1       11.9320   -0.8740    0.2530 hc        1 PLD      0.040700
     93 H8'2       11.8030   -0.0850   -1.3650 hc        1 PLD      0.040700
     94 H9'1       11.9120    2.1800   -0.2680 hc        1 PLD      0.038700
     95 H9'2       12.0420    1.3910    1.3500 hc        1 PLD      0.038700
     96 HT'1       14.1480    0.2240    0.6110 hc        1 PLD      0.040200
     97 HT'2       14.0180    1.0130   -1.0070 hc        1 PLD      0.040200
     98 HE'1       14.1280    3.2790    0.0890 hc        1 PLD      0.038700
     99 HE'2       14.2580    2.4890    1.7080 hc        1 PLD      0.038700
    100 H1A1       -2.8430   -2.8180   -1.5390 hc        1 PLD      0.089200
    101 H1A2       -2.6530   -1.9010   -3.0980 hc        1 PLD      0.089200
    102 H2A1       -4.8160   -2.8100   -3.9490 hc        1 PLD      0.059700
    103 H2A2       -4.9790   -3.8690   -2.4970 hc        1 PLD      0.059700
    104 H3A1       -5.0350   -1.8270   -1.0160 hc        1 PLD      0.031700
    105 H3A2       -4.8750   -0.7670   -2.4710 hc        1 PLD      0.031700
    106 H4A1       -7.0070   -1.7340   -3.4050 hc        1 PLD      0.046200
    107 H4A2       -7.1660   -2.7860   -1.9460 hc        1 PLD      0.046200
    108 H5A1       -7.2260   -0.7400   -0.4780 hc        1 PLD      0.033200
    109 H5A2       -7.0650    0.3120   -1.9360 hc        1 PLD      0.033200
    110 H6A1       -9.1950   -0.6560   -2.8680 hc        1 PLD      0.043200
    111 H6A2       -9.3560   -1.7060   -1.4090 hc        1 PLD      0.043200
    112 H7A1       -9.4160    0.3410    0.0580 hc        1 PLD      0.036200
    113 H7A2       -9.2550    1.3910   -1.4020 hc        1 PLD      0.036200
    114 H8A1      -11.3850    0.4220   -2.3340 hc        1 PLD      0.041700
    115 H8A2      -11.5460   -0.6280   -0.8740 hc        1 PLD      0.041700
    116 H9A1      -11.6070    1.4200    0.5920 hc        1 PLD      0.037700
    117 H9A2      -11.4460    2.4700   -0.8680 hc        1 PLD      0.037700
    118 HTA1      -13.5750    1.5000   -1.8000 hc        1 PLD      0.040700
    119 HTA2      -13.7360    0.4500   -0.3400 hc        1 PLD      0.040700
    120 HEA1      -13.7980    2.4980    1.1250 hc        1 PLD      0.038700
    121 HEA2      -13.6370    3.5470   -0.3350 hc        1 PLD      0.038700
    122 HA'1       16.3650    1.3220    0.9690 hc        1 PLD      0.039700
    123 HA'2       16.2350    2.1110   -0.6490 hc        1 PLD      0.039700
    124 HB'1       16.3450    4.3770    0.4470 hc        1 PLD      0.038700
    125 HB'2       16.4740    3.5880    2.0650 hc        1 PLD      0.038700
    126 HC'1       18.5810    2.4200    1.3270 hc        1 PLD      0.039700
    127 HC'2       18.4510    3.2090   -0.2910 hc        1 PLD      0.039700
    128 HD'1       18.5610    5.4750    0.8040 hc        1 PLD      0.039200
    129 HD'2       18.6910    4.6860    2.4230 hc        1 PLD      0.039200
    130 HF'1       20.7970    3.5180    1.6850 hc        1 PLD      0.039700
    131 HF'2       20.6680    4.3060    0.0670 hc        1 PLD      0.039700
    132 HG'1       20.7780    6.5720    1.1610 hc        1 PLD      0.038700
    133 HG'2       20.9070    5.7840    2.7800 hc        1 PLD      0.038700
    134 HH'1       23.0140    4.6160    2.0440 hc        1 PLD      0.039700
    135 HH'2       22.8850    5.4040    0.4250 hc        1 PLD      0.039700
    136 HI'1       22.9940    7.6680    1.5190 hc        1 PLD      0.037700
    137 HI'2       23.1220    6.8800    3.1380 hc        1 PLD      0.037700
    138 HJ'1       25.2490    5.7410    2.4170 hc        1 PLD      0.032700
    139 HJ'2       25.1200    6.5310    0.7940 hc        1 PLD      0.032700
    140 HJ'3       25.3680    7.5430    2.2750 hc        1 PLD      0.032700
    141 HAA1      -15.7660    2.5770   -1.2670 hc        1 PLD      0.040200
    142 HAA2      -15.9270    1.5280    0.1930 hc        1 PLD      0.040200
    143 HBA1      -15.9890    3.5750    1.6590 hc        1 PLD      0.038700
    144 HBA2      -15.8280    4.6250    0.1990 hc        1 PLD      0.038700
    145 HCA1      -17.9570    3.6540   -0.7340 hc        1 PLD      0.039700
    146 HCA2      -18.1180    2.6050    0.7260 hc        1 PLD      0.039700
    147 HDA1      -18.1800    4.6520    2.1920 hc        1 PLD      0.038700
    148 HDA2      -18.0200    5.7020    0.7320 hc        1 PLD      0.038700
    149 HFA1      -20.1490    4.7310   -0.2010 hc        1 PLD      0.039700
    150 HFA2      -20.3090    3.6810    1.2590 hc        1 PLD      0.039700
    151 HGA1      -20.3720    5.7290    2.7250 hc        1 PLD      0.038700
    152 HGA2      -20.2110    6.7790    1.2650 hc        1 PLD      0.038700
    153 HHA1      -22.3400    5.8080    0.3330 hc        1 PLD      0.039700
    154 HHA2      -22.5010    4.7580    1.7920 hc        1 PLD      0.039700
    155 HIA1      -22.5620    6.8040    3.2570 hc        1 PLD      0.037700
    156 HIA2      -22.4010    7.8540    1.7980 hc        1 PLD      0.037700
    157 HJA1      -24.5500    6.9130    0.8810 hc        1 PLD      0.032700
    158 HJA2      -24.7100    5.8600    2.3450 hc        1 PLD      0.032700
    159 HJA3      -24.7840    7.6620    2.5140 hc        1 PLD      0.032700
    160 C'          2.7190   -4.3880   -1.5790 c         1 PLD      0.654100
@<TRIPOS>BOND
     1    1    2 1   
     2    1   38 1   
     3    1   60 1   
     4    1   61 1   
     5    2    3 1   
     6    2   34 1   
     7    2   62 1   
     8    3   35 1   
     9    3   63 1   
    10    3   64 1   
    11    4    5 1   
    12    4   39 1   
    13    4   65 1   
    14    4   66 1   
    15    5   40 1   
    16    5   67 1   
    17    5   68 1   
    18    6   40 1   
    19    6   69 1   
    20    6   70 1   
    21    6   71 1   
    22    7   40 1   
    23    7   72 1   
    24    7   73 1   
    25    7   74 1   
    26    8   40 1   
    27    8   75 1   
    28    8   76 1   
    29    8   77 1   
    30    9   10 1   
    31    9   78 1   
    32    9   79 1   
    33    9  160 1   
    34   10   11 1   
    35   10   80 1   
    36   10   81 1   
    37   11   12 1   
    38   11   82 1   
    39   11   83 1   
    40   12   13 1   
    41   12   84 1   
    42   12   85 1   
    43   13   14 1   
    44   13   86 1   
    45   13   87 1   
    46   14   15 1   
    47   14   88 1   
    48   14   89 1   
    49   15   16 1   
    50   15   90 1   
    51   15   91 1   
    52   16   17 1   
    53   16   92 1   
    54   16   93 1   
    55   17   18 1   
    56   17   94 1   
    57   17   95 1   
    58   18   19 1   
    59   18   96 1   
    60   18   97 1   
    61   19   42 1   
    62   19   98 1   
    63   19   99 1   
    64   20   21 1   
    65   20   33 2   
    66   20   35 1   
    67   21   22 1   
    68   21  100 1   
    69   21  101 1   
    70   22   23 1   
    71   22  102 1   
    72   22  103 1   
    73   23   24 1   
    74   23  104 1   
    75   23  105 1   
    76   24   25 1   
    77   24  106 1   
    78   24  107 1   
    79   25   26 1   
    80   25  108 1   
    81   25  109 1   
    82   26   27 1   
    83   26  110 1   
    84   26  111 1   
    85   27   28 1   
    86   27  112 1   
    87   27  113 1   
    88   28   29 1   
    89   28  114 1   
    90   28  115 1   
    91   29   30 1   
    92   29  116 1   
    93   29  117 1   
    94   30   31 1   
    95   30  118 1   
    96   30  119 1   
    97   31   51 1   
    98   31  120 1   
    99   31  121 1   
   100   32  160 2   
   101   34  160 1   
   102   36   41 1   
   103   37   41 1   
   104   38   41 1   
   105   39   41 1   
   106   42   43 1   
   107   42  122 1   
   108   42  123 1   
   109   43   44 1   
   110   43  124 1   
   111   43  125 1   
   112   44   45 1   
   113   44  126 1   
   114   44  127 1   
   115   45   46 1   
   116   45  128 1   
   117   45  129 1   
   118   46   47 1   
   119   46  130 1   
   120   46  131 1   
   121   47   48 1   
   122   47  132 1   
   123   47  133 1   
   124   48   49 1   
   125   48  134 1   
   126   48  135 1   
   127   49   50 1   
   128   49  136 1   
   129   49  137 1   
   130   50  138 1   
   131   50  139 1   
   132   50  140 1   
   133   51   52 1   
   134   51  141 1   
   135   51  142 1   
   136   52   53 1   
   137   52  143 1   
   138   52  144 1   
   139   53   54 1   
   140   53  145 1   
   141   53  146 1   
   142   54   55 1   
   143   54  147 1   
   144   54  148 1   
   145   55   56 1   
   146   55  149 1   
   147   55  150 1   
   148   56   57 1   
   149   56  151 1   
   150   56  152 1   
   151   57   58 1   
   152   57  153 1   
   153   57  154 1   
   154   58   59 1   
   155   58  155 1   
   156   58  156 1   
   157   59  157 1   
   158   59  158 1   
   159   59  159 1   
@<TRIPOS>SUBSTRUCTURE
     1 PLD         1 TEMP              0 ****  ****    0 ROOT
