@<TRIPOS>MOLECULE
PLD
  160   159     1     0     0
SMALL
bcc


@<TRIPOS>ATOM
      1 C1         -0.7670    0.1810    0.8060 c3        1 PLD      0.166400
      2 C2          0.4120    1.0270    0.3050 c3        1 PLD      0.102100
      3 C3          1.2400    1.6530    1.4280 c3        1 PLD      0.146400
      4 C4         -1.3040   -2.9840    3.2170 c3        1 PLD      0.192400
      5 C5         -2.1330   -4.1550    3.7780 c3        1 PLD      0.092800
      6 C6         -3.1830   -5.0710    1.7400 c3        1 PLD      0.077767
      7 C7         -4.1550   -5.4810    3.9230 c3        1 PLD      0.077767
      8 C8         -4.2880   -3.2620    2.9490 c3        1 PLD      0.077767
      9 C1'         1.8070   -1.1410   -2.3490 c3        1 PLD     -0.145400
     10 C2'         1.8290   -1.0660   -3.8600 c3        1 PLD     -0.073400
     11 C3'         2.5730   -2.2480   -4.4430 c3        1 PLD     -0.078400
     12 C4'         2.6090   -2.1780   -5.9540 c3        1 PLD     -0.078400
     13 C5'         3.3510   -3.3580   -6.5420 c3        1 PLD     -0.079400
     14 C6'         3.3870   -3.2880   -8.0540 c3        1 PLD     -0.079400
     15 C7'         4.1300   -4.4670   -8.6430 c3        1 PLD     -0.078400
     16 C8'         4.1660   -4.3950  -10.1540 c3        1 PLD     -0.079400
     17 C9'         4.9090   -5.5740  -10.7440 c3        1 PLD     -0.078400
     18 CA'         4.9450   -5.5010  -12.2550 c3        1 PLD     -0.079400
     19 CB'         5.6890   -6.6790  -12.8460 c3        1 PLD     -0.079400
     20 CB          1.1810    0.2360    3.3650 c         1 PLD      0.663100
     21 C1B         1.8150   -0.9840    3.9580 c3        1 PLD     -0.134400
     22 C2B         1.4640   -1.1360    5.4220 c3        1 PLD     -0.078400
     23 C3B         1.9330   -2.4740    5.9520 c3        1 PLD     -0.081400
     24 C4B         1.6070   -2.6250    7.4220 c3        1 PLD     -0.079400
     25 C5B         2.0610   -3.9680    7.9520 c3        1 PLD     -0.079400
     26 C6B         1.7270   -4.1200    9.4200 c3        1 PLD     -0.079400
     27 C7B         2.1780   -5.4640    9.9510 c3        1 PLD     -0.079400
     28 C8B         1.8420   -5.6170   11.4190 c3        1 PLD     -0.079400
     29 C9B         2.2920   -6.9610   11.9500 c3        1 PLD     -0.079400
     30 CAA         1.9550   -7.1120   13.4170 c3        1 PLD     -0.079400
     31 CBA         2.4050   -8.4570   13.9490 c3        1 PLD     -0.079400
     32 O'         -0.0210    0.5210   -2.2450 o         1 PLD     -0.570000
     33 OB          0.1900    0.8600    3.7510 o         1 PLD     -0.569000
     34 O2          1.3220    0.2460   -0.4780 os        1 PLD     -0.423900
     35 O3          1.8580    0.6740    2.2590 os        1 PLD     -0.415900
     36 O1P        -2.3800   -2.3430    0.7460 o         1 PLD     -0.825500
     37 O2P        -0.0570   -2.8650   -0.3820 o         1 PLD     -0.825500
     38 O3P        -0.3520   -1.0140    1.4000 os        1 PLD     -0.586200
     39 O4P        -0.6310   -3.3610    2.0690 os        1 PLD     -0.561200
     40 N          -3.4320   -4.4770    3.0870 n4        1 PLD     -0.581800
     41 P          -0.8960   -2.4050    0.7260 p5        1 PLD      1.452800
     42 CC'         5.7240   -6.6060  -14.3570 c3        1 PLD     -0.079400
     43 CD'         6.4690   -7.7840  -14.9480 c3        1 PLD     -0.079400
     44 CE'         6.5050   -7.7100  -16.4590 c3        1 PLD     -0.079400
     45 CF'         7.2500   -8.8870  -17.0500 c3        1 PLD     -0.079400
     46 CG'         7.2850   -8.8130  -18.5620 c3        1 PLD     -0.079400
     47 CH'         8.0300   -9.9910  -19.1530 c3        1 PLD     -0.079400
     48 CI'         8.0650   -9.9160  -20.6640 c3        1 PLD     -0.079400
     49 CJ'         8.8100  -11.0940  -21.2570 c3        1 PLD     -0.080400
     50 CK'         8.8480  -11.0240  -22.7610 c3        1 PLD     -0.092100
     51 CCA         2.0670   -8.6080   15.4160 c3        1 PLD     -0.079400
     52 CDA         2.5160   -9.9520   15.9480 c3        1 PLD     -0.079400
     53 CEA         2.1780  -10.1030   17.4160 c3        1 PLD     -0.079400
     54 CFA         2.6270  -11.4470   17.9480 c3        1 PLD     -0.079400
     55 CGA         2.2890  -11.5980   19.4150 c3        1 PLD     -0.079400
     56 CHA         2.7360  -12.9430   19.9470 c3        1 PLD     -0.079400
     57 CIA         2.3990  -13.0940   21.4150 c3        1 PLD     -0.079400
     58 CJA         2.8460  -14.4380   21.9480 c3        1 PLD     -0.080400
     59 CKA         2.5120  -14.5930   23.4090 c3        1 PLD     -0.092100
     60 H11        -1.3070    0.7880    1.5890 h1        1 PLD      0.048700
     61 H12        -1.4580   -0.0350   -0.0560 h1        1 PLD      0.048700
     62 H2         -0.0070    1.8610   -0.3300 h1        1 PLD      0.070700
     63 H31         0.5850    2.3350    2.0310 h1        1 PLD      0.068700
     64 H32         2.1130    2.2100    0.9930 h1        1 PLD      0.068700
     65 H41        -0.5460   -2.7540    4.0270 h1        1 PLD      0.061200
     66 H42        -1.9460   -2.0770    3.0390 h1        1 PLD      0.061200
     67 H51        -1.4980   -5.0840    3.7320 hx        1 PLD      0.080700
     68 H52        -2.3850   -3.9170    4.8490 hx        1 PLD      0.080700
     69 H61        -2.6530   -4.2990    1.0990 hx        1 PLD      0.100144
     70 H62        -4.1630   -5.3350    1.2690 hx        1 PLD      0.100144
     71 H63        -2.5410   -5.9820    1.8510 hx        1 PLD      0.100144
     72 H71        -3.4980   -6.3760    4.0820 hx        1 PLD      0.100144
     73 H72        -4.4180   -5.0250    4.9130 hx        1 PLD      0.100144
     74 H73        -5.0940   -5.7970    3.3980 hx        1 PLD      0.100144
     75 H81        -3.8810   -2.5960    2.1250 hx        1 PLD      0.100144
     76 H82        -5.3280   -3.5780    2.6750 hx        1 PLD      0.100144
     77 H83        -4.2980   -2.7080    3.9220 hx        1 PLD      0.100144
     78 H1'1        2.8440   -1.0640   -1.9300 hc        1 PLD      0.109200
     79 H1'2        1.3670   -2.1220   -1.9960 hc        1 PLD      0.109200
     80 H2'1        2.3170   -0.1110   -4.1870 hc        1 PLD      0.048700
     81 H2'2        0.7750   -1.0470   -4.2470 hc        1 PLD      0.048700
     82 H3'1        2.0750   -3.2000   -4.1200 hc        1 PLD      0.043200
     83 H3'2        3.6200   -2.2690   -4.0420 hc        1 PLD      0.043200
     84 H4'1        1.5600   -2.1550   -6.3540 hc        1 PLD      0.039700
     85 H4'2        3.1050   -1.2240   -6.2760 hc        1 PLD      0.039700
     86 H5'1        2.8540   -4.3120   -6.2220 hc        1 PLD      0.039200
     87 H5'2        4.3990   -3.3810   -6.1420 hc        1 PLD      0.039200
     88 H6'1        2.3390   -3.2650   -8.4540 hc        1 PLD      0.039200
     89 H6'2        3.8820   -2.3330   -8.3740 hc        1 PLD      0.039200
     90 H7'1        5.1780   -4.4900   -8.2420 hc        1 PLD      0.038700
     91 H7'2        3.6340   -5.4220   -8.3230 hc        1 PLD      0.038700
     92 H8'1        3.1180   -4.3730  -10.5540 hc        1 PLD      0.039200
     93 H8'2        4.6610   -3.4400  -10.4730 hc        1 PLD      0.039200
     94 H9'1        5.9570   -5.5960  -10.3440 hc        1 PLD      0.038700
     95 H9'2        4.4140   -6.5290  -10.4250 hc        1 PLD      0.038700
     96 HT'1        5.4400   -4.5460  -12.5740 hc        1 PLD      0.039700
     97 HT'2        3.8970   -5.4790  -12.6560 hc        1 PLD      0.039700
     98 HE'1        5.1940   -7.6350  -12.5270 hc        1 PLD      0.039200
     99 HE'2        6.7370   -6.7010  -12.4460 hc        1 PLD      0.039200
    100 H1A1        1.4350   -1.8610    3.3620 hc        1 PLD      0.089200
    101 H1A2        2.9260   -0.9350    3.8180 hc        1 PLD      0.089200
    102 H2A1        0.3530   -1.0400    5.5510 hc        1 PLD      0.050700
    103 H2A2        1.9350   -0.3070    6.0120 hc        1 PLD      0.050700
    104 H3A1        3.0410   -2.5730    5.8000 hc        1 PLD      0.041700
    105 H3A2        1.4460   -3.3010    5.3690 hc        1 PLD      0.041700
    106 H4A1        2.1040   -1.8040    8.0030 hc        1 PLD      0.039200
    107 H4A2        0.5010   -2.5130    7.5760 hc        1 PLD      0.039200
    108 H5A1        3.1680   -4.0750    7.8040 hc        1 PLD      0.039200
    109 H5A2        1.5690   -4.7900    7.3670 hc        1 PLD      0.039200
    110 H6A1        0.6210   -4.0100    9.5690 hc        1 PLD      0.039200
    111 H6A2        2.2220   -3.3000   10.0050 hc        1 PLD      0.039200
    112 H7A1        1.6860   -6.2850    9.3650 hc        1 PLD      0.039700
    113 H7A2        3.2860   -5.5730    9.8050 hc        1 PLD      0.039700
    114 H8A1        0.7350   -5.5060   11.5650 hc        1 PLD      0.039700
    115 H8A2        2.3360   -4.7970   12.0040 hc        1 PLD      0.039700
    116 H9A1        3.4000   -7.0700   11.8050 hc        1 PLD      0.039700
    117 H9A2        1.8000   -7.7810   11.3640 hc        1 PLD      0.039700
    118 HTA1        2.4490   -6.2920   14.0030 hc        1 PLD      0.039700
    119 HTA2        0.8480   -7.0020   13.5620 hc        1 PLD      0.039700
    120 HEA1        1.9120   -9.2770   13.3630 hc        1 PLD      0.039700
    121 HEA2        3.5120   -8.5670   13.8040 hc        1 PLD      0.039700
    122 HA'1        4.6760   -6.5840  -14.7570 hc        1 PLD      0.039700
    123 HA'2        6.2190   -5.6500  -14.6760 hc        1 PLD      0.039700
    124 HB'1        7.5170   -7.8050  -14.5480 hc        1 PLD      0.039700
    125 HB'2        5.9750   -8.7390  -14.6300 hc        1 PLD      0.039700
    126 HC'1        6.9990   -6.7540  -16.7780 hc        1 PLD      0.039700
    127 HC'2        5.4560   -7.6880  -16.8600 hc        1 PLD      0.039700
    128 HD'1        8.2970   -8.9080  -16.6500 hc        1 PLD      0.039700
    129 HD'2        6.7550   -9.8430  -16.7320 hc        1 PLD      0.039700
    130 HF'1        7.7790   -7.8570  -18.8800 hc        1 PLD      0.039700
    131 HF'2        6.2370   -8.7920  -18.9620 hc        1 PLD      0.039700
    132 HG'1        9.0780  -10.0110  -18.7530 hc        1 PLD      0.039200
    133 HG'2        7.5360  -10.9460  -18.8350 hc        1 PLD      0.039200
    134 HH'1        8.5590   -8.9610  -20.9830 hc        1 PLD      0.039700
    135 HH'2        7.0170   -9.8950  -21.0640 hc        1 PLD      0.039700
    136 HI'1        9.8570  -11.1140  -20.8540 hc        1 PLD      0.038200
    137 HI'2        8.3150  -12.0480  -20.9360 hc        1 PLD      0.038200
    138 HJ'1        7.8130  -11.0280  -23.1820 hc        1 PLD      0.032367
    139 HJ'2        9.3600  -10.0910  -23.1000 hc        1 PLD      0.032367
    140 HJ'3        9.4010  -11.9000  -23.1770 hc        1 PLD      0.032367
    141 HAA1        0.9600   -8.4970   15.5610 hc        1 PLD      0.039700
    142 HAA2        2.5610   -7.7880   16.0020 hc        1 PLD      0.039700
    143 HBA1        3.6230  -10.0630   15.8040 hc        1 PLD      0.039200
    144 HBA2        2.0230  -10.7720   15.3620 hc        1 PLD      0.039200
    145 HCA1        1.0710   -9.9910   17.5600 hc        1 PLD      0.039200
    146 HCA2        2.6720   -9.2830   18.0020 hc        1 PLD      0.039200
    147 HDA1        2.1330  -12.2670   17.3620 hc        1 PLD      0.039200
    148 HDA2        3.7340  -11.5590   17.8030 hc        1 PLD      0.039200
    149 HFA1        1.1820  -11.4860   19.5600 hc        1 PLD      0.039200
    150 HFA2        2.7830  -10.7790   20.0010 hc        1 PLD      0.039200
    151 HGA1        3.8430  -13.0550   19.8020 hc        1 PLD      0.039200
    152 HGA2        2.2420  -13.7620   19.3610 hc        1 PLD      0.039200
    153 HHA1        2.8930  -12.2750   22.0010 hc        1 PLD      0.039700
    154 HHA2        1.2920  -12.9820   21.5600 hc        1 PLD      0.039700
    155 HIA1        2.3520  -15.2560   21.3600 hc        1 PLD      0.038200
    156 HIA2        3.9530  -14.5490   21.8000 hc        1 PLD      0.038200
    157 HJA1        3.0160  -13.8010   24.0150 hc        1 PLD      0.032700
    158 HJA2        2.8500  -15.5900   23.7810 hc        1 PLD      0.032700
    159 HJA3        1.4100  -14.5100   23.5730 hc        1 PLD      0.032700
    160 C'          0.9480   -0.0710   -1.7600 c         1 PLD      0.651100
@<TRIPOS>BOND
     1    1    2 1   
     2    1   38 1   
     3    1   60 1   
     4    1   61 1   
     5    2    3 1   
     6    2   34 1   
     7    2   62 1   
     8    3   35 1   
     9    3   63 1   
    10    3   64 1   
    11    4    5 1   
    12    4   39 1   
    13    4   65 1   
    14    4   66 1   
    15    5   40 1   
    16    5   67 1   
    17    5   68 1   
    18    6   40 1   
    19    6   69 1   
    20    6   70 1   
    21    6   71 1   
    22    7   40 1   
    23    7   72 1   
    24    7   73 1   
    25    7   74 1   
    26    8   40 1   
    27    8   75 1   
    28    8   76 1   
    29    8   77 1   
    30    9   10 1   
    31    9   78 1   
    32    9   79 1   
    33    9  160 1   
    34   10   11 1   
    35   10   80 1   
    36   10   81 1   
    37   11   12 1   
    38   11   82 1   
    39   11   83 1   
    40   12   13 1   
    41   12   84 1   
    42   12   85 1   
    43   13   14 1   
    44   13   86 1   
    45   13   87 1   
    46   14   15 1   
    47   14   88 1   
    48   14   89 1   
    49   15   16 1   
    50   15   90 1   
    51   15   91 1   
    52   16   17 1   
    53   16   92 1   
    54   16   93 1   
    55   17   18 1   
    56   17   94 1   
    57   17   95 1   
    58   18   19 1   
    59   18   96 1   
    60   18   97 1   
    61   19   42 1   
    62   19   98 1   
    63   19   99 1   
    64   20   21 1   
    65   20   33 2   
    66   20   35 1   
    67   21   22 1   
    68   21  100 1   
    69   21  101 1   
    70   22   23 1   
    71   22  102 1   
    72   22  103 1   
    73   23   24 1   
    74   23  104 1   
    75   23  105 1   
    76   24   25 1   
    77   24  106 1   
    78   24  107 1   
    79   25   26 1   
    80   25  108 1   
    81   25  109 1   
    82   26   27 1   
    83   26  110 1   
    84   26  111 1   
    85   27   28 1   
    86   27  112 1   
    87   27  113 1   
    88   28   29 1   
    89   28  114 1   
    90   28  115 1   
    91   29   30 1   
    92   29  116 1   
    93   29  117 1   
    94   30   31 1   
    95   30  118 1   
    96   30  119 1   
    97   31   51 1   
    98   31  120 1   
    99   31  121 1   
   100   32  160 2   
   101   34  160 1   
   102   36   41 1   
   103   37   41 1   
   104   38   41 1   
   105   39   41 1   
   106   42   43 1   
   107   42  122 1   
   108   42  123 1   
   109   43   44 1   
   110   43  124 1   
   111   43  125 1   
   112   44   45 1   
   113   44  126 1   
   114   44  127 1   
   115   45   46 1   
   116   45  128 1   
   117   45  129 1   
   118   46   47 1   
   119   46  130 1   
   120   46  131 1   
   121   47   48 1   
   122   47  132 1   
   123   47  133 1   
   124   48   49 1   
   125   48  134 1   
   126   48  135 1   
   127   49   50 1   
   128   49  136 1   
   129   49  137 1   
   130   50  138 1   
   131   50  139 1   
   132   50  140 1   
   133   51   52 1   
   134   51  141 1   
   135   51  142 1   
   136   52   53 1   
   137   52  143 1   
   138   52  144 1   
   139   53   54 1   
   140   53  145 1   
   141   53  146 1   
   142   54   55 1   
   143   54  147 1   
   144   54  148 1   
   145   55   56 1   
   146   55  149 1   
   147   55  150 1   
   148   56   57 1   
   149   56  151 1   
   150   56  152 1   
   151   57   58 1   
   152   57  153 1   
   153   57  154 1   
   154   58   59 1   
   155   58  155 1   
   156   58  156 1   
   157   59  157 1   
   158   59  158 1   
   159   59  159 1   
@<TRIPOS>SUBSTRUCTURE
     1 PLD         1 TEMP              0 ****  ****    0 ROOT
