@<TRIPOS>MOLECULE
PLD
  160   157     1     0     0
SMALL
bcc


@<TRIPOS>ATOM
      1 C1         -6.5730    1.1820   -0.8540 c3        1 PLD      0.028000
      2 C2         -5.1160    1.4080   -0.5520 c3        1 PLD      0.006000
      3 C3         -4.9400    1.6680    0.9570 c3        1 PLD     -0.022000
      4 C4         -9.9290    2.5220   -4.6130 c3        1 PLD      0.046000
      5 C5        -10.1930    3.8090   -5.3940 c3        1 PLD     -0.157000
      6 C6        -12.3540    3.1590   -6.0350 c3        1 PLD     -0.200667
      7 C7        -11.1990    4.7020   -7.3450 c3        1 PLD     -0.200667
      8 C8        -10.5340    2.4470   -7.3020 c3        1 PLD     -0.200667
      9 C'         -3.4630    0.5180   -2.0330 c1        1 PLD      0.344000
     10 C1'        -3.0880   -0.6530   -3.0060 c2        1 PLD     -0.156500
     11 C2'        -1.5360   -0.6570   -3.2440 c3        1 PLD     -0.156000
     12 C3'        -1.2450   -0.8090   -4.7500 c3        1 PLD     -0.161500
     13 C4'         0.2220   -1.2280   -4.9470 c3        1 PLD     -0.157500
     14 C5'         0.8110   -0.4800   -6.1310 c3        1 PLD     -0.156500
     15 C6'         1.8920   -1.3450   -6.7950 c3        1 PLD     -0.157500
     16 C7'         2.7760   -0.4560   -7.7080 c3        1 PLD     -0.157500
     17 C8'         3.3090   -1.3010   -8.8970 c3        1 PLD     -0.158000
     18 C9'         4.4580   -0.5220   -9.6150 c3        1 PLD     -0.157000
     19 CA'         4.6080   -1.0480  -11.0830 c3        1 PLD     -0.158000
     20 CB'         6.0650   -0.8950  -11.5370 c3        1 PLD     -0.157000
     21 CB         -3.2980    2.4720    2.5460 c1        1 PLD      0.302000
     22 C1B        -2.3300    3.5900    3.0130 c2        1 PLD     -0.156500
     23 C2B        -1.2810    2.9980    3.9510 c3        1 PLD     -0.156000
     24 C3B        -0.9520    4.0300    5.0900 c3        1 PLD     -0.161500
     25 C4B         0.2960    3.5490    5.8830 c3        1 PLD     -0.157500
     26 C5B         0.2220    4.0880    7.3440 c3        1 PLD     -0.156500
     27 C6B         1.2710    3.3830    8.2040 c3        1 PLD     -0.157500
     28 C7B         0.6300    2.9700    9.5710 c3        1 PLD     -0.157500
     29 C8B         1.7240    2.3990   10.5020 c3        1 PLD     -0.158000
     30 C9B         1.1820    1.1780   11.2400 c3        1 PLD     -0.157000
     31 CAA         1.4540    1.3270   12.7710 c3        1 PLD     -0.158000
     32 CBA         1.2220   -0.0230   13.4610 c3        1 PLD     -0.157000
     33 O'         -2.9620    1.6190   -2.1840 o         1 PLD     -0.415000
     34 OB         -3.6900    1.6210    3.3460 o         1 PLD     -0.351000
     35 O2         -4.3800    0.2800   -0.9250 os        1 PLD     -0.262000
     36 O3         -3.6750    2.3890    1.1860 os        1 PLD     -0.285000
     37 O1P        -9.1500    3.0050   -1.4670 o         1 PLD     -0.812000
     38 O2P        -9.1380    0.6990   -2.3120 o         1 PLD     -0.812000
     39 O3P        -6.9340    1.9180   -2.0430 os        1 PLD     -0.742000
     40 O4P        -8.6300    2.6080   -3.9610 os        1 PLD     -0.739000
     41 N         -11.0790    3.5250   -6.5190 n4        1 PLD      0.055000
     42 P          -8.4830    2.0470   -2.4180 p5        1 PLD      1.907000
     43 CC'         6.1840   -1.3130  -13.0060 c3        1 PLD     -0.158000
     44 CD'         7.5820   -1.9400  -13.2550 c3        1 PLD     -0.157500
     45 CE'         7.8620   -1.9930  -14.7660 c3        1 PLD     -0.158000
     46 CF'         8.7980   -3.1640  -15.0690 c3        1 PLD     -0.157500
     47 CG'         9.7240   -2.7860  -16.2010 c3        1 PLD     -0.158000
     48 CH'        10.6770   -3.9490  -16.4950 c3        1 PLD     -0.158000
     49 CI'        11.9350   -3.4130  -17.1950 c3        1 PLD     -0.158000
     50 CJ'        12.9360   -4.5600  -17.3990 c3        1 PLD     -0.159000
     51 CK'        14.3250   -3.9770  -17.7660 c3        1 PLD     -0.210000
     52 CCA         0.5830    0.2020   14.8350 c3        1 PLD     -0.158000
     53 CDA         0.6620   -1.1090   15.6650 c3        1 PLD     -0.157500
     54 CEA        -0.5220   -1.1610   16.6590 c3        1 PLD     -0.158000
     55 CFA        -0.1640   -2.1110   17.8550 c3        1 PLD     -0.157500
     56 CGA        -1.4750   -2.4700   18.6530 c3        1 PLD     -0.158000
     57 CHA        -1.0970   -3.0020   20.0430 c3        1 PLD     -0.158000
     58 CIA        -2.3330   -3.5750   20.7200 c3        1 PLD     -0.158000
     59 CJA        -2.0610   -3.7470   22.2290 c3        1 PLD     -0.159000
     60 CKA        -3.2060   -4.5330   22.8640 c3        1 PLD     -0.210000
     61 H11        -6.7360    0.2110   -1.0020 h1        1 PLD      0.099500
     62 H12        -7.1160    1.4950   -0.0970 h1        1 PLD      0.099500
     63 H2         -4.7960    2.1840   -1.0540 h1        1 PLD      0.135000
     64 H31        -5.7000    2.2170    1.2880 h1        1 PLD      0.109000
     65 H32        -4.9220    0.8040    1.4430 h1        1 PLD      0.109000
     66 H41        -9.9360    1.7610   -5.2280 h1        1 PLD      0.093500
     67 H42       -10.6200    2.4030   -3.9420 h1        1 PLD      0.093500
     68 H51        -9.3470    4.1650   -5.7290 hx        1 PLD      0.130500
     69 H52       -10.6140    4.4680   -4.8040 hx        1 PLD      0.130500
     70 H61       -12.9370    2.9380   -6.7880 hx        1 PLD      0.140333
     71 H62       -12.2700    2.3780   -5.4460 hx        1 PLD      0.140333
     72 H63       -12.7410    3.9110   -5.5300 hx        1 PLD      0.140333
     73 H71       -11.7010    4.4830   -8.1540 hx        1 PLD      0.140333
     74 H72       -11.6720    5.4060   -6.8470 hx        1 PLD      0.140333
     75 H73       -10.2970    5.0220   -7.5940 hx        1 PLD      0.140333
     76 H81       -10.7660    1.5910   -6.8860 hx        1 PLD      0.140333
     77 H82        -9.5590    2.5360   -7.3450 hx        1 PLD      0.140333
     78 H83       -10.9100    2.4830   -8.2180 hx        1 PLD      0.140333
     79 H1'1       -3.3620   -1.5120   -2.6080 ha        1 PLD      0.116750
     80 H1'2       -3.5510   -0.5270   -3.8660 ha        1 PLD      0.116750
     81 H2'1       -1.1590    0.1740   -2.9250 hc        1 PLD      0.095500
     82 H2'2       -1.1350   -1.4020   -2.7590 hc        1 PLD      0.095500
     83 H3'1       -1.8320   -1.4910   -5.1260 hc        1 PLD      0.082500
     84 H3'2       -1.4050    0.0420   -5.2010 hc        1 PLD      0.082500
     85 H4'1        0.7340   -1.0150   -4.1390 hc        1 PLD      0.081750
     86 H4'2        0.2650   -2.1990   -5.1180 hc        1 PLD      0.081750
     87 H5'1        1.2080    0.3530   -5.8240 hc        1 PLD      0.077500
     88 H5'2        0.1040   -0.2860   -6.7780 hc        1 PLD      0.077500
     89 H6'1        2.4500   -1.7600   -6.1010 hc        1 PLD      0.079750
     90 H6'2        1.4660   -2.0460   -7.3340 hc        1 PLD      0.079750
     91 H7'1        3.5350   -0.1040   -7.1890 hc        1 PLD      0.078250
     92 H7'2        2.2390    0.2950   -8.0540 hc        1 PLD      0.078250
     93 H8'1        3.6500   -2.1490   -8.5640 hc        1 PLD      0.079500
     94 H8'2        2.5830   -1.4680   -9.5300 hc        1 PLD      0.079500
     95 H9'1        5.3030   -0.6600   -9.1260 hc        1 PLD      0.078250
     96 H9'2        4.2410    0.4420   -9.6320 hc        1 PLD      0.078250
     97 HT'1        4.0200   -0.5250  -11.6820 hc        1 PLD      0.079500
     98 HT'2        4.3530   -1.9940  -11.1190 hc        1 PLD      0.079500
     99 HE'1        6.6350   -1.4630  -10.9910 hc        1 PLD      0.078500
    100 HE'2        6.3420    0.0370  -11.4390 hc        1 PLD      0.078500
    101 H1A1       -1.8900    3.9790    2.2420 ha        1 PLD      0.116750
    102 H1A2       -2.8280    4.2730    3.4790 ha        1 PLD      0.116750
    103 H2A1       -0.4620    2.7990    3.4430 hc        1 PLD      0.095500
    104 H2A2       -1.6260    2.1740    4.3460 hc        1 PLD      0.095500
    105 H3A1       -1.7190    4.1010    5.6990 hc        1 PLD      0.082500
    106 H3A2       -0.7680    4.9120    4.6910 hc        1 PLD      0.082500
    107 H4A1        1.1100    3.8880    5.4490 hc        1 PLD      0.081750
    108 H4A2        0.3160    2.5720    5.8960 hc        1 PLD      0.081750
    109 H5A1        0.3950    5.0560    7.3450 hc        1 PLD      0.077500
    110 H5A2       -0.6630    3.9170    7.7090 hc        1 PLD      0.077500
    111 H6A1        2.0150    3.9840    8.3650 hc        1 PLD      0.079750
    112 H6A2        1.5890    2.5900    7.7420 hc        1 PLD      0.079750
    113 H7A1       -0.0600    2.2860    9.4160 hc        1 PLD      0.078250
    114 H7A2        0.2180    3.7650    9.9940 hc        1 PLD      0.078250
    115 H8A1        1.9860    3.0760   11.1470 hc        1 PLD      0.079500
    116 H8A2        2.4980    2.1390    9.9720 hc        1 PLD      0.079500
    117 H9A1        1.6320    0.3630   10.9030 hc        1 PLD      0.078250
    118 H9A2        0.2180    1.1050   11.0860 hc        1 PLD      0.078250
    119 HTA1        0.8470    1.9950   13.1470 hc        1 PLD      0.079500
    120 HTA2        2.3880    1.6140   12.9140 hc        1 PLD      0.079500
    121 HEA1        0.6290   -0.5660   12.9140 hc        1 PLD      0.078500
    122 HEA2        2.0810   -0.4860   13.5710 hc        1 PLD      0.078500
    123 HA'1        5.4940   -1.9680  -13.2120 hc        1 PLD      0.079000
    124 HA'2        6.0710   -0.5250  -13.5810 hc        1 PLD      0.079000
    125 HB'1        8.2750   -1.3900  -12.8110 hc        1 PLD      0.078750
    126 HB'2        7.6020   -2.8510  -12.8880 hc        1 PLD      0.078750
    127 HC'1        8.2850   -1.1530  -15.0520 hc        1 PLD      0.079000
    128 HC'2        7.0260   -2.1140  -15.2470 hc        1 PLD      0.079000
    129 HD'1        9.3230   -3.3740  -14.2760 hc        1 PLD      0.078750
    130 HD'2        8.2740   -3.9400  -15.3240 hc        1 PLD      0.078750
    131 HF'1        9.1990   -2.5870  -16.9990 hc        1 PLD      0.079000
    132 HF'2       10.2440   -1.9950  -15.9470 hc        1 PLD      0.079000
    133 HG'1       10.2310   -4.5980  -17.0760 hc        1 PLD      0.078500
    134 HG'2       10.9310   -4.3840  -15.6540 hc        1 PLD      0.078500
    135 HH'1       11.6880   -3.0380  -18.0640 hc        1 PLD      0.079000
    136 HH'2       12.3430   -2.7180  -16.6450 hc        1 PLD      0.079000
    137 HI'1       13.0090   -5.0810  -16.5720 hc        1 PLD      0.077750
    138 HI'2       12.6220   -5.1430  -18.1270 hc        1 PLD      0.077750
    139 HJ'1       14.2790   -3.5540  -18.6550 hc        1 PLD      0.072000
    140 HJ'2       14.5870   -3.3050  -17.0950 hc        1 PLD      0.072000
    141 HJ'3       14.9930   -4.7040  -17.7820 hc        1 PLD      0.072000
    142 HAA1        1.0670    0.9250   15.3110 hc        1 PLD      0.079000
    143 HAA2       -0.3530    0.4580   14.7200 hc        1 PLD      0.079000
    144 HBA1        1.5100   -1.1300   16.1640 hc        1 PLD      0.078750
    145 HBA2        0.6180   -1.8750   15.0670 hc        1 PLD      0.078750
    146 HCA1       -1.3110   -1.4960   16.2050 hc        1 PLD      0.079000
    147 HCA2       -0.7010   -0.2590   17.0000 hc        1 PLD      0.079000
    148 HDA1        0.4720   -1.6570   18.4560 hc        1 PLD      0.078750
    149 HDA2        0.2440   -2.9350   17.5080 hc        1 PLD      0.078750
    150 HFA1       -1.9780   -3.1610   18.1640 hc        1 PLD      0.079000
    151 HFA2       -2.0290   -1.6690   18.7480 hc        1 PLD      0.079000
    152 HGA1       -0.4300   -3.6930   19.9520 hc        1 PLD      0.078500
    153 HGA2       -0.7420   -2.2810   20.5780 hc        1 PLD      0.078500
    154 HHA1       -2.5470   -4.4480   20.3240 hc        1 PLD      0.079000
    155 HHA2       -3.0860   -2.9670   20.5910 hc        1 PLD      0.079000
    156 HIA1       -1.9950   -2.8710   22.6490 hc        1 PLD      0.077750
    157 HIA2       -1.2150   -4.2370   22.3570 hc        1 PLD      0.077750
    158 HJA1       -3.2400   -5.4330   22.4750 hc        1 PLD      0.072000
    159 HJA2       -4.0480   -4.0750   22.6950 hc        1 PLD      0.072000
    160 HJA3       -3.0580   -4.6010   23.8420 hc        1 PLD      0.072000
@<TRIPOS>BOND
     1    1    2 1   
     2    1   39 1   
     3    1   61 1   
     4    1   62 1   
     5    2    3 1   
     6    2   35 1   
     7    2   63 1   
     8    3   36 1   
     9    3   64 1   
    10    3   65 1   
    11    4    5 1   
    12    4   40 1   
    13    4   66 1   
    14    4   67 1   
    15    5   41 1   
    16    5   68 1   
    17    5   69 1   
    18    6   41 1   
    19    6   70 1   
    20    6   71 1   
    21    6   72 1   
    22    7   41 1   
    23    7   73 1   
    24    7   74 1   
    25    7   75 1   
    26    8   41 1   
    27    8   76 1   
    28    8   77 1   
    29    8   78 1   
    30    9   33 1   
    31    9   35 1   
    32   10   11 1   
    33   10   79 1   
    34   10   80 1   
    35   11   12 1   
    36   11   81 1   
    37   11   82 1   
    38   12   13 1   
    39   12   83 1   
    40   12   84 1   
    41   13   14 1   
    42   13   85 1   
    43   13   86 1   
    44   14   15 1   
    45   14   87 1   
    46   14   88 1   
    47   15   16 1   
    48   15   89 1   
    49   15   90 1   
    50   16   17 1   
    51   16   91 1   
    52   16   92 1   
    53   17   18 1   
    54   17   93 1   
    55   17   94 1   
    56   18   19 1   
    57   18   95 1   
    58   18   96 1   
    59   19   20 1   
    60   19   97 1   
    61   19   98 1   
    62   20   43 1   
    63   20   99 1   
    64   20  100 1   
    65   21   34 1   
    66   21   36 1   
    67   22   23 1   
    68   22  101 1   
    69   22  102 1   
    70   23   24 1   
    71   23  103 1   
    72   23  104 1   
    73   24   25 1   
    74   24  105 1   
    75   24  106 1   
    76   25   26 1   
    77   25  107 1   
    78   25  108 1   
    79   26   27 1   
    80   26  109 1   
    81   26  110 1   
    82   27   28 1   
    83   27  111 1   
    84   27  112 1   
    85   28   29 1   
    86   28  113 1   
    87   28  114 1   
    88   29   30 1   
    89   29  115 1   
    90   29  116 1   
    91   30   31 1   
    92   30  117 1   
    93   30  118 1   
    94   31   32 1   
    95   31  119 1   
    96   31  120 1   
    97   32   52 1   
    98   32  121 1   
    99   32  122 1   
   100   37   42 1   
   101   38   42 1   
   102   39   42 1   
   103   40   42 1   
   104   43   44 1   
   105   43  123 1   
   106   43  124 1   
   107   44   45 1   
   108   44  125 1   
   109   44  126 1   
   110   45   46 1   
   111   45  127 1   
   112   45  128 1   
   113   46   47 1   
   114   46  129 1   
   115   46  130 1   
   116   47   48 1   
   117   47  131 1   
   118   47  132 1   
   119   48   49 1   
   120   48  133 1   
   121   48  134 1   
   122   49   50 1   
   123   49  135 1   
   124   49  136 1   
   125   50   51 1   
   126   50  137 1   
   127   50  138 1   
   128   51  139 1   
   129   51  140 1   
   130   51  141 1   
   131   52   53 1   
   132   52  142 1   
   133   52  143 1   
   134   53   54 1   
   135   53  144 1   
   136   53  145 1   
   137   54   55 1   
   138   54  146 1   
   139   54  147 1   
   140   55   56 1   
   141   55  148 1   
   142   55  149 1   
   143   56   57 1   
   144   56  150 1   
   145   56  151 1   
   146   57   58 1   
   147   57  152 1   
   148   57  153 1   
   149   58   59 1   
   150   58  154 1   
   151   58  155 1   
   152   59   60 1   
   153   59  156 1   
   154   59  157 1   
   155   60  158 1   
   156   60  159 1   
   157   60  160 1   
@<TRIPOS>SUBSTRUCTURE
     1 PLD         1 TEMP              0 ****  ****    0 ROOT
