@<TRIPOS>MOLECULE
PLE
   22    21     1     0     0
SMALL
bcc


@<TRIPOS>ATOM
      1 C1          3.5140    0.7030   -0.8370 c3        1 PLE     -0.075100
      2 C2          2.5700   -0.1410   -0.0040 c3        1 PLE     -0.069700
      3 C3          2.9560   -0.0610    1.4570 c3        1 PLE     -0.075100
      4 C4          1.1260    0.2970   -0.2180 c3        1 PLE     -0.053400
      5 C5          0.0740   -0.6490    0.2840 c3        1 PLE     -0.063700
      6 N1          0.0100   -1.9510   -0.3600 n3        1 PLE     -0.901800
      7 P1         -1.4880    0.2110   -0.1310 p5        1 PLE      1.194700
      8 O1         -1.3990    1.5400    0.5820 o         1 PLE     -0.950500
      9 O2         -1.4230    0.2750   -1.6430 o         1 PLE     -0.950500
     10 H1          4.5770    0.3950   -0.6760 hc        1 PLE      0.008367
     11 H2          3.2730    0.5940   -1.9210 hc        1 PLE      0.008367
     12 H3          3.4150    1.7810   -0.5630 hc        1 PLE      0.008367
     13 H4          2.6650   -1.2130   -0.3370 hc        1 PLE      0.042700
     14 H5          2.2510   -0.6790    2.0640 hc        1 PLE      0.008367
     15 H6          3.9970   -0.4360    1.6180 hc        1 PLE      0.008367
     16 H7          2.9020    0.9930    1.8200 hc        1 PLE      0.008367
     17 H8          0.9380    1.2780    0.2990 hc        1 PLE      0.061200
     18 H9          0.9410    0.4640   -1.3160 hc        1 PLE      0.061200
     19 H10         0.1590   -0.7970    1.3860 h1        1 PLE      0.026700
     20 H11        -0.8710   -2.3430   -0.0500 hn        1 PLE      0.327300
     21 H12        -0.1190   -1.7600   -1.3440 hn        1 PLE      0.327300
     22 O3         -2.5280   -0.7500    0.4000 o         1 PLE     -0.950500
@<TRIPOS>BOND
     1    1    2 1   
     2    1   10 1   
     3    1   11 1   
     4    1   12 1   
     5    2    3 1   
     6    2    4 1   
     7    2   13 1   
     8    3   14 1   
     9    3   15 1   
    10    3   16 1   
    11    4    5 1   
    12    4   17 1   
    13    4   18 1   
    14    5    6 1   
    15    5    7 1   
    16    5   19 1   
    17    6   20 1   
    18    6   21 1   
    19    7    8 1   
    20    7    9 1   
    21    7   22 1   
@<TRIPOS>SUBSTRUCTURE
     1 PLE         1 TEMP              0 ****  ****    0 ROOT
