@<TRIPOS>MOLECULE
PLF
   28    29     1     0     0
SMALL
bcc


@<TRIPOS>ATOM
      1 O          -2.4270   -1.8870   -0.0720 o         1 PLF     -0.817300
      2 C1         -3.1330   -0.8650    0.1310 c         1 PLF      0.921600
      3 CA1        -2.5880    0.5510   -0.2970 c3        1 PLF     -0.089000
      4 CB1        -2.8640    0.7150   -1.7870 c3        1 PLF     -0.092100
      5 N2         -1.1850    0.7820    0.0440 na        1 PLF      0.095400
      6 C2         -0.1850   -0.1880    0.1110 cc        1 PLF     -0.146600
      7 N3         -0.6490    2.0040    0.2790 nc        1 PLF     -0.224800
      8 N1          0.6000    1.9020    0.5110 nd        1 PLF     -0.396000
      9 C           0.9840    0.5450    0.4230 cd        1 PLF      0.178600
     10 CA          2.3680    0.0690    0.6740 c3        1 PLF      0.177200
     11 CB          3.4050    0.8320   -0.1880 c3        1 PLF     -0.083400
     12 CG          4.3920   -0.2170   -0.6800 c3        1 PLF     -0.098400
     13 CD          3.7410   -1.5760   -0.3740 c3        1 PLF      0.159800
     14 N           2.5270   -1.3700    0.4020 n3        1 PLF     -0.805200
     15 OXT        -4.2930   -0.8570    0.6170 o         1 PLF     -0.817300
     16 HA1        -3.1960    1.3160    0.2700 h1        1 PLF      0.071700
     17 HB11       -2.3040   -0.0500   -2.3780 hc        1 PLF      0.034367
     18 HB12       -3.9580    0.5590   -1.9500 hc        1 PLF      0.034367
     19 HB13       -2.5830    1.7320   -2.1500 hc        1 PLF      0.034367
     20 H2         -0.3920   -1.2540   -0.0390 h4        1 PLF      0.244000
     21 HA          2.6000    0.2810    1.7650 h1        1 PLF      0.024700
     22 HB1C        2.8990    1.3340   -1.0490 hc        1 PLF      0.054200
     23 HB2C        3.9060    1.6190    0.4230 hc        1 PLF      0.054200
     24 H           2.5450   -1.8860    1.2590 hn        1 PLF      0.356800
     25 HG1C        4.5840   -0.1110   -1.7740 hc        1 PLF      0.034200
     26 HG2C        5.3720   -0.1260   -0.1510 hc        1 PLF      0.034200
     27 HD1C        3.4410   -2.0840   -1.3310 h1        1 PLF      0.030200
     28 HD2C        4.4720   -2.2490    0.1520 h1        1 PLF      0.030200
@<TRIPOS>BOND
     1    1    2 1   
     2    2    3 1   
     3    2   15 1   
     4    3    4 1   
     5    3    5 1   
     6    3   16 1   
     7    4   17 1   
     8    4   18 1   
     9    4   19 1   
    10    5    6 1   
    11    5    7 1   
    12    6    9 2   
    13    6   20 1   
    14    7    8 2   
    15    8    9 1   
    16    9   10 1   
    17   10   11 1   
    18   10   14 1   
    19   10   21 1   
    20   11   12 1   
    21   11   22 1   
    22   11   23 1   
    23   12   13 1   
    24   12   25 1   
    25   12   26 1   
    26   13   14 1   
    27   13   27 1   
    28   13   28 1   
    29   14   24 1   
@<TRIPOS>SUBSTRUCTURE
     1 PLF         1 TEMP              0 ****  ****    0 ROOT
