@<TRIPOS>MOLECULE
PLG
   33    33     1     0     0
SMALL
bcc


@<TRIPOS>ATOM
      1 N1         -0.0160    0.0350    0.0740 nb        1 PLG     -0.673000
      2 C2          1.3230   -0.1350    0.1550 ca        1 PLG      0.327600
      3 C2A         2.1600   -0.1260   -1.0800 c3        1 PLG     -0.118400
      4 C3          1.9790   -0.3380    1.4050 ca        1 PLG      0.033800
      5 O3          3.3330   -0.5140    1.3310 oh        1 PLG     -0.533100
      6 C4          1.2250   -0.3610    2.5970 ca        1 PLG     -0.132300
      7 C4A         1.9160   -0.5560    3.9150 c3        1 PLG      0.187100
      8 C5         -0.1620   -0.1790    2.4980 ca        1 PLG     -0.136600
      9 C6         -0.7220    0.0140    1.2150 ca        1 PLG      0.362200
     10 C5A        -1.0510   -0.1980    3.7050 c3        1 PLG      0.217700
     11 OP4        -2.3970   -0.0930    3.3550 os        1 PLG     -0.577200
     12 P          -3.3650    0.8200    4.3350 p5        1 PLG      1.429800
     13 OP1        -4.6730    0.9540    3.6710 o         1 PLG     -0.838500
     14 OP2        -3.4580   -0.2160    5.5990 oh        1 PLG     -0.785400
     15 OP3        -2.5440    1.9130    4.9040 o         1 PLG     -0.838500
     16 C           4.8540   -1.4540    4.7710 c         1 PLG      0.886600
     17 O           5.7840   -1.6620    5.5990 o         1 PLG     -0.856300
     18 OXT         5.0260   -0.8430    3.6720 o         1 PLG     -0.856300
     19 CA          3.4480   -1.9790    5.1380 c3        1 PLG      0.025800
     20 N           2.4180   -1.9110    4.1180 n3        1 PLG     -0.799200
     21 H2A1        2.6050   -1.1410   -1.2280 hc        1 PLG      0.034033
     22 H2A2        1.5760    0.1510   -1.9890 hc        1 PLG      0.034033
     23 H2A3        2.9990    0.6020   -0.9470 hc        1 PLG      0.034033
     24 HO3         3.7300   -0.5090    2.2280 ho        1 PLG      0.486000
     25 H4A1        2.7470    0.2130    3.9850 h1        1 PLG      0.049700
     26 H4A2        1.2020   -0.3460    4.7610 h1        1 PLG      0.049700
     27 H6         -1.8150    0.1510    1.1170 h4        1 PLG      0.043100
     28 H5A1       -0.8860   -1.1830    4.2360 h1        1 PLG      0.049200
     29 H5A2       -0.7710    0.6530    4.3950 h1        1 PLG      0.049200
     30 HA2         3.5510   -3.0640    5.4180 h1        1 PLG      0.037700
     31 HA1         3.1020   -1.4190    6.0480 h1        1 PLG      0.037700
     32 H          -2.8310    0.0060    6.2780 ho        1 PLG      0.421000
     33 H2          2.8070   -2.2470    3.2510 hn        1 PLG      0.347800
@<TRIPOS>BOND
     1    1    2 ar  
     2    1    9 ar  
     3    2    3 1   
     4    2    4 ar  
     5    3   21 1   
     6    3   22 1   
     7    3   23 1   
     8    4    5 1   
     9    4    6 ar  
    10    5   24 1   
    11    6    7 1   
    12    6    8 ar  
    13    7   20 1   
    14    7   25 1   
    15    7   26 1   
    16    8    9 ar  
    17    8   10 1   
    18    9   27 1   
    19   10   11 1   
    20   10   28 1   
    21   10   29 1   
    22   11   12 1   
    23   12   13 1   
    24   12   14 1   
    25   12   15 1   
    26   14   32 1   
    27   16   17 1   
    28   16   18 1   
    29   16   19 1   
    30   19   20 1   
    31   19   30 1   
    32   19   31 1   
    33   20   33 1   
@<TRIPOS>SUBSTRUCTURE
     1 PLG         1 TEMP              0 ****  ****    0 ROOT
