@<TRIPOS>MOLECULE
PLG
   33    33     1     0     0
SMALL
bcc


@<TRIPOS>ATOM
      1 N1         -0.0320    0.0170    0.0770 nb        1 PLG     -0.673000
      2 C2          1.3070   -0.1610    0.1510 ca        1 PLG      0.327600
      3 C2A         2.1360   -0.1670   -1.0900 c3        1 PLG     -0.118400
      4 C3          1.9690   -0.3580    1.3970 ca        1 PLG      0.033800
      5 O3          3.3210   -0.5430    1.3160 oh        1 PLG     -0.533100
      6 C4          1.2230   -0.3660    2.5950 ca        1 PLG     -0.132300
      7 C4A         1.9210   -0.5540    3.9100 c3        1 PLG      0.187100
      8 C5         -0.1640   -0.1760    2.5030 ca        1 PLG     -0.136600
      9 C6         -0.7300    0.0100    1.2220 ca        1 PLG      0.362200
     10 C5A        -1.0440   -0.1800    3.7160 c3        1 PLG      0.217700
     11 OP4        -2.3930   -0.0690    3.3740 os        1 PLG     -0.577200
     12 P          -3.3480    0.8590    4.3520 p5        1 PLG      1.429800
     13 OP1        -4.6600    0.9950    3.6940 o         1 PLG     -0.838500
     14 OP2        -3.4390   -0.1660    5.6260 oh        1 PLG     -0.785400
     15 OP3        -2.5170    1.9510    4.9060 o         1 PLG     -0.838500
     16 C           4.8590   -1.4630    4.7550 c         1 PLG      0.886600
     17 O           5.7930   -1.6710    5.5790 o         1 PLG     -0.856300
     18 OXT         5.0280   -0.8630    3.6490 o         1 PLG     -0.856300
     19 CA          3.4520   -1.9760    5.1350 c3        1 PLG      0.025800
     20 N           2.4160   -1.9100    4.1210 n3        1 PLG     -0.799200
     21 H2A1        2.9790    0.5580   -0.9680 hc        1 PLG      0.034033
     22 H2A2        1.5480    0.1050   -1.9980 hc        1 PLG      0.034033
     23 H2A3        2.5750   -1.1860   -1.2310 hc        1 PLG      0.034033
     24 HO3         3.7250   -0.5320    2.2110 ho        1 PLG      0.486000
     25 H4A1        1.2140   -0.3320    4.7590 h1        1 PLG      0.049700
     26 H4A2        2.7570    0.2100    3.9680 h1        1 PLG      0.049700
     27 H6         -1.8240    0.1520    1.1300 h4        1 PLG      0.043100
     28 H5A1       -0.7550    0.6750    4.3970 h1        1 PLG      0.049200
     29 H5A2       -0.8820   -1.1610    4.2540 h1        1 PLG      0.049200
     30 HA2         3.1160   -1.4070    6.0430 h1        1 PLG      0.037700
     31 HA1         3.5500   -3.0590    5.4240 h1        1 PLG      0.037700
     32 H          -2.8070    0.0590    6.2990 ho        1 PLG      0.421000
     33 H2          2.7970   -2.2560    3.2550 hn        1 PLG      0.347800
@<TRIPOS>BOND
     1    1    2 ar  
     2    1    9 ar  
     3    2    3 1   
     4    2    4 ar  
     5    3   21 1   
     6    3   22 1   
     7    3   23 1   
     8    4    5 1   
     9    4    6 ar  
    10    5   24 1   
    11    6    7 1   
    12    6    8 ar  
    13    7   20 1   
    14    7   25 1   
    15    7   26 1   
    16    8    9 ar  
    17    8   10 1   
    18    9   27 1   
    19   10   11 1   
    20   10   28 1   
    21   10   29 1   
    22   11   12 1   
    23   12   13 1   
    24   12   14 1   
    25   12   15 1   
    26   14   32 1   
    27   16   17 1   
    28   16   18 1   
    29   16   19 1   
    30   19   20 1   
    31   19   30 1   
    32   19   31 1   
    33   20   33 1   
@<TRIPOS>SUBSTRUCTURE
     1 PLG         1 TEMP              0 ****  ****    0 ROOT
