@<TRIPOS>MOLECULE
PLG
   33    33     1     0     0
SMALL
bcc


@<TRIPOS>ATOM
      1 N1          0.0110    0.0310    0.0210 nb        1 PLG     -0.675000
      2 C2          1.3340   -0.2310    0.1160 ca        1 PLG      0.328600
      3 C2A         2.1660   -0.3610   -1.1170 c3        1 PLG     -0.118400
      4 C3          1.9770   -0.4030    1.3760 ca        1 PLG      0.032800
      5 O3          3.3140   -0.6800    1.3180 oh        1 PLG     -0.535100
      6 C4          1.2260   -0.3020    2.5670 ca        1 PLG     -0.129300
      7 C4A         1.9040   -0.4660    3.8960 c3        1 PLG      0.185100
      8 C5         -0.1440   -0.0240    2.4540 ca        1 PLG     -0.133600
      9 C6         -0.6910    0.1330    1.1590 ca        1 PLG      0.364200
     10 C5A        -1.0300    0.1140    3.6500 c3        1 PLG      0.210700
     11 OP4        -2.3590    0.3390    3.2740 os        1 PLG     -0.573200
     12 P          -3.3530    0.7430    4.5280 p5        1 PLG      1.428800
     13 OP1        -4.6950    0.9910    3.9720 o         1 PLG     -0.841000
     14 OP2        -3.3170   -0.6770    5.3420 oh        1 PLG     -0.786400
     15 OP3        -2.5940    1.6350    5.4340 o         1 PLG     -0.841000
     16 C           4.8170   -1.3910    4.7870 c         1 PLG      0.886600
     17 O           5.7490   -1.6080    5.6120 o         1 PLG     -0.856800
     18 OXT         4.9960   -0.8000    3.6780 o         1 PLG     -0.856800
     19 CA          3.4020   -1.8750    5.1740 c3        1 PLG      0.026800
     20 N           2.3700   -1.8230    4.1560 n7        1 PLG     -0.799200
     21 H2A1        2.4900   -1.4250   -1.2300 hc        1 PLG      0.034367
     22 H2A2        1.6150   -0.0500   -2.0370 hc        1 PLG      0.034367
     23 H2A3        3.0830    0.2690   -1.0070 hc        1 PLG      0.034367
     24 HO3         3.7240   -0.5840    2.2050 ho        1 PLG      0.487000
     25 H4A1        2.7550    0.2830    3.9390 h1        1 PLG      0.051700
     26 H4A2        1.1910   -0.2050    4.7290 h1        1 PLG      0.051700
     27 H6         -1.7720    0.3480    1.0550 h4        1 PLG      0.045100
     28 H5A1       -0.9910   -0.8320    4.2630 h1        1 PLG      0.048200
     29 H5A2       -0.6850    0.9780    4.2910 h1        1 PLG      0.048200
     30 HA2         3.4850   -2.9510    5.4940 h1        1 PLG      0.038700
     31 HA1         3.0700   -1.2760    6.0650 h1        1 PLG      0.038700
     32 H          -2.6970   -0.6520    6.0620 ho        1 PLG      0.423000
     33 H2          2.7430   -2.2110    3.3040 hn        1 PLG      0.347800
@<TRIPOS>BOND
     1    1    2 ar  
     2    1    9 ar  
     3    2    3 1   
     4    2    4 ar  
     5    3   21 1   
     6    3   22 1   
     7    3   23 1   
     8    4    5 1   
     9    4    6 ar  
    10    5   24 1   
    11    6    7 1   
    12    6    8 ar  
    13    7   20 1   
    14    7   25 1   
    15    7   26 1   
    16    8    9 ar  
    17    8   10 1   
    18    9   27 1   
    19   10   11 1   
    20   10   28 1   
    21   10   29 1   
    22   11   12 1   
    23   12   13 1   
    24   12   14 1   
    25   12   15 1   
    26   14   32 1   
    27   16   17 1   
    28   16   18 1   
    29   16   19 1   
    30   19   20 1   
    31   19   30 1   
    32   19   31 1   
    33   20   33 1   
@<TRIPOS>SUBSTRUCTURE
     1 PLG         1 TEMP              0 ****  ****    0 ROOT
