@<TRIPOS>MOLECULE
PLG
   32    32     1     0     0
SMALL
bcc


@<TRIPOS>ATOM
      1 N1          3.3840    0.5770    0.0880 nb        1 PLG     -0.686000
      2 C2          3.1510    0.3300   -1.2270 ca        1 PLG      0.288600
      3 C2A         4.2670    0.4210   -2.2130 c3        1 PLG     -0.103400
      4 C3          1.8650   -0.0350   -1.7010 ca        1 PLG      0.031800
      5 O3          1.7970   -0.3070   -3.0480 oh        1 PLG     -0.555100
      6 C4          0.7730   -0.1230   -0.8050 ca        1 PLG     -0.154300
      7 C4A        -0.6000   -0.5360   -1.2600 c3        1 PLG      0.202100
      8 C5          1.0280    0.1170    0.5540 ca        1 PLG     -0.119600
      9 C6          2.3540    0.4630    0.9320 ca        1 PLG      0.369200
     10 C5A        -0.0200    0.0160    1.6400 c3        1 PLG      0.238700
     11 OP4         0.4500    0.4310    2.8560 os        1 PLG     -0.567200
     12 P           0.1100   -0.5920    4.2340 p5        1 PLG      1.314900
     13 OP1        -0.1600   -1.9270    3.5860 o         1 PLG     -0.930167
     14 OP2         1.3990   -0.4780    4.9990 o         1 PLG     -0.930167
     15 OP3        -1.0890    0.0790    4.8450 o         1 PLG     -0.930167
     16 C          -2.7760   -0.0180   -4.3460 c         1 PLG      0.909600
     17 O          -2.8230    1.2450   -4.3620 o         1 PLG     -0.861800
     18 OXT        -3.2830   -0.7480   -5.2490 o         1 PLG     -0.861800
     19 CA         -2.1140   -0.7480   -3.1490 c3        1 PLG      0.050800
     20 N          -0.9670   -0.0680   -2.5890 n3        1 PLG     -0.849200
     21 H2A1        4.5230   -0.6040   -2.5800 hc        1 PLG      0.018700
     22 H2A2        3.9370    1.0300   -3.0910 hc        1 PLG      0.018700
     23 H2A3        5.1840    0.8830   -1.7750 hc        1 PLG      0.018700
     24 HO3         0.8570   -0.4010   -3.2970 ho        1 PLG      0.461000
     25 H4A1       -0.6190   -1.6660   -1.2730 h1        1 PLG      0.044200
     26 H4A2       -1.3540   -0.2100   -0.4840 h1        1 PLG      0.044200
     27 H6          2.5540    0.6460    2.0100 h4        1 PLG      0.074100
     28 H5A1       -0.8790    0.6800    1.3060 h1        1 PLG      0.027200
     29 H5A2       -0.3780   -1.0580    1.6930 h1        1 PLG      0.027200
     30 HA2        -1.7750   -1.7630   -3.4950 h1        1 PLG      0.014200
     31 HA1        -2.9290   -0.9080   -2.3840 h1        1 PLG      0.014200
     32 H          -1.1170    0.9240   -2.5960 hn        1 PLG      0.379800
@<TRIPOS>BOND
     1    1    2 ar  
     2    1    9 ar  
     3    2    3 1   
     4    2    4 ar  
     5    3   21 1   
     6    3   22 1   
     7    3   23 1   
     8    4    5 1   
     9    4    6 ar  
    10    5   24 1   
    11    6    7 1   
    12    6    8 ar  
    13    7   20 1   
    14    7   25 1   
    15    7   26 1   
    16    8    9 ar  
    17    8   10 1   
    18    9   27 1   
    19   10   11 1   
    20   10   28 1   
    21   10   29 1   
    22   11   12 1   
    23   12   13 1   
    24   12   14 1   
    25   12   15 1   
    26   16   17 1   
    27   16   18 1   
    28   16   19 1   
    29   19   20 1   
    30   19   30 1   
    31   19   31 1   
    32   20   32 1   
@<TRIPOS>SUBSTRUCTURE
     1 PLG         1 TEMP              0 ****  ****    0 ROOT
