@<TRIPOS>MOLECULE
PLH
   55    51     1     0     0
SMALL
bcc


@<TRIPOS>ATOM
      1 C1          1.9830  -28.8130   23.5910 cu        1 PLH      0.275000
      2 C2          1.9350  -27.5270   22.8770 cx        1 PLH     -0.108000
      3 C3          0.1200  -34.5870   24.9360 c3        1 PLH     -0.190000
      4 C4          0.9330  -35.8630   25.0060 c3        1 PLH     -0.151000
      5 C5          0.0440  -37.1010   25.0800 c3        1 PLH     -0.204000
      6 C6         -0.5900  -37.4620   23.7470 c3        1 PLH     -0.225000
      7 C7          0.6040  -38.2080   25.7900 c2        1 PLH      0.276000
      8 C8          1.0380  -33.3850   24.7720 c2        1 PLH      0.325000
      9 C9          6.2580  -31.9450   21.9260 c1        1 PLH     -0.008000
     10 C10         4.9710  -32.3350   22.3670 c2        1 PLH      0.228000
     11 C11         5.5030  -32.0910   24.7810 c3        1 PLH     -0.179000
     12 C12         6.7820  -31.0610   20.9630 c3        1 PLH     -0.149000
     13 C13         5.8720  -30.0430   20.3800 c2        1 PLH     -0.166000
     14 C14         5.5560  326.9600 -212.2550 c2        1 PLH     -0.242000
     15 C15         5.5590  328.0190 -212.9420 c1        1 PLH      0.291000
     16 C16         6.3770  -26.4180   20.3780 c1        1 PLH      0.017000
     17 C17         6.5610  -27.6270   19.6900 c2        1 PLH     -0.138000
     18 C18         6.2500  -28.8410   20.0590 c1        1 PLH     -0.176000
     19 N1          0.8150  -28.0890   23.6420 ns        1 PLH     -0.331000
     20 N2          0.4720  -32.1560   24.6370 nt        1 PLH     -0.403000
     21 O1          3.4360  -25.8080   21.3120 oh        1 PLH     -0.440000
     22 O2          2.4870  -29.8750   23.9560 o         1 PLH     -0.395000
     23 O3          2.2880  -33.5200   24.7620 o         1 PLH     -0.449000
     24 H21        -0.5900  -34.6260   24.0660 hc        1 PLH      0.122500
     25 H22         1.7800  -27.4390   21.7760 h1        1 PLH      0.165500
     26 H3          2.5360  -26.6660   23.2530 h1        1 PLH      0.165500
     27 H41         1.5850  -35.9390   24.0910 hc        1 PLH      0.134500
     28 H42        -0.4850  -34.4550   25.8730 hc        1 PLH      0.122500
     29 H5          1.6170  -35.8130   25.8960 hc        1 PLH      0.134500
     30 H61        -1.2240  -36.6140   23.3870 hc        1 PLH      0.127000
     31 H62        -0.8340  -36.8580   25.8190 hc        1 PLH      0.252000
     32 H63        -1.2340  -38.3710   23.8370 hc        1 PLH      0.127000
     33 H71         0.2060  -37.6530   22.9850 hc        1 PLH      0.127000
     34 H72         0.2350  -39.2420   25.6210 ha        1 PLH      0.192000
     35 H73         1.3940  -38.0660   26.5560 ha        1 PLH      0.192000
     36 H9          1.0460  -31.3490   24.5330 hn        1 PLH      0.251000
     37 H111        5.1400  -31.6390   25.7430 hx        1 PLH      0.140667
     38 H112        6.5020  -31.6560   24.5070 hx        1 PLH      0.140667
     39 H113        5.6030  -33.2030   24.9050 hx        1 PLH      0.140667
     40 H121        7.1600  -31.7720   20.1350 hc        1 PLH      0.220000
     41 H122        7.7460  -30.6050   21.3580 hc        1 PLH      0.220000
     42 H14         4.8340  -30.3760   20.1940 ha        1 PLH      0.146000
     43 H15         4.6610  326.5110 -211.7360 ha        1 PLH      0.325500
     44 H16         6.4480  326.2990 -212.0540 ha        1 PLH      0.325500
     45 H17         7.1890  -25.9090   20.9060 ha        1 PLH      0.122000
     46 H18         6.9100  -27.4500   18.6370 ha        1 PLH      0.219000
     47 HN1         0.3350  -27.6790   24.4040 hn        1 PLH      0.242000
     48 HN2        -0.5110  -32.0390   24.6370 hn        1 PLH      0.251000
     49 HN3         3.6110  -32.2450   23.9500 hn        1 PLH      0.277500
     50 HO1         3.0740  -24.9580   21.0470 ho        1 PLH      0.216000
     51 N3          4.5240  -31.8060   23.7130 ny        1 PLH     -0.098000
     52 H12         4.2760  -25.8590   20.8340 ho        1 PLH      0.216000
     53 H221        5.5610  328.9280 -213.5320 ha        1 PLH      0.300000
     54 H32         4.3640  -30.7920   23.6380 hn        1 PLH      0.277500
     55 O4          4.2730  -33.2390   21.8930 o         1 PLH     -0.249000
@<TRIPOS>BOND
     1    1    2 1   
     2    1   19 1   
     3    1   22 1   
     4    2   19 1   
     5    2   25 1   
     6    2   26 1   
     7    3    4 1   
     8    3    8 1   
     9    3   24 1   
    10    3   28 1   
    11    4    5 1   
    12    4   27 1   
    13    4   29 1   
    14    5    6 1   
    15    5    7 1   
    16    5   31 1   
    17    6   30 1   
    18    6   32 1   
    19    6   33 1   
    20    7   34 1   
    21    7   35 1   
    22    8   20 1   
    23    8   23 1   
    24    9   10 1   
    25    9   12 1   
    26   10   51 1   
    27   10   55 1   
    28   11   37 1   
    29   11   38 1   
    30   11   39 1   
    31   11   51 1   
    32   12   13 1   
    33   12   40 1   
    34   12   41 1   
    35   13   18 1   
    36   13   42 1   
    37   14   15 1   
    38   14   43 1   
    39   14   44 1   
    40   15   53 1   
    41   16   17 1   
    42   16   45 1   
    43   17   18 1   
    44   17   46 1   
    45   19   47 1   
    46   20   36 1   
    47   20   48 1   
    48   21   50 1   
    49   21   52 1   
    50   49   51 1   
    51   51   54 1   
@<TRIPOS>SUBSTRUCTURE
     1 PLH         1 TEMP              0 ****  ****    0 ROOT
