@<TRIPOS>MOLECULE
PLH
   55    52     1     0     0
SMALL
bcc


@<TRIPOS>ATOM
      1 C1       -174.5410   19.2390 -250.3540 cu        1 PLH      0.251000
      2 C2       -173.9990   17.8560 -250.2970 cx        1 PLH      0.025000
      3 C3       -170.8550   23.2870 -250.8370 cx        1 PLH     -0.216000
      4 C4       -171.9560   23.6060 -251.8110 cx        1 PLH     -0.180000
      5 C5       -171.7310   24.5090 -250.6340 cx        1 PLH     -0.123000
      6 C6      -1025.5090 -668.6260  562.9990 c2        1 PLH      0.403000
      7 C7       -172.7280   24.5710 -249.5320 c3        1 PLH     -0.199000
      8 C8       -170.9990   22.1030 -249.9380 c2        1 PLH      0.373000
      9 C9        481.2220  101.6260  279.7110 c1        1 PLH     -0.001000
     10 C10       482.0840  102.7350  279.6240 c2        1 PLH      0.219000
     11 C11       483.0800  102.4190  281.8880 c3        1 PLH     -0.193000
     12 C12       479.8890  101.3150  279.3830 c3        1 PLH     -0.138000
     13 C13       479.3340  100.1030  280.0730 c2        1 PLH     -0.036000
     14 C14       478.1220  100.1550  280.6400 c2        1 PLH     -0.180000
     15 C15      -175.2240   21.4760 -250.4740 c2        1 PLH     -0.116000
     16 C16      -176.3390   22.2000 -250.4080 c2        1 PLH     -0.141000
     17 C17       479.8090   97.6630  280.2450 c1        1 PLH      0.299000
     18 C18       480.1660   98.9210  280.0470 c2        1 PLH     -0.493000
     19 N1       -173.4730   19.0410 -249.6130 n3        1 PLH     -0.243000
     20 N2       -169.9520   21.7780 -249.1300 n         1 PLH     -0.399000
     21 O1       -167.6670   23.4170 -250.2590 oh        1 PLH     -0.420000
     22 O2       -175.4230   20.0870 -250.7980 os        1 PLH     -0.038000
     23 O3       -172.0460   21.3950 -249.9100 o         1 PLH     -0.530000
     24 H21      -169.8010   23.4660 -251.1510 hc        1 PLH      0.166000
     25 H22      -174.4720   17.0730 -249.6570 h1        1 PLH      0.172500
     26 H3       -173.4640   17.4340 -251.1810 h1        1 PLH      0.172500
     27 H41      -171.6810   23.9520 -252.8240 hc        1 PLH      0.119500
     28 H42      -171.2450   25.4910 -250.8210 hc        1 PLH      0.137000
     29 H5       -172.8510   22.9560 -251.8190 hc        1 PLH      0.119500
     30 H61     -1024.6020 -668.9440  562.4460 ha        1 PLH      0.199000
     31 H62     -1026.5040 -668.6880  562.5140 ha        1 PLH      0.199000
     32 H63     -1025.4210 -668.2450  564.0360 ha        1 PLH      0.199000
     33 H71      -173.5520   25.2760 -249.8050 hc        1 PLH      0.085000
     34 H72      -172.2470   24.9420 -248.5930 hc        1 PLH      0.085000
     35 H73      -173.1710   23.5640 -249.3280 hc        1 PLH      0.085000
     36 H9       -170.0160   21.0080 -248.5120 hn        1 PLH      0.244000
     37 H111      483.3370  102.9410  282.8490 hx        1 PLH      0.152333
     38 H112      484.0150  101.9920  281.4310 hx        1 PLH      0.152333
     39 H113      482.3540  101.5850  282.0880 hx        1 PLH      0.152333
     40 H121      479.9900  101.0510  278.2580 hc        1 PLH      0.192500
     41 H122      479.1660  102.1810  279.4320 hc        1 PLH      0.192500
     42 H14       477.4970  101.0590  280.6340 ha        1 PLH      0.143000
     43 H15       477.6760   99.2830  281.1410 ha        1 PLH      0.143000
     44 H16      -177.3480   21.7800 -250.5290 ha        1 PLH      0.168000
     45 H17      -176.2820   23.2870 -250.2380 ha        1 PLH      0.168000
     46 H18       481.2460   99.0890  279.8290 ha        1 PLH      0.201000
     47 HN1      -172.6450   19.4860 -249.2830 hn        1 PLH      0.347000
     48 HN2      -169.1080   22.3030 -249.1550 hn        1 PLH      0.244000
     49 HN3       481.6480  103.8170  281.3700 hn        1 PLH      0.256000
     50 HO1      -166.9350   23.0310 -250.7490 ho        1 PLH      0.213000
     51 N3        482.4750  103.3870  280.9470 n4        1 PLH     -0.094000
     52 H12      -167.3160   24.2530 -249.9380 ho        1 PLH      0.213000
     53 H221     -174.1680   21.7770 -250.3710 h4        1 PLH      0.218000
     54 H32       483.1560  104.1320  280.7340 hn        1 PLH      0.256000
     55 O4        482.7580  103.0940  278.6550 o         1 PLH     -0.223000
@<TRIPOS>BOND
     1    1    2 1   
     2    1   19 1   
     3    1   22 1   
     4    2   19 1   
     5    2   25 1   
     6    2   26 1   
     7    3    4 1   
     8    3    5 1   
     9    3    8 1   
    10    3   24 1   
    11    4    5 1   
    12    4   27 1   
    13    4   29 1   
    14    5    7 1   
    15    5   28 1   
    16    6   30 1   
    17    6   31 1   
    18    6   32 1   
    19    7   33 1   
    20    7   34 1   
    21    7   35 1   
    22    8   20 1   
    23    8   23 1   
    24    9   10 1   
    25    9   12 1   
    26   10   51 1   
    27   10   55 1   
    28   11   37 1   
    29   11   38 1   
    30   11   39 1   
    31   11   51 1   
    32   12   13 1   
    33   12   40 1   
    34   12   41 1   
    35   13   14 1   
    36   13   18 1   
    37   14   42 1   
    38   14   43 1   
    39   15   16 1   
    40   15   22 1   
    41   15   53 1   
    42   16   44 1   
    43   16   45 1   
    44   17   18 1   
    45   18   46 1   
    46   19   47 1   
    47   20   36 1   
    48   20   48 1   
    49   21   50 1   
    50   21   52 1   
    51   49   51 1   
    52   51   54 1   
@<TRIPOS>SUBSTRUCTURE
     1 PLH         1 TEMP              0 ****  ****    0 ROOT
