@<TRIPOS>MOLECULE
PLH
   52    52     1     0     0
SMALL
bcc


@<TRIPOS>ATOM
      1 C1         -0.8280   -0.7890    3.3540 c         1 PLH      0.591100
      2 C2          0.1170   -1.2830    2.2820 c3        1 PLH     -0.149400
      3 C3          0.5050   -0.1810    1.3040 c3        1 PLH     -0.127700
      4 C4          1.8380    0.4660    1.6570 c3        1 PLH     -0.076400
      5 C5          1.8050    1.2360    2.9700 c3        1 PLH     -0.063700
      6 C6          3.2180    1.5710    3.4010 c3        1 PLH     -0.095600
      7 C7          0.9740    2.4970    2.8580 c3        1 PLH     -0.095600
      8 C8          0.6110   -0.7730   -0.1030 c         1 PLH      0.664100
      9 C9          0.4900   -0.3400   -2.5330 c3        1 PLH      0.041700
     10 C10         1.9170   -0.5300   -3.1180 c         1 PLH      0.640100
     11 C11         3.9800   -1.8670   -3.0460 c3        1 PLH      0.078300
     12 C12        -0.2700    0.6310   -3.4530 c3        1 PLH     -0.044100
     13 C13        -1.6630    0.8620   -2.9890 ca        1 PLH     -0.090300
     14 C14        -1.9950    2.0380   -2.3060 ca        1 PLH     -0.128000
     15 C15        -3.3040    2.2570   -1.8800 ca        1 PLH     -0.125000
     16 C16        -4.2920    1.3060   -2.1330 ca        1 PLH     -0.126000
     17 C17        -3.9670    0.1330   -2.8160 ca        1 PLH     -0.125000
     18 C18        -2.6590   -0.0880   -3.2430 ca        1 PLH     -0.128000
     19 N1         -1.0480   -1.6700    4.4610 n         1 PLH     -0.352400
     20 N2          0.5350    0.1050   -1.1620 n         1 PLH     -0.555900
     21 O1         -1.5880   -1.0910    5.5360 oh        1 PLH     -0.437100
     22 O2         -1.5110    0.2440    3.2470 o         1 PLH     -0.568100
     23 O3          0.7870   -1.9960   -0.2970 o         1 PLH     -0.636100
     24 O4          2.3420    0.2150   -4.0230 o         1 PLH     -0.618100
     25 H21        -0.4030   -2.1180    1.7330 hc        1 PLH      0.090200
     26 H22         1.0410   -1.7190    2.7450 hc        1 PLH      0.090200
     27 H3         -0.3020    0.6090    1.3120 hc        1 PLH      0.100700
     28 H41         2.6260   -0.3330    1.7170 hc        1 PLH      0.052700
     29 H42         2.1390    1.1690    0.8360 hc        1 PLH      0.052700
     30 H5          1.3370    0.5760    3.7570 hc        1 PLH      0.041700
     31 H61         3.2040    2.1190    4.3730 hc        1 PLH      0.039200
     32 H62         3.8220    0.6400    3.5280 hc        1 PLH      0.039200
     33 H63         3.7170    2.2150    2.6380 hc        1 PLH      0.039200
     34 H71         1.3220    3.1260    2.0040 hc        1 PLH      0.039200
     35 H72        -0.1040    2.2420    2.7070 hc        1 PLH      0.039200
     36 H73         1.0620    3.0980    3.7960 hc        1 PLH      0.039200
     37 H9         -0.0310   -1.3470   -2.5640 h1        1 PLH      0.085700
     38 H111        4.7060   -1.7750   -2.1930 h1        1 PLH      0.043033
     39 H112        4.0190   -2.9200   -3.4360 h1        1 PLH      0.043033
     40 H113        4.2880   -1.1630   -3.8650 h1        1 PLH      0.043033
     41 H121        0.2940    1.6000   -3.5220 hc        1 PLH      0.078200
     42 H122       -0.2710    0.1810   -4.4820 hc        1 PLH      0.078200
     43 H14        -1.2220    2.7960   -2.1120 ha        1 PLH      0.131000
     44 H15        -3.5580    3.1840   -1.3430 ha        1 PLH      0.134000
     45 H16        -5.3240    1.4790   -1.7960 ha        1 PLH      0.134000
     46 H17        -4.7450   -0.6180   -3.0190 ha        1 PLH      0.134000
     47 H18        -2.4060   -1.0120   -3.7840 ha        1 PLH      0.131000
     48 HN1        -0.2040   -2.1440    4.7600 hn        1 PLH      0.298500
     49 HN2         0.3330    1.0630   -0.9930 hn        1 PLH      0.323500
     50 HN3         2.2700   -2.1230   -1.8740 hn        1 PLH      0.338500
     51 HO1        -2.5210   -0.9120    5.3020 ho        1 PLH      0.436000
     52 N3          2.6590   -1.5610   -2.5990 n         1 PLH     -0.566900
@<TRIPOS>BOND
     1    1    2 1   
     2    1   19 1   
     3    1   22 2   
     4    2    3 1   
     5    2   25 1   
     6    2   26 1   
     7    3    4 1   
     8    3    8 1   
     9    3   27 1   
    10    4    5 1   
    11    4   28 1   
    12    4   29 1   
    13    5    6 1   
    14    5    7 1   
    15    5   30 1   
    16    6   31 1   
    17    6   32 1   
    18    6   33 1   
    19    7   34 1   
    20    7   35 1   
    21    7   36 1   
    22    8   20 1   
    23    8   23 2   
    24    9   10 1   
    25    9   12 1   
    26    9   20 1   
    27    9   37 1   
    28   10   24 2   
    29   10   52 1   
    30   11   38 1   
    31   11   39 1   
    32   11   40 1   
    33   11   52 1   
    34   12   13 1   
    35   12   41 1   
    36   12   42 1   
    37   13   14 ar  
    38   13   18 ar  
    39   14   15 ar  
    40   14   43 1   
    41   15   16 ar  
    42   15   44 1   
    43   16   17 ar  
    44   16   45 1   
    45   17   18 ar  
    46   17   46 1   
    47   18   47 1   
    48   19   21 1   
    49   19   48 1   
    50   20   49 1   
    51   21   51 1   
    52   50   52 1   
@<TRIPOS>SUBSTRUCTURE
     1 PLH         1 TEMP              0 ****  ****    0 ROOT
