@<TRIPOS>MOLECULE
PLI
   33    33     1     0     0
SMALL
bcc


@<TRIPOS>ATOM
      1 OP2         0.5140    0.0300   -0.4600 o         1 PLI     -0.929167
      2 P           2.0160   -0.0120   -0.5380 p5        1 PLI      1.324900
      3 OP1         2.7030   -1.0070    0.3540 o         1 PLI     -0.929167
      4 OP3         2.5880    0.1020   -1.9390 o         1 PLI     -0.929167
      5 OP4         2.4990    1.5040    0.1290 os        1 PLI     -0.579200
      6 C5A         1.6680    2.5860   -0.0520 c3        1 PLI      0.264600
      7 C5          2.2120    3.5750   -1.0650 cc        1 PLI     -0.204200
      8 C6          2.8540    3.0390   -2.1470 cd        1 PLI      0.006000
      9 N1          3.4010    3.8150   -3.1620 na        1 PLI     -0.583800
     10 C2          3.5610    5.1880   -2.9230 cd        1 PLI     -0.038200
     11 C2A         4.4040    5.9740   -3.8660 c3        1 PLI     -0.023900
     12 C3          2.9170    5.7830   -1.8560 cc        1 PLI      0.083100
     13 O3A         3.1420    7.1370   -1.7130 oh        1 PLI     -0.563100
     14 C4          2.0810    5.0190   -0.9270 cc        1 PLI      0.026000
     15 C4A         1.2070    5.5800   -0.0320 cf        1 PLI     -0.078400
     16 N           1.0280    6.9550    0.1500 nf        1 PLI     -0.621300
     17 CA          0.1300    7.4360    0.9470 ce        1 PLI      0.369300
     18 CB         -0.8400    6.6510    1.7800 c3        1 PLI     -0.163400
     19 C          -0.0470    8.9530    1.1330 c         1 PLI      0.834300
     20 O           0.6290    9.5290    2.0330 o         1 PLI     -0.850800
     21 OXT        -0.9150    9.5420    0.4270 o         1 PLI     -0.850800
     22 H5A1        0.6460    2.2450   -0.3920 h1        1 PLI      0.009200
     23 H5A2        1.5660    3.1230    0.9380 h1        1 PLI      0.009200
     24 H6          2.9050    1.8990   -2.2480 h4        1 PLI      0.284000
     25 H1          4.1160    3.3860   -3.7030 hn        1 PLI      0.395800
     26 H2A1        5.4890    5.7580   -3.6930 hc        1 PLI      0.021033
     27 H2A2        4.1650    5.7240   -4.9300 hc        1 PLI      0.021033
     28 H2A3        4.2330    7.0670   -3.7100 hc        1 PLI      0.021033
     29 H3A         2.4890    7.4900   -1.0800 ho        1 PLI      0.470000
     30 H4A         0.6060    4.8870    0.5910 h4        1 PLI      0.118000
     31 HBC1       -1.5210    7.3450    2.3300 hc        1 PLI      0.029367
     32 HBC2       -1.4590    5.9780    1.1370 hc        1 PLI      0.029367
     33 HBC3       -0.2940    6.0210    2.5260 hc        1 PLI      0.029367
@<TRIPOS>BOND
     1    1    2 1   
     2    2    3 1   
     3    2    4 1   
     4    2    5 1   
     5    5    6 1   
     6    6    7 1   
     7    6   22 1   
     8    6   23 1   
     9    7    8 2   
    10    7   14 1   
    11    8    9 1   
    12    8   24 1   
    13    9   10 1   
    14    9   25 1   
    15   10   11 1   
    16   10   12 2   
    17   11   26 1   
    18   11   27 1   
    19   11   28 1   
    20   12   13 1   
    21   12   14 1   
    22   13   29 1   
    23   14   15 2   
    24   15   16 1   
    25   15   30 1   
    26   16   17 2   
    27   17   18 1   
    28   17   19 1   
    29   18   31 1   
    30   18   32 1   
    31   18   33 1   
    32   19   20 1   
    33   19   21 1   
@<TRIPOS>SUBSTRUCTURE
     1 PLI         1 TEMP              0 ****  ****    0 ROOT
