@<TRIPOS>MOLECULE
PLI
   33    33     1     0     0
SMALL
bcc


@<TRIPOS>ATOM
      1 OP2         0.3540    0.1540   -0.6650 o         1 PLI     -0.929833
      2 P           1.8510    0.0030   -0.6390 p5        1 PLI      1.323900
      3 OP1         2.3950   -1.0770    0.2530 o         1 PLI     -0.929833
      4 OP3         2.5330    0.1340   -1.9880 o         1 PLI     -0.929833
      5 OP4         2.3950    1.4500    0.1270 os        1 PLI     -0.579200
      6 C5A         1.6570    2.5970   -0.0510 c3        1 PLI      0.264600
      7 C5          2.3100    3.5800   -1.0060 cc        1 PLI     -0.206200
      8 C6          3.0840    3.0340   -1.9930 cd        1 PLI      0.015000
      9 N1          3.8100    3.7920   -2.8980 na        1 PLI     -0.585800
     10 C2          3.6300    5.1810   -2.9000 cd        1 PLI     -0.040200
     11 C2A         4.3440    5.9840   -3.9320 c3        1 PLI     -0.019900
     12 C3          2.8770    5.7870   -1.9120 cc        1 PLI      0.084100
     13 O3A         2.9060    7.1660   -1.9310 oh        1 PLI     -0.565100
     14 C4          2.1120    5.0190   -0.9260 cc        1 PLI      0.026000
     15 C4A         1.2420    5.5750   -0.0220 cf        1 PLI     -0.085400
     16 N           1.0050    6.9450    0.1190 nf        1 PLI     -0.621300
     17 CA          0.1600    7.4190    0.9760 ce        1 PLI      0.368300
     18 CB         -0.6860    6.6280    1.9290 c3        1 PLI     -0.163400
     19 C          -0.0760    8.9330    1.1160 c         1 PLI      0.834300
     20 O           0.5910    9.5610    1.9870 o         1 PLI     -0.851300
     21 OXT        -0.9760    9.4670    0.4070 o         1 PLI     -0.851300
     22 H5A1        0.6280    2.3460   -0.4440 h1        1 PLI      0.009200
     23 H5A2        1.5540    3.1070    0.9540 h1        1 PLI      0.009200
     24 H6          3.1540    1.8950   -2.0690 h4        1 PLI      0.283000
     25 H1          4.0020    3.3720   -3.7790 hn        1 PLI      0.399800
     26 H2A1        4.2940    5.4990   -4.9380 hc        1 PLI      0.020033
     27 H2A2        3.8840    7.0010   -4.0030 hc        1 PLI      0.020033
     28 H2A3        5.4210    6.1040   -3.6550 hc        1 PLI      0.020033
     29 H3A         2.2770    7.4990   -1.2630 ho        1 PLI      0.473000
     30 H4A         0.6870    4.8810    0.6410 h4        1 PLI      0.119000
     31 HBC1       -1.3080    7.3160    2.5510 hc        1 PLI      0.029367
     32 HBC2       -1.3660    5.9380    1.3710 hc        1 PLI      0.029367
     33 HBC3       -0.0440    6.0150    2.6100 hc        1 PLI      0.029367
@<TRIPOS>BOND
     1    1    2 1   
     2    2    3 1   
     3    2    4 1   
     4    2    5 1   
     5    5    6 1   
     6    6    7 1   
     7    6   22 1   
     8    6   23 1   
     9    7    8 2   
    10    7   14 1   
    11    8    9 1   
    12    8   24 1   
    13    9   10 1   
    14    9   25 1   
    15   10   11 1   
    16   10   12 2   
    17   11   26 1   
    18   11   27 1   
    19   11   28 1   
    20   12   13 1   
    21   12   14 1   
    22   13   29 1   
    23   14   15 2   
    24   15   16 1   
    25   15   30 1   
    26   16   17 2   
    27   17   18 1   
    28   17   19 1   
    29   18   31 1   
    30   18   32 1   
    31   18   33 1   
    32   19   20 1   
    33   19   21 1   
@<TRIPOS>SUBSTRUCTURE
     1 PLI         1 TEMP              0 ****  ****    0 ROOT
