@<TRIPOS>MOLECULE
PLI
   33    33     1     0     0
SMALL
bcc


@<TRIPOS>ATOM
      1 OP2         0.9840   -1.1150   -1.0290 o         1 PLI     -0.929167
      2 P           1.9110   -0.0170   -0.5860 p5        1 PLI      1.324900
      3 OP1         2.0980    0.1410    0.8980 o         1 PLI     -0.929167
      4 OP3         3.1750    0.1330   -1.4110 o         1 PLI     -0.929167
      5 OP4         1.0610    1.4130   -1.0420 os        1 PLI     -0.579200
      6 C5A         1.3080    2.5680   -0.3330 c3        1 PLI      0.264600
      7 C5          2.1340    3.5680   -1.1210 cc        1 PLI     -0.204200
      8 C6          3.1210    3.0460   -1.9110 cd        1 PLI      0.006000
      9 N1          3.9630    3.8330   -2.6860 na        1 PLI     -0.583800
     10 C2          3.6010    5.1730   -2.8930 cd        1 PLI     -0.038200
     11 C2A         4.3200    5.9430   -3.9470 c3        1 PLI     -0.023900
     12 C3          2.6260    5.7540   -2.1080 cc        1 PLI      0.083100
     13 O3A         2.3480    7.0750   -2.3940 oh        1 PLI     -0.563100
     14 C4          1.9180    5.0060   -1.0650 cc        1 PLI      0.026000
     15 C4A         1.1550    5.5830   -0.0820 cf        1 PLI     -0.078400
     16 N           0.9090    6.9550    0.0330 nf        1 PLI     -0.621300
     17 CA          0.2520    7.4590    1.0260 ce        1 PLI      0.369300
     18 CB         -0.3360    6.7070    2.1830 c3        1 PLI     -0.163400
     19 C          -0.0090    8.9720    1.1300 c         1 PLI      0.834300
     20 O          -1.0510    9.4380    0.5890 o         1 PLI     -0.850800
     21 OXT         0.7940    9.6680    1.8150 o         1 PLI     -0.850800
     22 H5A1        0.3160    3.0520   -0.0890 h1        1 PLI      0.009200
     23 H5A2        1.8480    2.3300    0.6300 h1        1 PLI      0.009200
     24 H6          3.2920    1.9140   -1.9020 h4        1 PLI      0.284000
     25 H1          4.3970    3.3810   -3.4580 hn        1 PLI      0.395800
     26 H2A1        3.9730    5.6300   -4.9640 hc        1 PLI      0.021033
     27 H2A2        4.1180    7.0350   -3.8250 hc        1 PLI      0.021033
     28 H2A3        5.4250    5.7760   -3.8900 hc        1 PLI      0.021033
     29 H3A         1.8170    7.4420   -1.6620 ho        1 PLI      0.470000
     30 H4A         0.7000    4.9050    0.6690 h4        1 PLI      0.118000
     31 HBC1       -0.8010    7.4200    2.9060 hc        1 PLI      0.029367
     32 HBC2       -1.1220    5.9950    1.8280 hc        1 PLI      0.029367
     33 HBC3        0.4530    6.1220    2.7170 hc        1 PLI      0.029367
@<TRIPOS>BOND
     1    1    2 1   
     2    2    3 1   
     3    2    4 1   
     4    2    5 1   
     5    5    6 1   
     6    6    7 1   
     7    6   22 1   
     8    6   23 1   
     9    7    8 2   
    10    7   14 1   
    11    8    9 1   
    12    8   24 1   
    13    9   10 1   
    14    9   25 1   
    15   10   11 1   
    16   10   12 2   
    17   11   26 1   
    18   11   27 1   
    19   11   28 1   
    20   12   13 1   
    21   12   14 1   
    22   13   29 1   
    23   14   15 2   
    24   15   16 1   
    25   15   30 1   
    26   16   17 2   
    27   17   18 1   
    28   17   19 1   
    29   18   31 1   
    30   18   32 1   
    31   18   33 1   
    32   19   20 1   
    33   19   21 1   
@<TRIPOS>SUBSTRUCTURE
     1 PLI         1 TEMP              0 ****  ****    0 ROOT
