@<TRIPOS>MOLECULE
PLI
   33    33     1     0     0
SMALL
bcc


@<TRIPOS>ATOM
      1 OP2        -4.0510    1.2400   -1.0770 o         1 PLI     -0.929167
      2 P          -4.2690    0.2370    0.0230 p5        1 PLI      1.324900
      3 OP1        -5.2890    0.6000    1.0650 o         1 PLI     -0.929167
      4 OP3        -4.2940   -1.2120   -0.4270 o         1 PLI     -0.929167
      5 OP4        -2.7860    0.2720    0.9040 os        1 PLI     -0.579200
      6 C5A        -1.6270    0.5360    0.2120 c3        1 PLI      0.264600
      7 C5         -0.7600   -0.6980    0.0370 cc        1 PLI     -0.204200
      8 C6         -1.4220   -1.8720   -0.1930 cd        1 PLI      0.006000
      9 N1         -0.7680   -3.0840   -0.3790 na        1 PLI     -0.583800
     10 C2          0.5880   -3.1570   -0.0270 cd        1 PLI     -0.038200
     11 C2A         1.2220   -4.5030    0.0610 c3        1 PLI     -0.023900
     12 C3          1.3080   -2.0000    0.1950 cc        1 PLI      0.083100
     13 O3A         2.6320   -2.1850    0.5340 oh        1 PLI     -0.563100
     14 C4          0.6940   -0.6720    0.1040 cc        1 PLI      0.026000
     15 C4A         1.3980    0.5020    0.0370 cf        1 PLI     -0.078400
     16 N           2.7920    0.5990    0.0930 nf        1 PLI     -0.621300
     17 CA          3.4130    1.7230   -0.0600 ce        1 PLI      0.369300
     18 CB          2.7900    3.0640   -0.3140 c3        1 PLI     -0.163400
     19 C           4.9490    1.8060    0.0080 c         1 PLI      0.834300
     20 O           5.4890    2.0010    1.1340 o         1 PLI     -0.850800
     21 OXT         5.5960    1.7500   -1.0770 o         1 PLI     -0.850800
     22 H5A1       -1.8650    0.9580   -0.8080 h1        1 PLI      0.009200
     23 H5A2       -1.0310    1.2980    0.7960 h1        1 PLI      0.009200
     24 H6         -2.5630   -1.8520   -0.2810 h4        1 PLI      0.284000
     25 H1         -1.3040   -3.9020   -0.2000 hn        1 PLI      0.395800
     26 H2A1        0.8910   -5.0300    0.9910 hc        1 PLI      0.021033
     27 H2A2        0.9470   -5.1390   -0.8170 hc        1 PLI      0.021033
     28 H2A3        2.3350   -4.3990    0.0900 hc        1 PLI      0.021033
     29 H3A         3.0910   -1.3270    0.4570 ho        1 PLI      0.470000
     30 H4A         0.8120    1.4390   -0.0640 h4        1 PLI      0.118000
     31 HBC1        2.1430    3.3640    0.5470 hc        1 PLI      0.029367
     32 HBC2        3.5840    3.8360   -0.4510 hc        1 PLI      0.029367
     33 HBC3        2.1580    3.0370   -1.2360 hc        1 PLI      0.029367
@<TRIPOS>BOND
     1    1    2 1   
     2    2    3 1   
     3    2    4 1   
     4    2    5 1   
     5    5    6 1   
     6    6    7 1   
     7    6   22 1   
     8    6   23 1   
     9    7    8 2   
    10    7   14 1   
    11    8    9 1   
    12    8   24 1   
    13    9   10 1   
    14    9   25 1   
    15   10   11 1   
    16   10   12 2   
    17   11   26 1   
    18   11   27 1   
    19   11   28 1   
    20   12   13 1   
    21   12   14 1   
    22   13   29 1   
    23   14   15 2   
    24   15   16 1   
    25   15   30 1   
    26   16   17 2   
    27   17   18 1   
    28   17   19 1   
    29   18   31 1   
    30   18   32 1   
    31   18   33 1   
    32   19   20 1   
    33   19   21 1   
@<TRIPOS>SUBSTRUCTURE
     1 PLI         1 TEMP              0 ****  ****    0 ROOT
