@<TRIPOS>MOLECULE
PLJ
   20    20     1     0     0
SMALL
bcc


@<TRIPOS>ATOM
      1 CM          3.1810   -0.2390   -0.2860 c3        1 PLJ      0.124700
      2 O           1.1620    1.3870   -0.5230 o         1 PLJ     -0.545000
      3 CG         -2.3190   -0.8770   -0.6170 c3        1 PLJ     -0.098400
      4 CB         -0.9760   -1.3150   -0.0510 c3        1 PLJ     -0.082400
      5 CD         -2.5860    0.5230   -0.0410 c3        1 PLJ      0.147800
      6 OXT         1.9010   -0.5740    0.2540 os        1 PLJ     -0.434900
      7 C           0.9040    0.3440    0.0810 c         1 PLJ      0.607100
      8 CA         -0.4120   -0.0880    0.7030 c3        1 PLJ      0.123500
      9 N          -1.4270    0.9660    0.7290 n3        1 PLJ     -0.797200
     10 HM1         3.5590    0.6990    0.1850 h1        1 PLJ      0.052367
     11 HM2         3.8170   -1.1190   -0.0200 h1        1 PLJ      0.052367
     12 HM3         3.1040   -0.1070   -1.3920 h1        1 PLJ      0.052367
     13 HG2        -2.2890   -0.8410   -1.7340 hc        1 PLJ      0.052200
     14 HG3        -3.1310   -1.5850   -0.3200 hc        1 PLJ      0.052200
     15 HB2        -1.0990   -2.1660    0.6630 hc        1 PLJ      0.060200
     16 HB3        -0.2760   -1.6460   -0.8570 hc        1 PLJ      0.060200
     17 HD2        -2.8430    1.2430   -0.8640 h1        1 PLJ      0.048200
     18 HD3        -3.4580    0.4900    0.6690 h1        1 PLJ      0.048200
     19 HA         -0.1900   -0.3600    1.7760 h1        1 PLJ      0.097700
     20 H          -1.0600    1.8300    0.3730 hn        1 PLJ      0.379800
@<TRIPOS>BOND
     1    1    6 1   
     2    1   10 1   
     3    1   11 1   
     4    1   12 1   
     5    2    7 2   
     6    3    4 1   
     7    3    5 1   
     8    3   13 1   
     9    3   14 1   
    10    4    8 1   
    11    4   15 1   
    12    4   16 1   
    13    5    9 1   
    14    5   17 1   
    15    5   18 1   
    16    6    7 1   
    17    7    8 1   
    18    8    9 1   
    19    8   19 1   
    20    9   20 1   
@<TRIPOS>SUBSTRUCTURE
     1 PLJ         1 TEMP              0 ****  ****    0 ROOT
