@<TRIPOS>MOLECULE
PLK
   48    48     1     0     0
SMALL
bcc


@<TRIPOS>ATOM
      1 C11         0.2500   -0.7540    0.7380 c3        1 PLK     -0.087100
      2 C12         1.5600   -0.2980    0.1280 c3        1 PLK     -0.069700
      3 C13         2.6070   -0.1010    1.2060 c3        1 PLK     -0.087100
      4 C14         2.0420   -1.2880   -0.9240 c3        1 PLK     -0.068400
      5 C15         1.4290   -1.0190   -2.3150 c3        1 PLK      0.190500
      6 C16         1.4140   -2.3300   -3.1110 c3        1 PLK     -0.209400
      7 C17         0.7170   -2.1930   -4.4700 c         1 PLK      0.911600
      8 O11        -0.2390   -2.9770   -4.7320 o         1 PLK     -0.862300
      9 O12         1.1410   -1.3250   -5.2950 o         1 PLK     -0.862300
     10 N11         2.1520    0.0600   -2.9920 n7        1 PLK     -0.815200
     11 C21         1.3470    1.2490   -3.2080 c3        1 PLK      0.203100
     12 C22         2.1170    2.3420   -3.8930 ca        1 PLK     -0.128300
     13 C23         2.1770    2.3970   -5.3010 ca        1 PLK      0.034800
     14 O21         1.5660    1.5040   -6.1380 oh        1 PLK     -0.527100
     15 C24         2.8750    3.4640   -5.9360 ca        1 PLK      0.330600
     16 C25         2.8910    3.5030   -7.4280 c3        1 PLK     -0.120400
     17 N21         3.5040    4.4270   -5.2230 nb        1 PLK     -0.675000
     18 C26         3.4570    4.3510   -3.8850 ca        1 PLK      0.362200
     19 C27         2.7830    3.3390   -3.1660 ca        1 PLK     -0.125600
     20 C28         2.7790    3.3540   -1.6720 c3        1 PLK      0.204700
     21 O22         3.6610    4.3190   -1.1700 os        1 PLK     -0.578200
     22 P           3.5520    4.5080    0.4660 p5        1 PLK      1.424800
     23 O1P         4.6310    5.4350    0.8690 o         1 PLK     -0.839500
     24 O2P         2.1240    4.6060    0.8260 o         1 PLK     -0.839500
     25 O3P         4.1310    3.0380    0.8930 oh        1 PLK     -0.783400
     26 H111        0.3930   -1.7000    1.3150 hc        1 PLK      0.026367
     27 H112       -0.1460    0.0260    1.4310 hc        1 PLK      0.026367
     28 H113       -0.5070   -0.9400   -0.0610 hc        1 PLK      0.026367
     29 H12         1.3910    0.7030   -0.3630 hc        1 PLK      0.071700
     30 H131        3.0010   -1.0830    1.5620 hc        1 PLK      0.026367
     31 H132        3.4540    0.5140    0.8100 hc        1 PLK      0.026367
     32 H133        2.1690    0.4440    2.0770 hc        1 PLK      0.026367
     33 H141        3.1600   -1.2480   -0.9910 hc        1 PLK      0.031200
     34 H142        1.7650   -2.3280   -0.6070 hc        1 PLK      0.031200
     35 H15         0.3460   -0.7260   -2.1520 h1        1 PLK      0.031700
     36 H161        2.4610   -2.6840   -3.2870 hc        1 PLK      0.031200
     37 H162        0.8790   -3.1090   -2.5110 hc        1 PLK      0.031200
     38 H11         2.4950   -0.2740   -3.8800 hn        1 PLK      0.386800
     39 H211        0.4180    1.0310   -3.8200 h1        1 PLK      0.039200
     40 H212        0.9940    1.6230   -2.2040 h1        1 PLK      0.039200
     41 H21         1.3760    0.6710   -5.6590 ho        1 PLK      0.484000
     42 H251        3.0930    2.4750   -7.8190 hc        1 PLK      0.035367
     43 H252        1.8860    3.8240   -7.7990 hc        1 PLK      0.035367
     44 H253        3.6620    4.2050   -7.8260 hc        1 PLK      0.035367
     45 H26         3.9950    5.1400   -3.3260 h4        1 PLK      0.042100
     46 H281        1.7400    3.5850   -1.2930 h1        1 PLK      0.055700
     47 H282        3.0920    2.3460   -1.2730 h1        1 PLK      0.055700
     48 H114        5.0760    3.0440    0.9830 ho        1 PLK      0.422000
@<TRIPOS>BOND
     1    1    2 1   
     2    1   26 1   
     3    1   27 1   
     4    1   28 1   
     5    2    3 1   
     6    2    4 1   
     7    2   29 1   
     8    3   30 1   
     9    3   31 1   
    10    3   32 1   
    11    4    5 1   
    12    4   33 1   
    13    4   34 1   
    14    5    6 1   
    15    5   10 1   
    16    5   35 1   
    17    6    7 1   
    18    6   36 1   
    19    6   37 1   
    20    7    8 1   
    21    7    9 1   
    22   10   11 1   
    23   10   38 1   
    24   11   12 1   
    25   11   39 1   
    26   11   40 1   
    27   12   13 ar  
    28   12   19 ar  
    29   13   14 1   
    30   13   15 ar  
    31   14   41 1   
    32   15   16 1   
    33   15   17 ar  
    34   16   42 1   
    35   16   43 1   
    36   16   44 1   
    37   17   18 ar  
    38   18   19 ar  
    39   18   45 1   
    40   19   20 1   
    41   20   21 1   
    42   20   46 1   
    43   20   47 1   
    44   21   22 1   
    45   22   23 1   
    46   22   24 1   
    47   22   25 1   
    48   25   48 1   
@<TRIPOS>SUBSTRUCTURE
     1 PLK         1 TEMP              0 ****  ****    0 ROOT
