@<TRIPOS>MOLECULE
PLK
   48    48     1     0     0
SMALL
bcc


@<TRIPOS>ATOM
      1 C11         0.5260   -0.0040    0.5340 c3        1 PLK     -0.086600
      2 C12         1.9490   -0.2380    0.0700 c3        1 PLK     -0.072700
      3 C13         2.8430   -0.5120    1.2640 c3        1 PLK     -0.086600
      4 C14         2.0370   -1.3840   -0.9230 c3        1 PLK     -0.064400
      5 C15         1.4240   -1.0730   -2.3030 c3        1 PLK      0.189500
      6 C16         1.3600   -2.3830   -3.0990 c3        1 PLK     -0.210400
      7 C17         0.6260   -2.2290   -4.4360 c         1 PLK      0.911600
      8 O11        -0.3520   -2.9930   -4.6710 o         1 PLK     -0.860800
      9 O12         1.0450   -1.3680   -5.2700 o         1 PLK     -0.860800
     10 N11         2.1700   -0.0130   -2.9870 n3        1 PLK     -0.814200
     11 C21         1.3920    1.2010   -3.1700 c3        1 PLK      0.200100
     12 C22         2.1550    2.2880   -3.8700 ca        1 PLK     -0.129300
     13 C23         2.2200    2.3190   -5.2780 ca        1 PLK      0.034800
     14 O21         1.6280    1.4080   -6.1080 oh        1 PLK     -0.524100
     15 C24         2.9080    3.3840   -5.9310 ca        1 PLK      0.331600
     16 C25         2.9350    3.3880   -7.4230 c3        1 PLK     -0.120400
     17 N21         3.5150    4.3720   -5.2350 nb        1 PLK     -0.673000
     18 C26         3.4560    4.3250   -3.8960 ca        1 PLK      0.363200
     19 C27         2.7970    3.3150   -3.1620 ca        1 PLK     -0.128600
     20 C28         2.7930    3.3590   -1.6680 c3        1 PLK      0.206700
     21 O22         3.5050    4.4610   -1.1830 os        1 PLK     -0.572200
     22 P           3.3080    4.7150    0.4380 p5        1 PLK      1.427800
     23 O1P         4.1140    5.8910    0.8100 o         1 PLK     -0.841000
     24 O2P         1.8790    4.4880    0.7520 o         1 PLK     -0.841000
     25 O3P         3.9990    3.3370    0.9890 oh        1 PLK     -0.786400
     26 H111        0.1050   -0.9260    1.0000 hc        1 PLK      0.025533
     27 H112        0.4970    0.8230    1.2850 hc        1 PLK      0.025533
     28 H113       -0.1210    0.2850   -0.3290 hc        1 PLK      0.025533
     29 H12         2.3190    0.7060   -0.4260 hc        1 PLK      0.078700
     30 H131        3.8980   -0.6640    0.9330 hc        1 PLK      0.025533
     31 H132        2.8170    0.3530    1.9710 hc        1 PLK      0.025533
     32 H133        2.5060   -1.4270    1.8080 hc        1 PLK      0.025533
     33 H141        1.5020   -2.2760   -0.5020 hc        1 PLK      0.026700
     34 H142        3.1130   -1.6700   -1.0580 hc        1 PLK      0.026700
     35 H15         0.3530   -0.7480   -2.1260 h1        1 PLK      0.033700
     36 H161        2.3940   -2.7570   -3.3060 hc        1 PLK      0.031200
     37 H162        0.8300   -3.1520   -2.4830 hc        1 PLK      0.031200
     38 H11         3.3530    2.6610    1.1630 ho        1 PLK      0.424000
     39 H211        1.0770    1.5630   -2.1480 h1        1 PLK      0.040700
     40 H212        0.4400    1.0100   -3.7560 h1        1 PLK      0.040700
     41 H21         1.3810    0.6050   -5.6070 ho        1 PLK      0.484000
     42 H251        1.9110    3.6180   -7.8090 hc        1 PLK      0.035367
     43 H252        3.2190    2.3690   -7.7860 hc        1 PLK      0.035367
     44 H253        3.6530    4.1370   -7.8340 hc        1 PLK      0.035367
     45 H26         3.9680    5.1400   -3.3490 h4        1 PLK      0.045100
     46 H281        3.2760    2.4200   -1.2680 h1        1 PLK      0.049200
     47 H282        1.7320    3.4170   -1.2830 h1        1 PLK      0.049200
     48 H114        2.4790   -0.3510   -3.8860 hn        1 PLK      0.386800
@<TRIPOS>BOND
     1    1    2 1   
     2    1   26 1   
     3    1   27 1   
     4    1   28 1   
     5    2    3 1   
     6    2    4 1   
     7    2   29 1   
     8    3   30 1   
     9    3   31 1   
    10    3   32 1   
    11    4    5 1   
    12    4   33 1   
    13    4   34 1   
    14    5    6 1   
    15    5   10 1   
    16    5   35 1   
    17    6    7 1   
    18    6   36 1   
    19    6   37 1   
    20    7    8 1   
    21    7    9 1   
    22   10   11 1   
    23   10   48 1   
    24   11   12 1   
    25   11   39 1   
    26   11   40 1   
    27   12   13 ar  
    28   12   19 ar  
    29   13   14 1   
    30   13   15 ar  
    31   14   41 1   
    32   15   16 1   
    33   15   17 ar  
    34   16   42 1   
    35   16   43 1   
    36   16   44 1   
    37   17   18 ar  
    38   18   19 ar  
    39   18   45 1   
    40   19   20 1   
    41   20   21 1   
    42   20   46 1   
    43   20   47 1   
    44   21   22 1   
    45   22   23 1   
    46   22   24 1   
    47   22   25 1   
    48   25   38 1   
@<TRIPOS>SUBSTRUCTURE
     1 PLK         1 TEMP              0 ****  ****    0 ROOT
