@<TRIPOS>MOLECULE
PLK
   47    47     1     0     0
SMALL
bcc


@<TRIPOS>ATOM
      1 C11         0.7230   -3.4390   -1.8140 c3        1 PLK     -0.082600
      2 C12         0.6480   -3.2890   -0.3090 c3        1 PLK     -0.076700
      3 C13         0.1200   -4.5680    0.3120 c3        1 PLK     -0.082600
      4 C14         2.0030   -2.9510    0.2900 c3        1 PLK     -0.099400
      5 C15         2.5840   -1.5930   -0.1410 c3        1 PLK      0.185500
      6 C16         4.0100   -1.4980    0.4310 c3        1 PLK     -0.177400
      7 C17         4.9620   -2.5340   -0.1800 c         1 PLK      0.901600
      8 O11         5.7020   -3.1980    0.6100 o         1 PLK     -0.868800
      9 O12         5.0160   -2.6730   -1.4380 o         1 PLK     -0.868800
     10 N11         1.7940   -0.4290    0.2590 n3        1 PLK     -0.853200
     11 C21         0.9180    0.1150   -0.7660 c3        1 PLK      0.209100
     12 C22         0.2110    1.3680   -0.3300 ca        1 PLK     -0.157300
     13 C23         0.9690    2.5450   -0.1060 ca        1 PLK     -0.000200
     14 O21         2.3430    2.6000   -0.2340 oh        1 PLK     -0.546100
     15 C24         0.3240    3.7540    0.2300 ca        1 PLK      0.302600
     16 C25         1.1530    4.9740    0.4510 c3        1 PLK     -0.106400
     17 N21        -1.0340    3.8330    0.3310 nb        1 PLK     -0.682000
     18 C26        -1.7440    2.7250    0.1280 ca        1 PLK      0.371200
     19 C27        -1.1740    1.4520   -0.1850 ca        1 PLK     -0.142600
     20 C28        -2.1340    0.2970   -0.3660 c3        1 PLK      0.243700
     21 O22        -3.2410    0.3940    0.4350 os        1 PLK     -0.563200
     22 P          -4.7420    0.7790   -0.3530 p5        1 PLK      1.315900
     23 O1P        -4.6810    2.2870   -0.3070 o         1 PLK     -0.923833
     24 O2P        -4.5540    0.1720   -1.7190 o         1 PLK     -0.923833
     25 O3P        -5.7640    0.1270    0.5320 o         1 PLK     -0.923833
     26 H111        0.9860   -2.4610   -2.2870 hc        1 PLK      0.024200
     27 H112        1.5020   -4.1870   -2.0960 hc        1 PLK      0.024200
     28 H113       -0.2620   -3.7720   -2.2200 hc        1 PLK      0.024200
     29 H12        -0.0830   -2.4630   -0.0690 hc        1 PLK      0.070700
     30 H131        0.8100   -5.4200    0.1010 hc        1 PLK      0.024200
     31 H132        0.0280   -4.4530    1.4190 hc        1 PLK      0.024200
     32 H133       -0.8870   -4.8130   -0.1030 hc        1 PLK      0.024200
     33 H141        1.9180   -2.9760    1.4090 hc        1 PLK      0.045200
     34 H142        2.7490   -3.7350   -0.0090 hc        1 PLK      0.045200
     35 H15         2.6900   -1.6030   -1.2670 h1        1 PLK      0.069700
     36 H161        4.4340   -0.4850    0.2120 hc        1 PLK      0.025200
     37 H162        3.9860   -1.6310    1.5410 hc        1 PLK      0.025200
     38 H11         1.2740   -0.6220    1.0930 hn        1 PLK      0.360800
     39 H211        1.5660    0.3720   -1.6570 h1        1 PLK      0.036200
     40 H212        0.1560   -0.6340   -1.1310 h1        1 PLK      0.036200
     41 H21         2.6900    1.6990   -0.1560 ho        1 PLK      0.438000
     42 H251        1.4370    5.4200   -0.5350 hc        1 PLK      0.019367
     43 H252        0.6110    5.7480    1.0470 hc        1 PLK      0.019367
     44 H253        2.0930    4.6950    0.9890 hc        1 PLK      0.019367
     45 H26        -2.8840    2.7730    0.1740 h4        1 PLK      0.151100
     46 H281       -2.4320    0.2570   -1.4590 h1        1 PLK      0.019200
     47 H282       -1.5790   -0.6560   -0.1030 h1        1 PLK      0.019200
@<TRIPOS>BOND
     1    1    2 1   
     2    1   26 1   
     3    1   27 1   
     4    1   28 1   
     5    2    3 1   
     6    2    4 1   
     7    2   29 1   
     8    3   30 1   
     9    3   31 1   
    10    3   32 1   
    11    4    5 1   
    12    4   33 1   
    13    4   34 1   
    14    5    6 1   
    15    5   10 1   
    16    5   35 1   
    17    6    7 1   
    18    6   36 1   
    19    6   37 1   
    20    7    8 1   
    21    7    9 1   
    22   10   11 1   
    23   10   38 1   
    24   11   12 1   
    25   11   39 1   
    26   11   40 1   
    27   12   13 ar  
    28   12   19 ar  
    29   13   14 1   
    30   13   15 ar  
    31   14   41 1   
    32   15   16 1   
    33   15   17 ar  
    34   16   42 1   
    35   16   43 1   
    36   16   44 1   
    37   17   18 ar  
    38   18   19 ar  
    39   18   45 1   
    40   19   20 1   
    41   20   21 1   
    42   20   46 1   
    43   20   47 1   
    44   21   22 1   
    45   22   23 1   
    46   22   24 1   
    47   22   25 1   
@<TRIPOS>SUBSTRUCTURE
     1 PLK         1 TEMP              0 ****  ****    0 ROOT
