@<TRIPOS>MOLECULE
PLK
   47    45     1     0     0
SMALL
bcc


@<TRIPOS>ATOM
      1 C11        -2.1730   -3.8260    2.1270 c3        1 PLK     -0.199000
      2 C12        -1.4260   -2.6640    2.7580 c3        1 PLK     -0.130000
      3 C13        -0.9040   -3.0810    4.0980 c3        1 PLK     -0.199000
      4 C14        -0.2250   -2.2560    1.8350 c3        1 PLK     -0.146000
      5 C15        -0.6210   -1.0950    0.9510 c3        1 PLK     -0.007000
      6 C16        -0.8990   -1.6110   -0.4720 c3        1 PLK     -0.237000
      7 C17        -2.4000   -1.5560   -0.7510 c2        1 PLK      0.328000
      8 O11        -2.8950   -0.5620   -1.3530 o         1 PLK     -0.601500
      9 O12        -3.1310   -2.4300   -0.3150 o         1 PLK     -0.601500
     10 N11         0.4500   -0.1380    0.9110 n3        1 PLK     -0.350000
     11 C21        -0.0450    1.1170    0.3310 c3        1 PLK     -0.026000
     12 C22         1.0830    1.7920   -0.5180 c2        1 PLK     -0.138000
     13 C23         2.3840    1.7870   -0.0680 c2        1 PLK      0.018000
     14 O21         2.6870    1.2490    1.2030 oh        1 PLK     -0.305000
     15 C24         3.3670    2.4590   -0.7860 c1        1 PLK     -0.119000
     16 C25         4.8440    2.3370   -0.3670 c2        1 PLK     -0.130000
     17 N21         3.0360    3.1310   -1.9480 n2        1 PLK     -0.158000
     18 C26         1.7490    3.1360   -2.3930 c1        1 PLK     -0.097000
     19 C27         0.7590    2.4630   -1.6770 c1        1 PLK     -0.072000
     20 C28        -0.7110    2.6060   -2.0870 c3        1 PLK      0.089000
     21 O22        -0.7840    2.9800   -3.4360 os        1 PLK     -0.726000
     22 P          -1.9310    2.3470   -4.3400 p5        1 PLK      1.550500
     23 O1P        -1.8010    2.8560   -5.7390 o         1 PLK     -0.923500
     24 O2P        -1.8060    0.8770   -4.3420 o         1 PLK     -0.923500
     25 O3P        -3.3070    2.7450   -3.7700 o         1 PLK     -0.923500
     26 H111       -2.5660   -3.5420    1.3120 hc        1 PLK      0.058000
     27 H112       -2.8860   -4.1390    2.7480 hc        1 PLK      0.058000
     28 H113       -1.5520   -4.5550    1.9510 hc        1 PLK      0.058000
     29 H12        -2.0340   -1.9050    2.8660 hc        1 PLK      0.150000
     30 H131       -0.5250   -2.3210    4.5430 hc        1 PLK      0.058000
     31 H132       -0.2190   -3.7640    3.9800 hc        1 PLK      0.058000
     32 H133       -1.6550   -3.4520    4.6530 hc        1 PLK      0.058000
     33 H141        0.0240   -3.0140    1.2770 hc        1 PLK      0.078000
     34 H142        0.5410   -1.9970    2.3950 hc        1 PLK      0.078000
     35 H15        -1.4070   -0.6800    1.3000 h1        1 PLK      0.099000
     36 H161       -0.4360   -1.0660   -1.1080 hc        1 PLK      0.069000
     37 H162       -0.5750   -2.5710   -0.5500 hc        1 PLK      0.069000
     38 H11         1.1140   -0.4570    0.4100 hn        1 PLK      0.165000
     39 H211       -0.3160    1.7170    1.0450 h1        1 PLK      0.077000
     40 H212       -0.7950    0.9320   -0.2300 h1        1 PLK      0.077000
     41 H21         3.3070    0.6030    1.1130 ho        1 PLK      0.236000
     42 H251        5.1510    1.3910   -0.4940 ha        1 PLK      0.058000
     43 H252        4.9390    2.5890    0.5800 ha        1 PLK      0.058000
     44 H253        5.3860    2.9290   -0.9130 ha        1 PLK      0.058000
     45 H26         1.5140    3.6210   -3.2290 ha        1 PLK      0.290000
     46 H281       -1.1820    1.7340   -1.9570 h1        1 PLK      0.058000
     47 H282       -1.1300    3.2800   -1.5430 h1        1 PLK      0.058000
@<TRIPOS>BOND
     1    1    2 1   
     2    1   26 1   
     3    1   27 1   
     4    1   28 1   
     5    2    3 1   
     6    2    4 1   
     7    2   29 1   
     8    3   30 1   
     9    3   31 1   
    10    3   32 1   
    11    4    5 1   
    12    4   33 1   
    13    4   34 1   
    14    5    6 1   
    15    5   10 1   
    16    5   35 1   
    17    6    7 1   
    18    6   36 1   
    19    6   37 1   
    20    7    8 1   
    21    7    9 1   
    22   10   11 1   
    23   10   38 1   
    24   11   12 1   
    25   11   39 1   
    26   11   40 1   
    27   12   13 1   
    28   12   19 1   
    29   13   14 1   
    30   13   15 1   
    31   14   41 1   
    32   15   17 1   
    33   16   42 1   
    34   16   43 1   
    35   16   44 1   
    36   17   18 1   
    37   18   45 1   
    38   19   20 1   
    39   20   21 1   
    40   20   46 1   
    41   20   47 1   
    42   21   22 1   
    43   22   23 1   
    44   22   24 1   
    45   22   25 1   
@<TRIPOS>SUBSTRUCTURE
     1 PLK         1 TEMP              0 ****  ****    0 ROOT
