@<TRIPOS>MOLECULE
PLK
   48    48     1     0     0
SMALL
bcc


@<TRIPOS>ATOM
      1 C11         0.4310   -0.1130    0.4640 c3        1 PLK     -0.085100
      2 C12         1.8560   -0.4380    0.0660 c3        1 PLK     -0.071700
      3 C13         2.6530   -0.8440    1.2900 c3        1 PLK     -0.085100
      4 C14         1.9140   -1.5420   -0.9760 c3        1 PLK     -0.065400
      5 C15         1.3440   -1.1530   -2.3540 c3        1 PLK      0.190500
      6 C16         1.2690   -2.4290   -3.2030 c3        1 PLK     -0.210400
      7 C17         0.5780   -2.2040   -4.5530 c         1 PLK      0.910600
      8 O11        -0.4390   -2.8990   -4.8280 o         1 PLK     -0.859800
      9 O12         1.0740   -1.3540   -5.3580 o         1 PLK     -0.859800
     10 N11         2.1320   -0.0870   -2.9770 n3        1 PLK     -0.818200
     11 C21         1.4090    1.1710   -3.0790 c3        1 PLK      0.201100
     12 C22         2.1910    2.2440   -3.7800 ca        1 PLK     -0.128300
     13 C23         2.1800    2.3240   -5.1880 ca        1 PLK      0.034800
     14 O21         1.4790    1.4840   -6.0100 oh        1 PLK     -0.525100
     15 C24         2.8950    3.3690   -5.8430 ca        1 PLK      0.331600
     16 C25         2.8410    3.4280   -7.3340 c3        1 PLK     -0.120400
     17 N21         3.5980    4.2930   -5.1500 nb        1 PLK     -0.672000
     18 C26         3.6050    4.2030   -3.8120 ca        1 PLK      0.361200
     19 C27         2.9230    3.2100   -3.0730 ca        1 PLK     -0.137600
     20 C28         2.9980    3.1990   -1.5760 c3        1 PLK      0.217700
     21 O22         3.8300    4.2090   -1.0920 os        1 PLK     -0.584200
     22 P           3.3040    5.0990    0.1970 p5        1 PLK      1.426800
     23 O1P         4.1110    6.3370    0.2110 o         1 PLK     -0.837500
     24 O2P         1.8350    4.9960    0.2910 o         1 PLK     -0.837500
     25 O3P         3.9960    4.1860    1.3640 oh        1 PLK     -0.779400
     26 H111       -0.1340    0.2910   -0.4110 hc        1 PLK      0.024533
     27 H112       -0.0940   -1.0250    0.8360 hc        1 PLK      0.024533
     28 H113        0.4230    0.6590    1.2710 hc        1 PLK      0.024533
     29 H12         2.3270    0.4940   -0.3620 hc        1 PLK      0.081700
     30 H131        2.6350   -0.0270    2.0520 hc        1 PLK      0.024533
     31 H132        3.7160   -1.0440    1.0130 hc        1 PLK      0.024533
     32 H133        2.2280   -1.7690    1.7490 hc        1 PLK      0.024533
     33 H141        2.9800   -1.8680   -1.1020 hc        1 PLK      0.025700
     34 H142        1.3330   -2.4260   -0.6030 hc        1 PLK      0.025700
     35 H15         0.2770   -0.8080   -2.1880 h1        1 PLK      0.032700
     36 H161        2.2990   -2.8220   -3.3970 hc        1 PLK      0.030700
     37 H162        0.7000   -3.2060   -2.6330 hc        1 PLK      0.030700
     38 H11         2.4260   -0.3820   -3.8950 hn        1 PLK      0.389800
     39 H211        0.4210    1.0510   -3.6220 h1        1 PLK      0.039700
     40 H212        1.1640    1.5090   -2.0300 h1        1 PLK      0.039700
     41 H21         1.2810    0.6460   -5.5460 ho        1 PLK      0.483000
     42 H251        3.6230    4.1010   -7.7600 hc        1 PLK      0.035700
     43 H252        2.9790    2.3970   -7.7460 hc        1 PLK      0.035700
     44 H253        1.8350    3.7970   -7.6510 hc        1 PLK      0.035700
     45 H26         4.1970    4.9680   -3.2740 h4        1 PLK      0.043100
     46 H281        1.9610    3.3200   -1.1420 h1        1 PLK      0.054700
     47 H282        3.4210    2.1970   -1.2650 h1        1 PLK      0.054700
     48 H114        4.9000    4.4360    1.5100 ho        1 PLK      0.419000
@<TRIPOS>BOND
     1    1    2 1   
     2    1   26 1   
     3    1   27 1   
     4    1   28 1   
     5    2    3 1   
     6    2    4 1   
     7    2   29 1   
     8    3   30 1   
     9    3   31 1   
    10    3   32 1   
    11    4    5 1   
    12    4   33 1   
    13    4   34 1   
    14    5    6 1   
    15    5   10 1   
    16    5   35 1   
    17    6    7 1   
    18    6   36 1   
    19    6   37 1   
    20    7    8 1   
    21    7    9 1   
    22   10   11 1   
    23   10   38 1   
    24   11   12 1   
    25   11   39 1   
    26   11   40 1   
    27   12   13 ar  
    28   12   19 ar  
    29   13   14 1   
    30   13   15 ar  
    31   14   41 1   
    32   15   16 1   
    33   15   17 ar  
    34   16   42 1   
    35   16   43 1   
    36   16   44 1   
    37   17   18 ar  
    38   18   19 ar  
    39   18   45 1   
    40   19   20 1   
    41   20   21 1   
    42   20   46 1   
    43   20   47 1   
    44   21   22 1   
    45   22   23 1   
    46   22   24 1   
    47   22   25 1   
    48   25   48 1   
@<TRIPOS>SUBSTRUCTURE
     1 PLK         1 TEMP              0 ****  ****    0 ROOT
