@<TRIPOS>MOLECULE
PLM
   49    48     1     0     0
SMALL
bcc


@<TRIPOS>ATOM
      1 C1          0.0260   -0.1310    0.0410 c         1 PLM      0.907600
      2 O1          1.0210    0.6260    0.2320 o         1 PLM     -0.853800
      3 O2         -0.3520   -1.0180    0.8610 o         1 PLM     -0.853800
      4 C2         -0.7500    0.0270   -1.2790 c3        1 PLM     -0.193400
      5 C3         -2.2400    0.0430   -1.0420 c3        1 PLM     -0.065400
      6 C4         -3.0200    0.0130   -2.3400 c3        1 PLM     -0.078400
      7 C5         -4.5130    0.0480   -2.0910 c3        1 PLM     -0.078400
      8 C6         -5.2930    0.0090   -3.3880 c3        1 PLM     -0.078400
      9 C7         -6.7850    0.0450   -3.1360 c3        1 PLM     -0.079400
     10 C8         -7.5650    0.0060   -4.4330 c3        1 PLM     -0.078400
     11 C9         -9.0570    0.0430   -4.1800 c3        1 PLM     -0.079400
     12 CA         -9.8370    0.0030   -5.4770 c3        1 PLM     -0.078400
     13 CB        -11.3290    0.0400   -5.2240 c3        1 PLM     -0.079400
     14 CC        -12.1080   -0.0000   -6.5210 c3        1 PLM     -0.078400
     15 CD        -13.6000    0.0370   -6.2680 c3        1 PLM     -0.079400
     16 CE        -14.3790   -0.0030   -7.5650 c3        1 PLM     -0.079400
     17 CF        -15.8720    0.0340   -7.3130 c3        1 PLM     -0.080400
     18 CG        -16.6520   -0.0050   -8.6010 c3        1 PLM     -0.092100
     19 H21        -0.4260    0.9690   -1.7890 hc        1 PLM      0.018700
     20 H22        -0.4780   -0.8340   -1.9410 hc        1 PLM      0.018700
     21 H31        -2.5160    0.9620   -0.4620 hc        1 PLM      0.043700
     22 H32        -2.5120   -0.8420   -0.4070 hc        1 PLM      0.043700
     23 H41        -2.7250    0.8880   -2.9770 hc        1 PLM      0.025700
     24 H42        -2.7580   -0.9150   -2.9130 hc        1 PLM      0.025700
     25 H51        -4.7760    0.9790   -1.5220 hc        1 PLM      0.036700
     26 H52        -4.8050   -0.8240   -1.4490 hc        1 PLM      0.036700
     27 H61        -5.0300   -0.9220   -3.9550 hc        1 PLM      0.034200
     28 H62        -4.9990    0.8800   -4.0300 hc        1 PLM      0.034200
     29 H71        -7.0790   -0.8260   -2.4940 hc        1 PLM      0.037200
     30 H72        -7.0470    0.9770   -2.5680 hc        1 PLM      0.037200
     31 H81        -7.2710    0.8770   -5.0750 hc        1 PLM      0.036700
     32 H82        -7.3030   -0.9260   -5.0000 hc        1 PLM      0.036700
     33 H91        -9.3190    0.9740   -3.6120 hc        1 PLM      0.038200
     34 H92        -9.3510   -0.8290   -3.5380 hc        1 PLM      0.038200
     35 HA1        -9.5420    0.8740   -6.1190 hc        1 PLM      0.037700
     36 HA2        -9.5740   -0.9290   -6.0450 hc        1 PLM      0.037700
     37 HB1       -11.5910    0.9710   -4.6560 hc        1 PLM      0.038700
     38 HB2       -11.6220   -0.8320   -4.5820 hc        1 PLM      0.038700
     39 HC1       -11.8140    0.8720   -7.1630 hc        1 PLM      0.038700
     40 HC2       -11.8460   -0.9310   -7.0890 hc        1 PLM      0.038700
     41 HD1       -13.8620    0.9680   -5.7000 hc        1 PLM      0.038700
     42 HD2       -13.8940   -0.8350   -5.6260 hc        1 PLM      0.038700
     43 HE1       -14.0850    0.8690   -8.2070 hc        1 PLM      0.038700
     44 HE2       -14.1170   -0.9340   -8.1330 hc        1 PLM      0.038700
     45 HF1       -16.1310    0.9650   -6.7430 hc        1 PLM      0.037700
     46 HF2       -16.1630   -0.8380   -6.6690 hc        1 PLM      0.037700
     47 HG1       -16.3930    0.8690   -9.2460 hc        1 PLM      0.031033
     48 HG2       -17.7490    0.0230   -8.3930 hc        1 PLM      0.031033
     49 HG3       -16.4250   -0.9390   -9.1710 hc        1 PLM      0.031033
@<TRIPOS>BOND
     1    1    2 1   
     2    1    3 1   
     3    1    4 1   
     4    4    5 1   
     5    4   19 1   
     6    4   20 1   
     7    5    6 1   
     8    5   21 1   
     9    5   22 1   
    10    6    7 1   
    11    6   23 1   
    12    6   24 1   
    13    7    8 1   
    14    7   25 1   
    15    7   26 1   
    16    8    9 1   
    17    8   27 1   
    18    8   28 1   
    19    9   10 1   
    20    9   29 1   
    21    9   30 1   
    22   10   11 1   
    23   10   31 1   
    24   10   32 1   
    25   11   12 1   
    26   11   33 1   
    27   11   34 1   
    28   12   13 1   
    29   12   35 1   
    30   12   36 1   
    31   13   14 1   
    32   13   37 1   
    33   13   38 1   
    34   14   15 1   
    35   14   39 1   
    36   14   40 1   
    37   15   16 1   
    38   15   41 1   
    39   15   42 1   
    40   16   17 1   
    41   16   43 1   
    42   16   44 1   
    43   17   18 1   
    44   17   45 1   
    45   17   46 1   
    46   18   47 1   
    47   18   48 1   
    48   18   49 1   
@<TRIPOS>SUBSTRUCTURE
     1 PLM         1 TEMP              0 ****  ****    0 ROOT
