@<TRIPOS>MOLECULE
PLO
   55    58     1     0     0
SMALL
bcc


@<TRIPOS>ATOM
      1 C1          1.4500   -0.6910   -2.8210 c3        1 PLO     -0.070400
      2 C2          1.5360   -0.3540   -4.2920 c3        1 PLO     -0.075400
      3 C3          0.1670   -0.4930   -4.9430 c3        1 PLO      0.145100
      4 O3          0.3210   -0.1130   -6.3060 oh        1 PLO     -0.600800
      5 C4         -0.8530    0.4020   -4.2430 c3        1 PLO     -0.076200
      6 C5         -0.8810    0.1720   -2.7700 c2        1 PLO     -0.105400
      7 C6         -2.0540    0.0030   -2.1420 c2        1 PLO     -0.167200
      8 C7         -2.2010   -0.2070   -0.6860 c3        1 PLO     -0.042200
      9 C8         -0.9410    0.1630    0.0820 c3        1 PLO     -0.047700
     10 C9          0.2940   -0.4050   -0.6320 c3        1 PLO     -0.048700
     11 C10         0.4470    0.1860   -2.0530 c3        1 PLO      0.000200
     12 C11         1.5670   -0.2390    0.1910 c3        1 PLO     -0.074400
     13 C12         1.4470   -0.7120    1.6310 c3        1 PLO     -0.066400
     14 C13         0.2600   -0.0480    2.3090 c3        1 PLO     -0.038000
     15 C14        -0.9930   -0.4170    1.4800 c3        1 PLO     -0.061700
     16 C15        -2.1600   -0.0630    2.3900 c3        1 PLO     -0.073400
     17 C16        -1.6470   -0.3580    3.8030 c3        1 PLO     -0.075400
     18 C17        -0.1320   -0.6120    3.6970 c3        1 PLO     -0.164700
     19 C18         0.4850    1.4500    2.4310 c3        1 PLO     -0.091100
     20 C19         0.9640    1.6210   -2.0030 c3        1 PLO     -0.084100
     21 C20         0.6430   -0.0020    4.8350 c         1 PLO      0.576100
     22 C21         1.8960   -0.7280    5.2140 c3        1 PLO     -0.204100
     23 O20         0.2720    1.0100    5.4380 o         1 PLO     -0.534100
     24 H11         1.1540   -1.7670   -2.7070 hc        1 PLO      0.044700
     25 H12         2.4670   -0.5680   -2.3640 hc        1 PLO      0.044700
     26 H21         2.2580   -1.0430   -4.8010 hc        1 PLO      0.056200
     27 H22         1.9100    0.6930   -4.4360 hc        1 PLO      0.056200
     28 H3         -0.1750   -1.5660   -4.8970 h1        1 PLO      0.035700
     29 HO3        -0.5550   -0.1520   -6.7060 ho        1 PLO      0.398000
     30 H41        -1.8670    0.2200   -4.6900 hc        1 PLO      0.052200
     31 H42        -0.5920    1.4760   -4.4470 hc        1 PLO      0.052200
     32 H6         -3.0000    0.0020   -2.7090 ha        1 PLO      0.120000
     33 H71        -2.4580   -1.2870   -0.5030 hc        1 PLO      0.049700
     34 H72        -3.0600    0.4040   -0.2970 hc        1 PLO      0.049700
     35 H8         -0.8690    1.2830    0.1320 hc        1 PLO      0.061700
     36 H9          0.1150   -1.5130   -0.7530 hc        1 PLO      0.047700
     37 H111        1.8780    0.8390    0.1990 hc        1 PLO      0.044200
     38 H112        2.3930   -0.8200   -0.3000 hc        1 PLO      0.044200
     39 H121        2.3940   -0.4630    2.1770 hc        1 PLO      0.039700
     40 H122        1.3230   -1.8260    1.6580 hc        1 PLO      0.039700
     41 H14        -0.9960   -1.5430    1.3680 hc        1 PLO      0.045700
     42 H151       -3.0630   -0.6720    2.1460 hc        1 PLO      0.045700
     43 H152       -2.4350    1.0160    2.2840 hc        1 PLO      0.045700
     44 H161       -2.1550   -1.2560    4.2300 hc        1 PLO      0.055700
     45 H162       -1.8490    0.5100    4.4810 hc        1 PLO      0.055700
     46 H17         0.0590   -1.7200    3.6970 hc        1 PLO      0.061700
     47 H181        0.5750    1.9350    1.4310 hc        1 PLO      0.043700
     48 H182       -0.3640    1.9230    2.9840 hc        1 PLO      0.043700
     49 H183        1.4260    1.6450    3.0020 hc        1 PLO      0.043700
     50 H191        0.8470    2.1140   -2.9980 hc        1 PLO      0.038367
     51 H192        0.4010    2.2170   -1.2460 hc        1 PLO      0.038367
     52 H193        2.0490    1.6360   -1.7380 hc        1 PLO      0.038367
     53 H211        2.5090   -0.1180    5.9220 hc        1 PLO      0.063367
     54 H212        1.6270   -1.6920    5.7100 hc        1 PLO      0.063367
     55 H213        2.5010   -0.9520    4.3020 hc        1 PLO      0.063367
@<TRIPOS>BOND
     1    1    2 1   
     2    1   11 1   
     3    1   24 1   
     4    1   25 1   
     5    2    3 1   
     6    2   26 1   
     7    2   27 1   
     8    3    4 1   
     9    3    5 1   
    10    3   28 1   
    11    4   29 1   
    12    5    6 1   
    13    5   30 1   
    14    5   31 1   
    15    6    7 2   
    16    6   11 1   
    17    7    8 1   
    18    7   32 1   
    19    8    9 1   
    20    8   33 1   
    21    8   34 1   
    22    9   10 1   
    23    9   15 1   
    24    9   35 1   
    25   10   11 1   
    26   10   12 1   
    27   10   36 1   
    28   11   20 1   
    29   12   13 1   
    30   12   37 1   
    31   12   38 1   
    32   13   14 1   
    33   13   39 1   
    34   13   40 1   
    35   14   15 1   
    36   14   18 1   
    37   14   19 1   
    38   15   16 1   
    39   15   41 1   
    40   16   17 1   
    41   16   42 1   
    42   16   43 1   
    43   17   18 1   
    44   17   44 1   
    45   17   45 1   
    46   18   21 1   
    47   18   46 1   
    48   19   47 1   
    49   19   48 1   
    50   19   49 1   
    51   20   50 1   
    52   20   51 1   
    53   20   52 1   
    54   21   22 1   
    55   21   23 2   
    56   22   53 1   
    57   22   54 1   
    58   22   55 1   
@<TRIPOS>SUBSTRUCTURE
     1 PLO         1 TEMP              0 ****  ****    0 ROOT
