@<TRIPOS>MOLECULE
PLO
   55    58     1     0     0
SMALL
bcc


@<TRIPOS>ATOM
      1 C1          0.0620   -0.2290   -0.2040 c3        1 PLO     -0.070400
      2 C2          1.5410    0.0670   -0.1180 c3        1 PLO     -0.075400
      3 C3          1.9420    0.3240    1.3290 c3        1 PLO      0.145100
      4 O3          3.3480    0.5430    1.3320 oh        1 PLO     -0.600800
      5 C4          1.5780   -0.8720    2.2050 c3        1 PLO     -0.076200
      6 C5          0.1460   -1.2600    2.0560 c2        1 PLO     -0.105400
      7 C6         -0.6060   -1.4740    3.1450 c2        1 PLO     -0.167200
      8 C7         -2.0250   -1.8860    3.1150 c3        1 PLO     -0.042200
      9 C8         -2.4470   -2.4090    1.7510 c3        1 PLO     -0.047700
     10 C9         -1.9150   -1.4850    0.6460 c3        1 PLO     -0.048700
     11 C10        -0.3690   -1.4330    0.6480 c3        1 PLO      0.000200
     12 C11        -2.4690   -1.8450   -0.7290 c3        1 PLO     -0.074400
     13 C12        -3.9810   -2.0070   -0.7700 c3        1 PLO     -0.066400
     14 C13        -4.4350   -3.0010    0.2860 c3        1 PLO     -0.038000
     15 C14        -3.9580   -2.4520    1.6510 c3        1 PLO     -0.061700
     16 C15        -4.7490   -3.2550    2.6730 c3        1 PLO     -0.073400
     17 C16        -6.1010   -3.5070    2.0000 c3        1 PLO     -0.075400
     18 C17        -5.9630   -3.0860    0.5250 c3        1 PLO     -0.164700
     19 C18        -3.9060   -4.3910   -0.0250 c3        1 PLO     -0.091100
     20 C19         0.2270   -2.7090    0.0590 c3        1 PLO     -0.084100
     21 C20        -6.6680   -4.0250   -0.4190 c         1 PLO      0.576100
     22 C21        -7.1890   -3.3960   -1.6730 c3        1 PLO     -0.204100
     23 O20        -6.8320   -5.2250   -0.1780 o         1 PLO     -0.534100
     24 H11        -0.2030   -0.4260   -1.2760 hc        1 PLO      0.044700
     25 H12        -0.5140    0.6760    0.1270 hc        1 PLO      0.044700
     26 H21         1.7880    0.9700   -0.7340 hc        1 PLO      0.056200
     27 H22         2.1390   -0.7900   -0.5210 hc        1 PLO      0.056200
     28 H3          1.4250    1.2480    1.7140 h1        1 PLO      0.035700
     29 HO3         3.6090    0.6550    2.2530 ho        1 PLO      0.398000
     30 H41         2.2310   -1.7420    1.9200 hc        1 PLO      0.052200
     31 H42         1.8090   -0.6250    3.2760 hc        1 PLO      0.052200
     32 H6         -0.1850   -1.3360    4.1550 ha        1 PLO      0.120000
     33 H71        -2.2100   -2.6820    3.8860 hc        1 PLO      0.049700
     34 H72        -2.6620   -1.0020    3.3990 hc        1 PLO      0.049700
     35 H8         -2.0240   -3.4420    1.6180 hc        1 PLO      0.061700
     36 H9         -2.2800   -0.4450    0.8930 hc        1 PLO      0.047700
     37 H111       -2.0010   -2.7980   -1.0890 hc        1 PLO      0.044200
     38 H112       -2.1840   -1.0380   -1.4540 hc        1 PLO      0.044200
     39 H121       -4.4760   -1.0170   -0.5960 hc        1 PLO      0.039700
     40 H122       -4.2800   -2.3620   -1.7910 hc        1 PLO      0.039700
     41 H14        -4.3210   -1.3830    1.7240 hc        1 PLO      0.045700
     42 H151       -4.8670   -2.6900    3.6290 hc        1 PLO      0.045700
     43 H152       -4.2350   -4.2200    2.9060 hc        1 PLO      0.045700
     44 H161       -6.3770   -4.5900    2.0700 hc        1 PLO      0.055700
     45 H162       -6.9070   -2.9120    2.4920 hc        1 PLO      0.055700
     46 H17        -6.4020   -2.0600    0.3890 hc        1 PLO      0.061700
     47 H181       -4.2530   -4.7070   -1.0400 hc        1 PLO      0.043700
     48 H182       -2.7910   -4.4190   -0.0100 hc        1 PLO      0.043700
     49 H183       -4.2940   -5.1270    0.7220 hc        1 PLO      0.043700
     50 H191       -0.2680   -3.6110    0.4910 hc        1 PLO      0.038367
     51 H192        0.0980   -2.7250   -1.0500 hc        1 PLO      0.038367
     52 H193        1.3200   -2.7670    0.2780 hc        1 PLO      0.038367
     53 H211       -6.3970   -2.7650   -2.1440 hc        1 PLO      0.063367
     54 H212       -8.0620   -2.7450   -1.4230 hc        1 PLO      0.063367
     55 H213       -7.5190   -4.1770   -2.4010 hc        1 PLO      0.063367
@<TRIPOS>BOND
     1    1    2 1   
     2    1   11 1   
     3    1   24 1   
     4    1   25 1   
     5    2    3 1   
     6    2   26 1   
     7    2   27 1   
     8    3    4 1   
     9    3    5 1   
    10    3   28 1   
    11    4   29 1   
    12    5    6 1   
    13    5   30 1   
    14    5   31 1   
    15    6    7 2   
    16    6   11 1   
    17    7    8 1   
    18    7   32 1   
    19    8    9 1   
    20    8   33 1   
    21    8   34 1   
    22    9   10 1   
    23    9   15 1   
    24    9   35 1   
    25   10   11 1   
    26   10   12 1   
    27   10   36 1   
    28   11   20 1   
    29   12   13 1   
    30   12   37 1   
    31   12   38 1   
    32   13   14 1   
    33   13   39 1   
    34   13   40 1   
    35   14   15 1   
    36   14   18 1   
    37   14   19 1   
    38   15   16 1   
    39   15   41 1   
    40   16   17 1   
    41   16   42 1   
    42   16   43 1   
    43   17   18 1   
    44   17   44 1   
    45   17   45 1   
    46   18   21 1   
    47   18   46 1   
    48   19   47 1   
    49   19   48 1   
    50   19   49 1   
    51   20   50 1   
    52   20   51 1   
    53   20   52 1   
    54   21   22 1   
    55   21   23 2   
    56   22   53 1   
    57   22   54 1   
    58   22   55 1   
@<TRIPOS>SUBSTRUCTURE
     1 PLO         1 TEMP              0 ****  ****    0 ROOT
