@<TRIPOS>MOLECULE
PLO
   55    58     1     0     0
SMALL
bcc


@<TRIPOS>ATOM
      1 C1          0.0540   -0.2160   -0.2030 c3        1 PLO     -0.070400
      2 C2          1.5330    0.0830   -0.1220 c3        1 PLO     -0.075400
      3 C3          1.9410    0.3280    1.3240 c3        1 PLO      0.145100
      4 O3          3.3460    0.5500    1.3210 oh        1 PLO     -0.600800
      5 C4          1.5840   -0.8750    2.1930 c3        1 PLO     -0.076200
      6 C5          0.1520   -1.2650    2.0480 c2        1 PLO     -0.105400
      7 C6         -0.5940   -1.4890    3.1400 c2        1 PLO     -0.167200
      8 C7         -2.0130   -1.9030    3.1140 c3        1 PLO     -0.042200
      9 C8         -2.4400   -2.4170    1.7480 c3        1 PLO     -0.047700
     10 C9         -1.9160   -1.4820    0.6470 c3        1 PLO     -0.048700
     11 C10        -0.3700   -1.4280    0.6420 c3        1 PLO      0.000200
     12 C11        -2.4770   -1.8320   -0.7270 c3        1 PLO     -0.074400
     13 C12        -3.9880   -1.9980   -0.7620 c3        1 PLO     -0.066400
     14 C13        -4.4350   -3.0000    0.2890 c3        1 PLO     -0.038000
     15 C14        -3.9510   -2.4610    1.6550 c3        1 PLO     -0.061700
     16 C15        -4.7360   -3.2740    2.6760 c3        1 PLO     -0.073400
     17 C16        -6.0900   -3.5240    2.0070 c3        1 PLO     -0.075400
     18 C17        -5.9610   -3.0910    0.5350 c3        1 PLO     -0.164700
     19 C18        -3.9050   -4.3870   -0.0360 c3        1 PLO     -0.091100
     20 C19         0.2250   -2.6980    0.0400 c3        1 PLO     -0.084100
     21 C20        -6.6690   -4.0240   -0.4120 c         1 PLO      0.576100
     22 C21        -7.1980   -3.3860   -1.6590 c3        1 PLO     -0.204100
     23 O20        -6.8300   -5.2260   -0.1800 o         1 PLO     -0.534100
     24 H11        -0.5220    0.6850    0.1380 hc        1 PLO      0.044700
     25 H12        -0.2160   -0.4050   -1.2750 hc        1 PLO      0.044700
     26 H21         1.7750    0.9900   -0.7330 hc        1 PLO      0.056200
     27 H22         2.1310   -0.7710   -0.5350 hc        1 PLO      0.056200
     28 H3          1.4240    1.2480    1.7190 h1        1 PLO      0.035700
     29 HO3         3.6130    0.6550    2.2420 ho        1 PLO      0.398000
     30 H41         1.8200   -0.6350    3.2640 hc        1 PLO      0.052200
     31 H42         2.2370   -1.7410    1.8980 hc        1 PLO      0.052200
     32 H6         -0.1680   -1.3580    4.1480 ha        1 PLO      0.120000
     33 H71        -2.1910   -2.7050    3.8800 hc        1 PLO      0.049700
     34 H72        -2.6490   -1.0220    3.4070 hc        1 PLO      0.049700
     35 H8         -2.0150   -3.4470    1.6050 hc        1 PLO      0.061700
     36 H9         -2.2810   -0.4450    0.9050 hc        1 PLO      0.047700
     37 H111       -2.1960   -1.0190   -1.4480 hc        1 PLO      0.044200
     38 H112       -2.0090   -2.7820   -1.0980 hc        1 PLO      0.044200
     39 H121       -4.2920   -2.3450   -1.7840 hc        1 PLO      0.039700
     40 H122       -4.4850   -1.0100   -0.5780 hc        1 PLO      0.039700
     41 H14        -4.3160   -1.3930    1.7380 hc        1 PLO      0.045700
     42 H151       -4.2180   -4.2400    2.8980 hc        1 PLO      0.045700
     43 H152       -4.8490   -2.7160    3.6370 hc        1 PLO      0.045700
     44 H161       -6.8960   -2.9340    2.5080 hc        1 PLO      0.055700
     45 H162       -6.3640   -4.6070    2.0700 hc        1 PLO      0.055700
     46 H17        -6.4030   -2.0650    0.4090 hc        1 PLO      0.061700
     47 H181       -4.2560   -4.6960   -1.0520 hc        1 PLO      0.043700
     48 H182       -2.7900   -4.4130   -0.0280 hc        1 PLO      0.043700
     49 H183       -4.2870   -5.1290    0.7070 hc        1 PLO      0.043700
     50 H191        1.3200   -2.7560    0.2520 hc        1 PLO      0.038367
     51 H192       -0.2660   -3.6040    0.4670 hc        1 PLO      0.038367
     52 H193        0.0900   -2.7050   -1.0690 hc        1 PLO      0.038367
     53 H211       -6.4100   -2.7500   -2.1300 hc        1 PLO      0.063367
     54 H212       -7.5300   -4.1620   -2.3910 hc        1 PLO      0.063367
     55 H213       -8.0720   -2.7390   -1.3990 hc        1 PLO      0.063367
@<TRIPOS>BOND
     1    1    2 1   
     2    1   11 1   
     3    1   24 1   
     4    1   25 1   
     5    2    3 1   
     6    2   26 1   
     7    2   27 1   
     8    3    4 1   
     9    3    5 1   
    10    3   28 1   
    11    4   29 1   
    12    5    6 1   
    13    5   30 1   
    14    5   31 1   
    15    6    7 2   
    16    6   11 1   
    17    7    8 1   
    18    7   32 1   
    19    8    9 1   
    20    8   33 1   
    21    8   34 1   
    22    9   10 1   
    23    9   15 1   
    24    9   35 1   
    25   10   11 1   
    26   10   12 1   
    27   10   36 1   
    28   11   20 1   
    29   12   13 1   
    30   12   37 1   
    31   12   38 1   
    32   13   14 1   
    33   13   39 1   
    34   13   40 1   
    35   14   15 1   
    36   14   18 1   
    37   14   19 1   
    38   15   16 1   
    39   15   41 1   
    40   16   17 1   
    41   16   42 1   
    42   16   43 1   
    43   17   18 1   
    44   17   44 1   
    45   17   45 1   
    46   18   21 1   
    47   18   46 1   
    48   19   47 1   
    49   19   48 1   
    50   19   49 1   
    51   20   50 1   
    52   20   51 1   
    53   20   52 1   
    54   21   22 1   
    55   21   23 2   
    56   22   53 1   
    57   22   54 1   
    58   22   55 1   
@<TRIPOS>SUBSTRUCTURE
     1 PLO         1 TEMP              0 ****  ****    0 ROOT
