@<TRIPOS>MOLECULE
PLP
   24    24     1     0     0
SMALL
bcc


@<TRIPOS>ATOM
      1 N1          2.1860   -0.0240    1.9800 nb        1 PLP     -0.647000
      2 C2          1.3780   -0.0430    3.0750 ca        1 PLP      0.287600
      3 C2A         1.9710   -0.0540    4.4430 c3        1 PLP     -0.109400
      4 C3         -0.0330   -0.0540    2.9530 ca        1 PLP      0.062800
      5 O3         -0.7270   -0.0740    4.1390 oh        1 PLP     -0.533100
      6 C4         -0.6380   -0.0450    1.6710 ca        1 PLP     -0.294600
      7 C4A        -2.0860   -0.0550    1.4710 c         1 PLP      0.598500
      8 O4A        -2.9190   -0.0730    2.3950 o         1 PLP     -0.636100
      9 C5          0.2090   -0.0240    0.5470 ca        1 PLP     -0.041600
     10 C6          1.6160   -0.0140    0.7770 ca        1 PLP      0.360200
     11 C5A        -0.3010   -0.0120   -0.8590 c3        1 PLP      0.188700
     12 O4P         0.7100    0.0080   -1.7870 os        1 PLP     -0.556200
     13 P          -0.0570    0.0200   -3.3780 p5        1 PLP      1.307900
     14 O1P        -0.8740    1.2780   -3.2490 o         1 PLP     -0.923833
     15 O2P         1.1160    0.0410   -4.3110 o         1 PLP     -0.923833
     16 O3P        -0.8520   -1.2550   -3.2790 o         1 PLP     -0.923833
     17 H2A1        1.6110    0.8400    5.0100 hc        1 PLP      0.028033
     18 H2A2        1.6270   -0.9690    4.9880 hc        1 PLP      0.028033
     19 H2A3        3.0870   -0.0440    4.4220 hc        1 PLP      0.028033
     20 HO3        -1.6780   -0.0810    3.9490 ho        1 PLP      0.443000
     21 H4A        -2.4250   -0.0450    0.4070 h4        1 PLP      0.053200
     22 H6          2.2760    0.0020   -0.1170 h4        1 PLP      0.079100
     23 H5A1       -0.9430   -0.9330   -1.0280 h1        1 PLP      0.062700
     24 H5A2       -0.9590    0.9020   -1.0060 h1        1 PLP      0.062700
@<TRIPOS>BOND
     1    1    2 ar  
     2    1   10 ar  
     3    2    3 1   
     4    2    4 ar  
     5    3   17 1   
     6    3   18 1   
     7    3   19 1   
     8    4    5 1   
     9    4    6 ar  
    10    5   20 1   
    11    6    7 1   
    12    6    9 ar  
    13    7    8 2   
    14    7   21 1   
    15    9   10 ar  
    16    9   11 1   
    17   10   22 1   
    18   11   12 1   
    19   11   23 1   
    20   11   24 1   
    21   12   13 1   
    22   13   14 1   
    23   13   15 1   
    24   13   16 1   
@<TRIPOS>SUBSTRUCTURE
     1 PLP         1 TEMP              0 ****  ****    0 ROOT
