@<TRIPOS>MOLECULE
PLP
   24    24     1     0     0
SMALL
bcc


@<TRIPOS>ATOM
      1 N1         -0.0840    0.0230   -0.1020 nb        1 PLP     -0.647000
      2 C2          1.2770   -0.0260   -0.0840 ca        1 PLP      0.287600
      3 C2A         2.0420   -0.0320   -1.3630 c3        1 PLP     -0.109400
      4 C3          1.9980   -0.0740    1.1340 ca        1 PLP      0.062800
      5 O3          3.3660   -0.1210    1.0060 oh        1 PLP     -0.533100
      6 C4          1.3090   -0.0700    2.3720 ca        1 PLP     -0.294600
      7 C4A         1.9900   -0.1170    3.6660 c         1 PLP      0.598500
      8 O4A         3.2250   -0.1650    3.8030 o         1 PLP     -0.636100
      9 C5         -0.0970   -0.0190    2.3400 ca        1 PLP     -0.041600
     10 C6         -0.7290    0.0260    1.0620 ca        1 PLP      0.360200
     11 C5A        -0.9420   -0.0100    3.5730 c3        1 PLP      0.188700
     12 O4P        -2.2850    0.0440    3.2930 os        1 PLP     -0.556200
     13 P          -3.1310    0.0470    4.8440 p5        1 PLP      1.307900
     14 O1P        -2.5230    1.2820    5.4540 o         1 PLP     -0.923833
     15 O2P        -4.5720    0.1060    4.4340 o         1 PLP     -0.923833
     16 O3P        -2.6150   -1.2490    5.4100 o         1 PLP     -0.923833
     17 H2A1        1.3750    0.0090   -2.2570 hc        1 PLP      0.028033
     18 H2A2        2.6660   -0.9590   -1.4170 hc        1 PLP      0.028033
     19 H2A3        2.7320    0.8490   -1.3850 hc        1 PLP      0.028033
     20 HO3         3.7660   -0.1510    1.8890 ho        1 PLP      0.443000
     21 H4A         1.3230   -0.1090    4.5610 h4        1 PLP      0.053200
     22 H6         -1.8400    0.0670    1.0480 h4        1 PLP      0.079100
     23 H5A1       -0.7260   -0.9470    4.1770 h1        1 PLP      0.062700
     24 H5A2       -0.6600    0.8870    4.2090 h1        1 PLP      0.062700
@<TRIPOS>BOND
     1    1    2 ar  
     2    1   10 ar  
     3    2    3 1   
     4    2    4 ar  
     5    3   17 1   
     6    3   18 1   
     7    3   19 1   
     8    4    5 1   
     9    4    6 ar  
    10    5   20 1   
    11    6    7 1   
    12    6    9 ar  
    13    7    8 2   
    14    7   21 1   
    15    9   10 ar  
    16    9   11 1   
    17   10   22 1   
    18   11   12 1   
    19   11   23 1   
    20   11   24 1   
    21   12   13 1   
    22   13   14 1   
    23   13   15 1   
    24   13   16 1   
@<TRIPOS>SUBSTRUCTURE
     1 PLP         1 TEMP              0 ****  ****    0 ROOT
