@<TRIPOS>MOLECULE
PLQ
   12    12     1     0     0
SMALL
bcc


@<TRIPOS>ATOM
      1 O5         -2.6880    0.0000    0.0020 o         1 PLQ     -0.490100
      2 C5         -1.4530    0.0000    0.0020 c         1 PLQ      0.537500
      3 C6         -0.6690    1.2550    0.0010 cc        1 PLQ     -0.184200
      4 C4         -0.6690   -1.2550    0.0010 cc        1 PLQ     -0.184200
      5 C3          0.6690   -1.2550    0.0010 cd        1 PLQ     -0.184200
      6 C2          1.4530   -0.0000    0.0010 c         1 PLQ      0.537500
      7 O2          2.6880   -0.0000    0.0010 o         1 PLQ     -0.490100
      8 C1          0.6690    1.2550    0.0010 cd        1 PLQ     -0.184200
      9 H6         -1.2580    2.1870    0.0020 ha        1 PLQ      0.160000
     10 H4         -1.2580   -2.1870    0.0010 ha        1 PLQ      0.160000
     11 H3          1.2580   -2.1870    0.0010 ha        1 PLQ      0.160000
     12 H1          1.2580    2.1870    0.0010 ha        1 PLQ      0.160000
@<TRIPOS>BOND
     1    1    2 2   
     2    2    3 1   
     3    2    4 1   
     4    3    8 2   
     5    3    9 1   
     6    4    5 2   
     7    4   10 1   
     8    5    6 1   
     9    5   11 1   
    10    6    7 2   
    11    6    8 1   
    12    8   12 1   
@<TRIPOS>SUBSTRUCTURE
     1 PLQ         1 TEMP              0 ****  ****    0 ROOT
