@<TRIPOS>MOLECULE
PLR
   25    25     1     0     0
SMALL
bcc


@<TRIPOS>ATOM
      1 N1         -0.0770    0.0530   -0.0970 nb        1 PLR     -0.677000
      2 C2          1.2810   -0.0330   -0.0800 ca        1 PLR      0.315600
      3 C2A         2.0460   -0.0430   -1.3590 c3        1 PLR     -0.110400
      4 C3          1.9930   -0.1050    1.1390 ca        1 PLR     -0.016200
      5 O3          3.3720   -0.1880    1.0410 oh        1 PLR     -0.529100
      6 C4          1.3100   -0.0890    2.3750 ca        1 PLR     -0.163300
      7 C4A         2.0610   -0.1650    3.6480 c3        1 PLR     -0.050800
      8 C5         -0.0880   -0.0020    2.3470 ca        1 PLR     -0.089600
      9 C6         -0.7190    0.0660    1.0740 ca        1 PLR      0.380200
     10 C5A        -0.9210    0.0200    3.5920 c3        1 PLR      0.204700
     11 O4P        -2.2660    0.1030    3.3270 os        1 PLR     -0.560200
     12 P          -3.1090    0.1160    4.8730 p5        1 PLR      1.309900
     13 O1P        -2.4890    1.3360    5.5030 o         1 PLR     -0.928500
     14 O2P        -4.5470    0.2100    4.4560 o         1 PLR     -0.928500
     15 O3P        -2.6370   -1.1940    5.4450 o         1 PLR     -0.928500
     16 H2A1        2.8020   -0.8680   -1.3340 hc        1 PLR      0.025700
     17 H2A2        1.3850   -0.1850   -2.2470 hc        1 PLR      0.025700
     18 H2A3        2.5940    0.9250   -1.4720 hc        1 PLR      0.025700
     19 HO3         3.7190   -0.2880    1.9370 ho        1 PLR      0.404000
     20 H4A1        2.7950    0.6780    3.7230 hc        1 PLR      0.039033
     21 H4A2        2.6250   -1.1300    3.7150 hc        1 PLR      0.039033
     22 H4A3        1.3690   -0.1040    4.5270 hc        1 PLR      0.039033
     23 H6         -1.8290    0.1340    1.0590 h4        1 PLR      0.073100
     24 H5A1       -0.7140   -0.9220    4.1880 h1        1 PLR      0.049700
     25 H5A2       -0.6090    0.9080    4.2250 h1        1 PLR      0.049700
@<TRIPOS>BOND
     1    1    2 ar  
     2    1    9 ar  
     3    2    3 1   
     4    2    4 ar  
     5    3   16 1   
     6    3   17 1   
     7    3   18 1   
     8    4    5 1   
     9    4    6 ar  
    10    5   19 1   
    11    6    7 1   
    12    6    8 ar  
    13    7   20 1   
    14    7   21 1   
    15    7   22 1   
    16    8    9 ar  
    17    8   10 1   
    18    9   23 1   
    19   10   11 1   
    20   10   24 1   
    21   10   25 1   
    22   11   12 1   
    23   12   13 1   
    24   12   14 1   
    25   12   15 1   
@<TRIPOS>SUBSTRUCTURE
     1 PLR         1 TEMP              0 ****  ****    0 ROOT
