@<TRIPOS>MOLECULE
PLR
   25    25     1     0     0
SMALL
bcc


@<TRIPOS>ATOM
      1 N1         -0.0780    0.0770   -0.0960 nb        1 PLR     -0.677000
      2 C2          1.2800   -0.0140   -0.0800 ca        1 PLR      0.315600
      3 C2A         2.0440   -0.0140   -1.3610 c3        1 PLR     -0.110400
      4 C3          1.9920   -0.1000    1.1370 ca        1 PLR     -0.016200
      5 O3          3.3710   -0.1870    1.0380 oh        1 PLR     -0.529100
      6 C4          1.3100   -0.0940    2.3740 ca        1 PLR     -0.163300
      7 C4A         2.0620   -0.1840    3.6460 c3        1 PLR     -0.050800
      8 C5         -0.0880   -0.0020    2.3480 ca        1 PLR     -0.089600
      9 C6         -0.7200    0.0810    1.0760 ca        1 PLR      0.380200
     10 C5A        -0.9200    0.0120    3.5940 c3        1 PLR      0.204700
     11 O4P        -2.2650    0.1010    3.3300 os        1 PLR     -0.560200
     12 P          -3.1070    0.1020    4.8760 p5        1 PLR      1.309900
     13 O1P        -2.4830    1.3140    5.5180 o         1 PLR     -0.928500
     14 O2P        -4.5450    0.2050    4.4610 o         1 PLR     -0.928500
     15 O3P        -2.6390   -1.2150    5.4360 o         1 PLR     -0.928500
     16 H2A1        2.8070   -0.8310   -1.3370 hc        1 PLR      0.025700
     17 H2A2        1.3830   -0.1610   -2.2480 hc        1 PLR      0.025700
     18 H2A3        2.5820    0.9600   -1.4720 hc        1 PLR      0.025700
     19 HO3         3.7180   -0.3020    1.9330 ho        1 PLR      0.404000
     20 H4A1        2.8010    0.6530    3.7270 hc        1 PLR      0.039033
     21 H4A2        2.6200   -1.1530    3.7040 hc        1 PLR      0.039033
     22 H4A3        1.3710   -0.1260    4.5250 hc        1 PLR      0.039033
     23 H6         -1.8290    0.1530    1.0620 h4        1 PLR      0.073100
     24 H5A1       -0.7150   -0.9370    4.1800 h1        1 PLR      0.049700
     25 H5A2       -0.6050    0.8920    4.2350 h1        1 PLR      0.049700
@<TRIPOS>BOND
     1    1    2 ar  
     2    1    9 ar  
     3    2    3 1   
     4    2    4 ar  
     5    3   16 1   
     6    3   17 1   
     7    3   18 1   
     8    4    5 1   
     9    4    6 ar  
    10    5   19 1   
    11    6    7 1   
    12    6    8 ar  
    13    7   20 1   
    14    7   21 1   
    15    7   22 1   
    16    8    9 ar  
    17    8   10 1   
    18    9   23 1   
    19   10   11 1   
    20   10   24 1   
    21   10   25 1   
    22   11   12 1   
    23   12   13 1   
    24   12   14 1   
    25   12   15 1   
@<TRIPOS>SUBSTRUCTURE
     1 PLR         1 TEMP              0 ****  ****    0 ROOT
