@<TRIPOS>MOLECULE
PLR
   25    25     1     0     0
SMALL
bcc


@<TRIPOS>ATOM
      1 N1          1.8750   -0.0250    2.2590 nb        1 PLR     -0.677000
      2 C2          0.9910   -0.0580    3.2930 ca        1 PLR      0.315600
      3 C2A         1.4840   -0.0770    4.7000 c3        1 PLR     -0.110400
      4 C3         -0.4040   -0.0660    3.0620 ca        1 PLR     -0.016200
      5 O3         -1.2130   -0.0980    4.1850 oh        1 PLR     -0.529100
      6 C4         -0.9160   -0.0400    1.7460 ca        1 PLR     -0.163300
      7 C4A        -2.3780   -0.0480    1.5100 c3        1 PLR     -0.050800
      8 C5          0.0020   -0.0070    0.6880 ca        1 PLR     -0.089600
      9 C6          1.3860   -0.0020    1.0170 ca        1 PLR      0.380200
     10 C5A        -0.4220    0.0200   -0.7480 c3        1 PLR      0.204700
     11 O4P         0.6450    0.0430   -1.6140 os        1 PLR     -0.560200
     12 P          -0.0040    0.0700   -3.2500 p5        1 PLR      1.309900
     13 O1P        -0.8260    1.3310   -3.1900 o         1 PLR     -0.928500
     14 O2P         1.2390    0.0960   -4.0900 o         1 PLR     -0.928500
     15 O3P        -0.8070   -1.2040   -3.2400 o         1 PLR     -0.928500
     16 H2A1        1.2680    0.9080    5.1830 hc        1 PLR      0.025700
     17 H2A2        0.9430   -0.8700    5.2730 hc        1 PLR      0.025700
     18 H2A3        2.5820   -0.2720    4.7610 hc        1 PLR      0.025700
     19 HO3        -2.1280   -0.1590    3.8800 ho        1 PLR      0.404000
     20 H4A1       -2.8350   -0.9880    1.9110 hc        1 PLR      0.039033
     21 H4A2       -2.8630    0.8240    2.0180 hc        1 PLR      0.039033
     22 H4A3       -2.6080    0.0130    0.4160 hc        1 PLR      0.039033
     23 H6          2.1090    0.0230    0.1730 h4        1 PLR      0.073100
     24 H5A1       -1.0570   -0.8950   -0.9600 h1        1 PLR      0.049700
     25 H5A2       -1.0650    0.9380   -0.9230 h1        1 PLR      0.049700
@<TRIPOS>BOND
     1    1    2 ar  
     2    1    9 ar  
     3    2    3 1   
     4    2    4 ar  
     5    3   16 1   
     6    3   17 1   
     7    3   18 1   
     8    4    5 1   
     9    4    6 ar  
    10    5   19 1   
    11    6    7 1   
    12    6    8 ar  
    13    7   20 1   
    14    7   21 1   
    15    7   22 1   
    16    8    9 ar  
    17    8   10 1   
    18    9   23 1   
    19   10   11 1   
    20   10   24 1   
    21   10   25 1   
    22   11   12 1   
    23   12   13 1   
    24   12   14 1   
    25   12   15 1   
@<TRIPOS>SUBSTRUCTURE
     1 PLR         1 TEMP              0 ****  ****    0 ROOT
