@<TRIPOS>MOLECULE
PLS
   37    37     1     0     0
SMALL
bcc


@<TRIPOS>ATOM
      1 N           0.1750   -0.2340   -0.0130 n3        1 PLS     -0.807200
      2 CA          1.5920   -0.5330   -0.2100 c3        1 PLS     -0.004500
      3 CB          2.1550   -1.3280    0.9780 c3        1 PLS      0.149400
      4 OG          2.2210   -0.5770    2.1780 oh        1 PLS     -0.639800
      5 C           1.9520   -1.3130   -1.5110 c         1 PLS      0.897600
      6 O           1.0370   -1.5690   -2.3500 o         1 PLS     -0.846800
      7 OXT         3.1570   -1.6470   -1.6750 o         1 PLS     -0.846800
      8 N1         -4.6240    0.8370   -1.3750 nb        1 PLS     -0.674000
      9 C2         -3.8880   -0.1970   -1.8430 ca        1 PLS      0.330600
     10 C2A        -4.5520   -1.3500   -2.5180 c3        1 PLS     -0.119400
     11 C3         -2.4700   -0.2310   -1.7000 ca        1 PLS      0.030800
     12 O3         -1.8590   -1.3460   -2.2030 oh        1 PLS     -0.534100
     13 C4         -1.8020    0.8310   -1.0540 ca        1 PLS     -0.130300
     14 C4A        -0.3070    0.8040   -0.9160 c3        1 PLS      0.191100
     15 C5         -2.5780    1.8990   -0.5820 ca        1 PLS     -0.133600
     16 C6         -3.9780    1.8450   -0.7720 ca        1 PLS      0.366200
     17 C5A        -1.9740    3.0830    0.1050 c3        1 PLS      0.210700
     18 O4P        -2.9610    3.9780    0.5320 os        1 PLS     -0.573200
     19 P          -2.3780    5.4430    1.0210 p5        1 PLS      1.428800
     20 O1P        -3.5330    6.2760    1.4030 o         1 PLS     -0.840500
     21 O2P        -1.5530    4.9480    2.3450 oh        1 PLS     -0.786400
     22 O3P        -1.2820    5.8200    0.1000 o         1 PLS     -0.840500
     23 HN         -0.3510   -1.0790   -0.1670 hn        1 PLS      0.351800
     24 HA          2.1470    0.4490   -0.2580 h1        1 PLS      0.060700
     25 HB1         1.5490   -2.2560    1.1610 h1        1 PLS      0.042200
     26 HB2         3.2170   -1.6110    0.7470 h1        1 PLS      0.042200
     27 HOG         1.3940   -0.0880    2.2600 ho        1 PLS      0.409000
     28 H2A1       -5.6280   -1.1520   -2.7380 hc        1 PLS      0.034700
     29 H2A2       -4.0160   -1.5720   -3.4740 hc        1 PLS      0.034700
     30 H2A3       -4.4760   -2.2520   -1.8620 hc        1 PLS      0.034700
     31 HO3        -0.8920   -1.1990   -2.2770 ho        1 PLS      0.484000
     32 H4A1        0.1310    0.6900   -1.9560 h1        1 PLS      0.054200
     33 H4A2        0.0610    1.7870   -0.5060 h1        1 PLS      0.054200
     34 H6         -4.6040    2.6790   -0.4000 h4        1 PLS      0.047100
     35 H5A1       -1.2740    3.6220   -0.5990 h1        1 PLS      0.047700
     36 H5A2       -1.3910    2.7400    1.0080 h1        1 PLS      0.047700
     37 H2         -0.6240    4.8520    2.1640 ho        1 PLS      0.424000
@<TRIPOS>BOND
     1    1    2 1   
     2    1   14 1   
     3    1   23 1   
     4    2    3 1   
     5    2    5 1   
     6    2   24 1   
     7    3    4 1   
     8    3   25 1   
     9    3   26 1   
    10    4   27 1   
    11    5    6 1   
    12    5    7 1   
    13    8    9 ar  
    14    8   16 ar  
    15    9   10 1   
    16    9   11 ar  
    17   10   28 1   
    18   10   29 1   
    19   10   30 1   
    20   11   12 1   
    21   11   13 ar  
    22   12   31 1   
    23   13   14 1   
    24   13   15 ar  
    25   14   32 1   
    26   14   33 1   
    27   15   16 ar  
    28   15   17 1   
    29   16   34 1   
    30   17   18 1   
    31   17   35 1   
    32   17   36 1   
    33   18   19 1   
    34   19   20 1   
    35   19   21 1   
    36   19   22 1   
    37   21   37 1   
@<TRIPOS>SUBSTRUCTURE
     1 PLS         1 TEMP              0 ****  ****    0 ROOT
