@<TRIPOS>MOLECULE
PLS
   36    36     1     0     0
SMALL
bcc


@<TRIPOS>ATOM
      1 N          -0.2890    0.4150   -2.3330 n3        1 PLS     -0.821200
      2 CA         -1.3480    0.0510   -3.2570 c3        1 PLS      0.024500
      3 CB         -2.7750    0.2480   -2.7010 c3        1 PLS      0.121400
      4 OG         -3.7670   -0.0930   -3.6510 oh        1 PLS     -0.653800
      5 C          -1.2150    0.8180   -4.6140 c         1 PLS      0.916600
      6 O          -0.3640    0.4170   -5.4520 o         1 PLS     -0.852800
      7 OXT        -2.0280    1.7660   -4.8430 o         1 PLS     -0.852800
      8 N1          3.3090    0.1240    1.3270 nb        1 PLS     -0.682000
      9 C2          3.4080   -0.0340   -0.0230 ca        1 PLS      0.294600
     10 C2A         4.7530   -0.0780   -0.6660 c3        1 PLS     -0.104400
     11 C3          2.2630   -0.1870   -0.8380 ca        1 PLS      0.011800
     12 O3          2.5080   -0.4190   -2.1750 oh        1 PLS     -0.551100
     13 C4          0.9680   -0.1410   -0.2640 ca        1 PLS     -0.157300
     14 C4A        -0.2400   -0.3940   -1.1230 c3        1 PLS      0.202100
     15 C5          0.8780    0.0520    1.1170 ca        1 PLS     -0.145600
     16 C6          2.0910    0.1550    1.8650 ca        1 PLS      0.368200
     17 C5A        -0.4110    0.1210    1.9060 c3        1 PLS      0.243700
     18 O4P        -0.3090    0.8900    3.0350 os        1 PLS     -0.565200
     19 P          -0.3080    0.0530    4.5580 p5        1 PLS      1.315900
     20 O1P        -1.1250   -1.1760    4.2560 o         1 PLS     -0.926167
     21 O2P         1.1740   -0.1810    4.7250 o         1 PLS     -0.926167
     22 O3P        -0.9320    1.0510    5.4910 o         1 PLS     -0.926167
     23 HN         -0.3430    1.3890   -2.1040 hn        1 PLS      0.364800
     24 HA         -1.2230   -1.0440   -3.5010 h1        1 PLS      0.045700
     25 HB1        -2.9680   -0.4350   -1.8320 h1        1 PLS      0.029200
     26 HB2        -2.9160    1.3150   -2.3830 h1        1 PLS      0.029200
     27 HOG        -3.6040    0.4630   -4.4300 ho        1 PLS      0.430000
     28 H2A1        5.0240   -1.1390   -0.8960 hc        1 PLS      0.018033
     29 H2A2        4.7240    0.4880   -1.6300 hc        1 PLS      0.018033
     30 H2A3        5.5470    0.3580   -0.0130 hc        1 PLS      0.018033
     31 HO3         1.6920   -0.2490   -2.6750 ho        1 PLS      0.456000
     32 H4A1       -0.2000   -1.4770   -1.4480 h1        1 PLS      0.035700
     33 H4A2       -1.1740   -0.2780   -0.4990 h1        1 PLS      0.035700
     34 H6          1.9840    0.2340    2.9970 h4        1 PLS      0.145100
     35 H5A1       -1.2050    0.5740    1.2370 h1        1 PLS      0.019700
     36 H5A2       -0.7150   -0.9380    2.1700 h1        1 PLS      0.019700
@<TRIPOS>BOND
     1    1    2 1   
     2    1   14 1   
     3    1   23 1   
     4    2    3 1   
     5    2    5 1   
     6    2   24 1   
     7    3    4 1   
     8    3   25 1   
     9    3   26 1   
    10    4   27 1   
    11    5    6 1   
    12    5    7 1   
    13    8    9 ar  
    14    8   16 ar  
    15    9   10 1   
    16    9   11 ar  
    17   10   28 1   
    18   10   29 1   
    19   10   30 1   
    20   11   12 1   
    21   11   13 ar  
    22   12   31 1   
    23   13   14 1   
    24   13   15 ar  
    25   14   32 1   
    26   14   33 1   
    27   15   16 ar  
    28   15   17 1   
    29   16   34 1   
    30   17   18 1   
    31   17   35 1   
    32   17   36 1   
    33   18   19 1   
    34   19   20 1   
    35   19   21 1   
    36   19   22 1   
@<TRIPOS>SUBSTRUCTURE
     1 PLS         1 TEMP              0 ****  ****    0 ROOT
