@<TRIPOS>MOLECULE
PLS
   37    37     1     0     0
SMALL
bcc


@<TRIPOS>ATOM
      1 N           0.2800   -0.1630   -0.0590 n3        1 PLS     -0.807200
      2 CA          1.6670   -0.5520   -0.3070 c3        1 PLS     -0.003500
      3 CB          2.2400   -1.3300    0.8880 c3        1 PLS      0.149400
      4 OG          2.4170   -0.5340    2.0470 oh        1 PLS     -0.639800
      5 C           1.9280   -1.4010   -1.5890 c         1 PLS      0.896600
      6 O           0.9620   -1.6550   -2.3710 o         1 PLS     -0.847800
      7 OXT         3.1090   -1.7890   -1.7990 o         1 PLS     -0.847800
      8 N1         -4.5220    1.0260   -1.3420 nb        1 PLS     -0.675000
      9 C2         -3.8550   -0.1070   -1.6630 ca        1 PLS      0.334600
     10 C2A        -4.6030   -1.3140   -2.1220 c3        1 PLS     -0.120400
     11 C3         -2.4380   -0.1930   -1.5630 ca        1 PLS      0.026800
     12 O3         -1.8950   -1.4020   -1.9080 oh        1 PLS     -0.538100
     13 C4         -1.6940    0.9160   -1.1060 ca        1 PLS     -0.124300
     14 C4A        -0.1980    0.8310   -1.0130 c3        1 PLS      0.190100
     15 C5         -2.3980    2.0880   -0.7910 ca        1 PLS     -0.155600
     16 C6         -3.8050    2.0800   -0.9310 ca        1 PLS      0.372200
     17 C5A        -1.7030    3.3420   -0.3460 c3        1 PLS      0.238700
     18 O4P        -2.5960    4.4000   -0.1890 os        1 PLS     -0.578200
     19 P          -2.4390    5.3330    1.1700 p5        1 PLS      1.429800
     20 O1P        -3.3130    6.5080    1.0020 o         1 PLS     -0.838500
     21 O2P        -3.0710    4.2950    2.2620 oh        1 PLS     -0.783400
     22 O3P        -1.0040    5.3350    1.5290 o         1 PLS     -0.838500
     23 HN         -2.3980    3.7790    2.6900 ho        1 PLS      0.425000
     24 HA          2.2720    0.3940   -0.4190 h1        1 PLS      0.060700
     25 HB1         1.5860   -2.2070    1.1450 h1        1 PLS      0.041700
     26 HB2         3.2680   -1.6940    0.6180 h1        1 PLS      0.041700
     27 HOG         1.6400    0.0300    2.1340 ho        1 PLS      0.411000
     28 H2A1       -4.6050   -2.0780   -1.3060 hc        1 PLS      0.035367
     29 H2A2       -5.6590   -1.0790   -2.3980 hc        1 PLS      0.035367
     30 H2A3       -4.0810   -1.7540   -3.0080 hc        1 PLS      0.035367
     31 HO3        -0.9480   -1.2900   -2.1380 ho        1 PLS      0.484000
     32 H4A1        0.2280    1.8200   -0.6810 h1        1 PLS      0.055700
     33 H4A2        0.1940    0.6280   -2.0590 h1        1 PLS      0.055700
     34 H6         -4.3770    2.9970   -0.6890 h4        1 PLS      0.046100
     35 H5A1       -0.9530    3.6190   -1.1470 h1        1 PLS      0.040200
     36 H5A2       -1.1480    3.1570    0.6200 h1        1 PLS      0.040200
     37 H2         -0.2960   -0.9860   -0.1120 hn        1 PLS      0.352800
@<TRIPOS>BOND
     1    1    2 1   
     2    1   14 1   
     3    1   37 1   
     4    2    3 1   
     5    2    5 1   
     6    2   24 1   
     7    3    4 1   
     8    3   25 1   
     9    3   26 1   
    10    4   27 1   
    11    5    6 1   
    12    5    7 1   
    13    8    9 ar  
    14    8   16 ar  
    15    9   10 1   
    16    9   11 ar  
    17   10   28 1   
    18   10   29 1   
    19   10   30 1   
    20   11   12 1   
    21   11   13 ar  
    22   12   31 1   
    23   13   14 1   
    24   13   15 ar  
    25   14   32 1   
    26   14   33 1   
    27   15   16 ar  
    28   15   17 1   
    29   16   34 1   
    30   17   18 1   
    31   17   35 1   
    32   17   36 1   
    33   18   19 1   
    34   19   20 1   
    35   19   21 1   
    36   19   22 1   
    37   21   23 1   
@<TRIPOS>SUBSTRUCTURE
     1 PLS         1 TEMP              0 ****  ****    0 ROOT
